REMARK  2 active torsions:
REMARK  status: ('A' for Active; 'I' for Inactive)
REMARK    1  A    between atoms: C1_1  and  C2_2 
REMARK    2  A    between atoms: C2_2  and  C6_8 
ROOT
ATOM      1  C2  <0> d          -0.804   3.296   0.515  0.00  0.00     0.064 C 
ATOM      2  C3  <0> d           0.658   3.531   0.075  0.00  0.00    -0.028 C 
ATOM      3  C4  <0> d           1.212   2.091   0.002  0.00  0.00     0.018 C 
ATOM      4  C5  <0> d          -0.014   1.204   0.009  0.00  0.00     0.259 C 
ATOM      5  O1  <0> d           0.002  -0.004   0.002  0.00  0.00    -0.265 OA
ATOM      6  O2  <0> d          -1.122   1.960   0.018  0.00  0.00    -0.311 OA
ATOM      7  H4  <0> d           1.198   4.117   0.819  0.00  0.00     0.038 H 
ATOM      8  H5  <0> d           0.697   4.012  -0.902  0.00  0.00     0.038 H 
ATOM      9  H6  <0> d           1.837   1.880   0.869  0.00  0.00     0.048 H 
ATOM     10  H7  <0> d           1.778   1.948  -0.919  0.00  0.00     0.048 H 
ENDROOT
BRANCH   1  11
ATOM     11  C1  <0> d          -0.918   3.344   2.040  0.00  0.00    -0.047 C 
ATOM     12  H1  <0> d          -0.594   4.322   2.398  0.00  0.00     0.031 H 
ATOM     13  H2  <0> d          -1.955   3.176   2.333  0.00  0.00     0.031 H 
ATOM     14  H3  <0> d          -0.287   2.570   2.477  0.00  0.00     0.031 H 
ENDBRANCH   1  11
BRANCH   1  15
ATOM     15  C6  <0> d          -1.728   4.336  -0.122  0.00  0.00    -0.047 C 
ATOM     16  H8  <0> d          -1.668   4.259  -1.208  0.00  0.00     0.031 H 
ATOM     17  H9  <0> d          -2.754   4.155   0.199  0.00  0.00     0.031 H 
ATOM     18  H10 <0> d          -1.421   5.334   0.189  0.00  0.00     0.031 H 
ENDBRANCH   1  15
TORSDOF 2
