REMARK  3 active torsions:
REMARK  status: ('A' for Active; 'I' for Inactive)
REMARK    1  A    between atoms: C1_1  and  C2_2 
REMARK    2  A    between atoms: C2_2  and  N1_3 
REMARK    3  A    between atoms: C3_4  and  C6_9 
ROOT
ATOM      1  N1  <0> d           1.289   1.757  -0.001  0.00  0.00    -0.325 N 
ATOM      2  C3  <0> d           2.060   0.647  -0.014  0.00  0.00     0.103 A 
ATOM      3  N2  <0> d           1.283  -0.402  -0.012  0.00  0.00    -0.245 NA
ATOM      4  C4  <0> d           0.002  -0.004   0.002  0.00  0.00     0.041 A 
ATOM      5  C5  <0> d          -0.016   1.344   0.009  0.00  0.00     0.124 A 
ATOM      6 Cl1  <0> d          -1.424   2.360   0.022  0.00  0.00    -0.063 Cl
ATOM      7  H6  <0> d          -0.863  -0.651   0.006  0.00  0.00     0.119 H 
ENDROOT
BRANCH   1   8
ATOM      8  C2  <0> d           1.761   3.144   0.001  0.00  0.00    -0.001 C 
ATOM      9  H4  <0> d           2.716   3.203  -0.521  0.00  0.00     0.064 H 
ATOM     10  H5  <0> d           1.031   3.777  -0.502  0.00  0.00     0.064 H 
BRANCH   8  11
ATOM     11  C1  <0> d           1.940   3.620   1.445  0.00  0.00    -0.061 C 
ATOM     12  H1  <0> d           0.985   3.560   1.968  0.00  0.00     0.029 H 
ATOM     13  H2  <0> d           2.670   2.986   1.948  0.00  0.00     0.029 H 
ATOM     14  H3  <0> d           2.291   4.651   1.446  0.00  0.00     0.029 H 
ENDBRANCH   8  11
ENDBRANCH   1   8
BRANCH   2  15
ATOM     15  C6  <0> d           3.566   0.625  -0.029  0.00  0.00    -0.021 C 
ATOM     16  H7  <0> d           3.920   0.625  -1.060  0.00  0.00     0.037 H 
ATOM     17  H8  <0> d           3.948   1.506   0.487  0.00  0.00     0.037 H 
ATOM     18  H9  <0> d           3.921  -0.274   0.477  0.00  0.00     0.037 H 
ENDBRANCH   2  15
TORSDOF 3
