REMARK  6 active torsions:
REMARK  status: ('A' for Active; 'I' for Inactive)
REMARK    1  A    between atoms: C1_1  and  C2_2 
REMARK    2  A    between atoms: C2_2  and  N1_3 
REMARK    3  A    between atoms: N1_3  and  C3_4 
REMARK    4  A    between atoms: N1_3  and  S1_6 
REMARK    5  A    between atoms: C3_4  and  C4_5 
REMARK    6  A    between atoms: S1_6  and  C5_9 
ROOT
ATOM      1  N1  <0> d          -0.778   1.837  -1.400  0.00  0.00    -0.312 N 
ENDROOT
BRANCH   1   2
ATOM      2  C2  <0> d          -0.501   3.133  -2.023  0.00  0.00     0.002 C 
ATOM      3  H4  <0> d          -0.158   3.843  -1.256  0.00  0.00     0.064 H 
ATOM      4  H5  <0> d          -1.419   3.517  -2.494  0.00  0.00     0.064 H 
BRANCH   2   5
ATOM      5  C1  <0> d           0.586   2.966  -3.087  0.00  0.00    -0.060 C 
ATOM      6  H1  <0> d           0.793   3.940  -3.555  0.00  0.00     0.029 H 
ATOM      7  H2  <0> d           0.242   2.256  -3.854  0.00  0.00     0.029 H 
ATOM      8  H3  <0> d           1.503   2.583  -2.617  0.00  0.00     0.029 H 
ENDBRANCH   2   5
ENDBRANCH   1   2
BRANCH   1   9
ATOM      9  C3  <0> d          -1.728   0.912  -2.023  0.00  0.00     0.002 C 
ATOM     10  H6  <0> d          -1.655   0.994  -3.118  0.00  0.00     0.064 H 
ATOM     11  H7  <0> d          -1.492  -0.118  -1.717  0.00  0.00     0.064 H 
BRANCH   9  12
ATOM     12  C4  <0> d          -3.149   1.264  -1.579  0.00  0.00    -0.060 C 
ATOM     13  H8  <0> d          -3.862   0.569  -2.047  0.00  0.00     0.029 H 
ATOM     14  H9  <0> d          -3.385   2.293  -1.886  0.00  0.00     0.029 H 
ATOM     15  H10 <0> d          -3.222   1.181  -0.485  0.00  0.00     0.029 H 
ENDBRANCH   9  12
ENDBRANCH   1   9
BRANCH   1  16
ATOM     16  S1  <0> d          -0.017   1.417   0.010  0.00  0.00     0.224 S 
ATOM     17  O1  <0> d           0.002  -0.004   0.002  0.00  0.00    -0.206 OA
ATOM     18  O2  <0> d           1.195   2.158   0.002  0.00  0.00    -0.206 OA
BRANCH  16  19
ATOM     19  C5  <0> d          -1.110   2.020   1.327  0.00  0.00     0.032 C 
ATOM     20  H11 <0> d          -0.671   1.778   2.306  0.00  0.00     0.051 H 
ATOM     21  H12 <0> d          -2.094   1.537   1.236  0.00  0.00     0.051 H 
ATOM     22  H13 <0> d          -1.226   3.110   1.236  0.00  0.00     0.051 H 
ENDBRANCH  16  19
ENDBRANCH   1  16
TORSDOF 6
