REMARK  3 active torsions:
REMARK  status: ('A' for Active; 'I' for Inactive)
REMARK    1  A    between atoms: C1_1  and  C2_2 
REMARK    2  A    between atoms: C2_2  and  C3_3 
REMARK    3  A    between atoms: C2_2  and  C4_4 
ROOT
ATOM      1  C4  <0> d           0.718  -0.497  -1.257  0.00  0.00    -0.028 C 
ATOM      2  H1  <0> d           0.216  -0.138  -2.155  0.00  0.00     0.043 H 
ATOM      3  C5  <0> d           2.206  -0.075  -1.248  0.00  0.00     0.014 C 
ATOM      4  C6  <0> d           2.929  -1.253  -1.865  0.00  0.00     0.217 C 
ATOM      5  O1  <0> d           4.062  -1.224  -2.296  0.00  0.00    -0.274 OA
ATOM      6  N1  <0> d           2.133  -2.336  -1.865  0.00  0.00    -0.361 N 
ATOM      7  C7  <0> d           0.827  -2.038  -1.263  0.00  0.00    -0.001 C 
ATOM      8  H9  <0> d           2.352   0.820  -1.852  0.00  0.00     0.047 H 
ATOM      9  H10 <0> d           2.549   0.091  -0.228  0.00  0.00     0.047 H 
ATOM     10  H11 <0> d           2.388  -3.203  -2.217  0.00  0.00     0.162 HD
ATOM     11  H12 <0> d           0.785  -2.424  -0.244  0.00  0.00     0.064 H 
ATOM     12  H13 <0> d           0.027  -2.471  -1.863  0.00  0.00     0.064 H 
ENDROOT
BRANCH   1  13
ATOM     13  C2  <0> d           0.002  -0.004   0.002  0.00  0.00    -0.056 C 
ATOM     14  H5  <0> d           0.529  -0.365   0.885  0.00  0.00     0.039 H 
BRANCH  13  15
ATOM     15  C1  <0> d          -0.019   1.526   0.010  0.00  0.00    -0.073 C 
ATOM     16  H2  <0> d           1.004   1.903   0.003  0.00  0.00     0.028 H 
ATOM     17  H3  <0> d          -0.546   1.887  -0.873  0.00  0.00     0.028 H 
ATOM     18  H4  <0> d          -0.529   1.877   0.907  0.00  0.00     0.028 H 
ENDBRANCH  13  15
BRANCH  13  19
ATOM     19  C3  <0> d          -1.433  -0.534   0.013  0.00  0.00    -0.073 C 
ATOM     20  H6  <0> d          -1.960  -0.173  -0.870  0.00  0.00     0.028 H 
ATOM     21  H7  <0> d          -1.419  -1.623   0.007  0.00  0.00     0.028 H 
ATOM     22  H8  <0> d          -1.944  -0.182   0.910  0.00  0.00     0.028 H 
ENDBRANCH  13  19
ENDBRANCH   1  13
TORSDOF 3
