REMARK  4 active torsions:
REMARK  status: ('A' for Active; 'I' for Inactive)
REMARK    1  A    between atoms: C1_1  and  C2_2 
REMARK    2  A    between atoms: C2_2  and  C3_4 
REMARK    3  A    between atoms: C2_2  and  N2_7 
REMARK       I    between atoms: C3_4  and  N1_6 
REMARK       I    between atoms: N2_7  and  C4_8 
REMARK    4  A    between atoms: C4_8  and  C5_10 
ROOT
ATOM      1  C2  <0> d          -2.482   0.853   0.018  0.00  0.00     0.085 C 
ATOM      2  H1  <0> d          -2.535   0.230  -0.875  0.00  0.00     0.086 H 
ENDROOT
BRANCH   1   3
ATOM      3  C1  <0> d          -2.545  -0.035   1.263  0.00  0.00    -0.049 C 
ATOM      4  H2  <0> d          -1.707  -0.732   1.255  0.00  0.00     0.030 H 
ATOM      5  H3  <0> d          -2.492   0.588   2.156  0.00  0.00     0.030 H 
ATOM      6  H4  <0> d          -3.482  -0.593   1.265  0.00  0.00     0.030 H 
ENDBRANCH   1   3
BRANCH   1   7
ATOM      7  C3  <0> d          -1.187   1.624   0.017  0.00  0.00     0.237 C 
ATOM      8  O1  <0> d          -1.204   2.837   0.023  0.00  0.00    -0.271 OA
ATOM      9  N1  <0> d          -0.011   0.966   0.007  0.00  0.00    -0.368 N 
ATOM     10  H5  <0> d           0.002  -0.004   0.002  0.00  0.00     0.159 HD
ATOM     11  H6  <0> d           0.822   1.462   0.002  0.00  0.00     0.159 HD
ENDBRANCH   1   7
BRANCH   1  12
ATOM     12  N2  <0> d          -3.608   1.789   0.029  0.00  0.00    -0.349 N 
ATOM     13  C4  <0> d          -4.805   1.410  -0.461  0.00  0.00     0.214 C 
ATOM     14  O2  <0> d          -4.950   0.292  -0.910  0.00  0.00    -0.274 OA
ATOM     15  H7  <0> d          -3.493   2.683   0.388  0.00  0.00     0.163 HD
BRANCH  13  16
ATOM     16  C5  <0> d          -5.964   2.373  -0.450  0.00  0.00    -0.003 C 
ATOM     17  H8  <0> d          -5.646   3.319  -0.012  0.00  0.00     0.040 H 
ATOM     18  H9  <0> d          -6.305   2.542  -1.471  0.00  0.00     0.040 H 
ATOM     19  H10 <0> d          -6.779   1.955   0.141  0.00  0.00     0.040 H 
ENDBRANCH  13  16
ENDBRANCH   1  12
TORSDOF 4
