REMARK  9 active torsions:
REMARK  status: ('A' for Active; 'I' for Inactive)
REMARK    1  A    between atoms: C1_1  and  C2_2 
REMARK    2  A    between atoms: C2_2  and  C3_3 
REMARK    3  A    between atoms: C3_3  and  C4_4 
REMARK    4  A    between atoms: C4_4  and  C5_6 
REMARK    5  A    between atoms: C4_4  and  O2_13 
REMARK    6  A    between atoms: C5_6  and  C6_8 
REMARK    7  A    between atoms: C5_6  and  C7_9 
REMARK    8  A    between atoms: C7_9  and  C8_11 
REMARK    9  A    between atoms: C7_9  and  O1_12 
ROOT
ATOM      1  C4  <0> d           1.310   1.548   2.497  0.00  0.00     0.041 C 
ATOM      2  H1  <0> d           0.321   1.091   2.503  0.00  0.00     0.083 H 
ENDROOT
BRANCH   1   3
ATOM      3  C3  <0> d           2.087   1.101   3.736  0.00  0.00    -0.041 C 
ATOM      4  H9  <0> d           2.265   0.026   3.685  0.00  0.00     0.036 H 
ATOM      5  H10 <0> d           3.042   1.625   3.776  0.00  0.00     0.036 H 
BRANCH   3   6
ATOM      6  C2  <0> d           1.275   1.424   4.992  0.00  0.00    -0.066 C 
ATOM      7  H7  <0> d           1.097   2.498   5.043  0.00  0.00     0.032 H 
ATOM      8  H8  <0> d           0.321   0.899   4.952  0.00  0.00     0.032 H 
BRANCH   6   9
ATOM      9  C1  <0> d           2.052   0.976   6.231  0.00  0.00    -0.076 C 
ATOM     10  H4  <0> d           2.230  -0.098   6.180  0.00  0.00     0.027 H 
ATOM     11  H5  <0> d           3.007   1.501   6.271  0.00  0.00     0.027 H 
ATOM     12  H6  <0> d           1.474   1.206   7.126  0.00  0.00     0.027 H 
ENDBRANCH   6   9
ENDBRANCH   3   6
ENDBRANCH   1   3
BRANCH   1  13
ATOM     13  C5  <0> d           2.064   1.114   1.238  0.00  0.00    -0.008 C 
ATOM     14  H2  <0> d           3.053   1.571   1.231  0.00  0.00     0.047 H 
BRANCH  13  15
ATOM     15  C6  <0> d           2.205  -0.409   1.228  0.00  0.00    -0.068 C 
ATOM     16  H11 <0> d           2.742  -0.719   0.331  0.00  0.00     0.028 H 
ATOM     17  H12 <0> d           2.759  -0.728   2.111  0.00  0.00     0.028 H 
ATOM     18  H13 <0> d           1.215  -0.866   1.235  0.00  0.00     0.028 H 
ENDBRANCH  13  15
BRANCH  13  19
ATOM     19  C7  <0> d           1.286   1.562  -0.002  0.00  0.00     0.037 C 
ATOM     20  H3  <0> d           1.186   2.647   0.005  0.00  0.00     0.083 H 
BRANCH  19  21
ATOM     21  C8  <0> d           2.040   1.127  -1.261  0.00  0.00    -0.052 C 
ATOM     22  H14 <0> d           1.486   1.446  -2.144  0.00  0.00     0.030 H 
ATOM     23  H15 <0> d           3.029   1.584  -1.268  0.00  0.00     0.030 H 
ATOM     24  H16 <0> d           2.140   0.042  -1.268  0.00  0.00     0.030 H 
ENDBRANCH  19  21
BRANCH  19  25
ATOM     25  O1  <0> d          -0.011   0.963   0.007  0.00  0.00    -0.396 OA
ATOM     26  H17 <0> d           0.002  -0.004   0.002  0.00  0.00     0.210 HD
ENDBRANCH  19  25
ENDBRANCH  13  19
ENDBRANCH   1  13
BRANCH   1  27
ATOM     27  O2  <0> d           1.178   2.971   2.505  0.00  0.00    -0.395 OA
ATOM     28  H18 <0> d           2.021   3.445   2.500  0.00  0.00     0.210 HD
ENDBRANCH   1  27
TORSDOF 9
