REMARK  7 active torsions:
REMARK  status: ('A' for Active; 'I' for Inactive)
REMARK    1  A    between atoms: C1_1  and  C2_2 
REMARK    2  A    between atoms: C2_2  and  C3_3 
REMARK    3  A    between atoms: C3_3  and  C4_5 
REMARK    4  A    between atoms: C3_3  and  C7_8 
REMARK    5  A    between atoms: C4_5  and  C5_6 
REMARK    6  A    between atoms: C4_5  and  C6_7 
REMARK    7  A    between atoms: C7_8  and  C8_10 
ROOT
ATOM      1  C3  <0> d           0.090   0.950   2.709  0.00  0.00     0.006 C 
ATOM      2  H1  <0> d           0.404   0.000   2.715  0.00  0.00     0.052 H 
ENDROOT
BRANCH   1   3
ATOM      3  C2  <0> d          -0.764   1.197   1.464  0.00  0.00    -0.058 C 
ATOM      4  H5  <0> d          -0.142   1.105   0.573  0.00  0.00     0.033 H 
ATOM      5  H6  <0> d          -1.189   2.200   1.508  0.00  0.00     0.033 H 
BRANCH   3   6
ATOM      6  C1  <0> d          -1.893   0.167   1.407  0.00  0.00    -0.076 C 
ATOM      7  H2  <0> d          -2.576   0.329   2.241  0.00  0.00     0.027 H 
ATOM      8  H3  <0> d          -1.473  -0.837   1.471  0.00  0.00     0.027 H 
ATOM      9  H4  <0> d          -2.436   0.274   0.467  0.00  0.00     0.027 H 
ENDBRANCH   3   6
ENDBRANCH   1   3
BRANCH   1  10
ATOM     10  C4  <0> d           1.299   1.887   2.694  0.00  0.00    -0.051 C 
ATOM     11  H7  <0> d           0.957   2.921   2.678  0.00  0.00     0.040 H 
BRANCH  10  12
ATOM     12  C5  <0> d           2.146   1.648   3.946  0.00  0.00    -0.072 C 
ATOM     13  H8  <0> d           2.488   0.614   3.961  0.00  0.00     0.028 H 
ATOM     14  H9  <0> d           3.007   2.316   3.934  0.00  0.00     0.028 H 
ATOM     15  H10 <0> d           1.545   1.845   4.833  0.00  0.00     0.028 H 
ENDBRANCH  10  12
BRANCH  10  16
ATOM     16  C6  <0> d           2.142   1.610   1.447  0.00  0.00    -0.072 C 
ATOM     17  H11 <0> d           1.578   1.889   0.558  0.00  0.00     0.028 H 
ATOM     18  H12 <0> d           3.061   2.194   1.494  0.00  0.00     0.028 H 
ATOM     19  H13 <0> d           2.388   0.549   1.403  0.00  0.00     0.028 H 
ENDBRANCH  10  16
ENDBRANCH   1  10
BRANCH   1  20
ATOM     20  C7  <0> d          -0.734   1.214   3.943  0.00  0.00     0.127 C 
ATOM     21  O1  <0> d          -0.759   2.320   4.428  0.00  0.00    -0.298 OA
BRANCH  20  22
ATOM     22  C8  <0> d          -1.527   0.098   4.573  0.00  0.00    -0.021 C 
ATOM     23  H14 <0> d          -1.393  -0.743   4.049  0.00  0.00     0.037 H 
ATOM     24  H15 <0> d          -1.188  -0.056   5.598  0.00  0.00     0.037 H 
ATOM     25  H16 <0> d          -2.585   0.360   4.576  0.00  0.00     0.037 H 
ENDBRANCH  20  22
ENDBRANCH   1  20
TORSDOF 7
