REMARK  4 active torsions:
REMARK  status: ('A' for Active; 'I' for Inactive)
REMARK    1  A    between atoms: C1_1  and  C2_2 
REMARK    2  A    between atoms: C1_1  and  O5_13 
REMARK    3  A    between atoms: C3_4  and  O4_12 
REMARK    4  A    between atoms: C4_6  and  O3_11 
ROOT
ATOM      1  C2  <0> d           0.002  -0.004   0.002  0.00  0.00     0.096 C 
ATOM      2  H1  <0> d           0.596  -0.366  -0.837  0.00  0.00     0.091 H 
ATOM      3  C3  <0> d          -1.438  -0.555  -0.090  0.00  0.00     0.097 C 
ATOM      4  H2  <0> d          -2.165   0.258  -0.075  0.00  0.00     0.091 H 
ATOM      5  C4  <0> d          -1.551  -1.418   1.192  0.00  0.00     0.146 C 
ATOM      6  H3  <0> d          -2.049  -0.868   1.990  0.00  0.00     0.103 H 
ATOM      7  C5  <0> d          -0.084  -1.665   1.533  0.00  0.00     0.291 C 
ATOM      8  O1  <0> d           0.412  -2.678   1.968  0.00  0.00    -0.262 OA
ATOM      9  O2  <0> d           0.541  -0.498   1.240  0.00  0.00    -0.309 OA
ENDROOT
BRANCH   1  10
ATOM     10  C1  <0> d          -0.019   1.526   0.010  0.00  0.00     0.044 C 
ATOM     11  H4  <0> d          -0.546   1.887  -0.873  0.00  0.00     0.078 H 
ATOM     12  H5  <0> d          -0.529   1.877   0.907  0.00  0.00     0.078 H 
BRANCH  10  13
ATOM     13  O5  <0> d           1.322   2.020   0.000  0.00  0.00    -0.398 OA
ATOM     14  H8  <0> d           1.385   2.985   0.005  0.00  0.00     0.209 HD
ENDBRANCH  10  13
ENDBRANCH   1  10
BRANCH   3  15
ATOM     15  O4  <0> d          -1.601  -1.356  -1.262  0.00  0.00    -0.390 OA
ATOM     16  H7  <0> d          -2.489  -1.725  -1.366  0.00  0.00     0.210 HD
ENDBRANCH   3  15
BRANCH   5  17
ATOM     17  O3  <0> d          -2.227  -2.648   0.923  0.00  0.00    -0.383 OA
ATOM     18  H6  <0> d          -2.322  -3.222   1.695  0.00  0.00     0.210 HD
ENDBRANCH   5  17
TORSDOF 4
