REMARK  4 active torsions:
REMARK  status: ('A' for Active; 'I' for Inactive)
REMARK    1  A    between atoms: C1_1  and  C2_2 
REMARK    2  A    between atoms: C2_2  and  C3_4 
REMARK    3  A    between atoms: C2_2  and  N1_6 
REMARK       I    between atoms: N1_6  and  C4_7 
REMARK    4  A    between atoms: C4_7  and  C5_9 
ROOT
ATOM      1  N1  <0> d          -0.698   1.558   1.213  0.00  0.00    -0.347 N 
ATOM      2  C4  <0> d          -1.741   0.865   1.711  0.00  0.00     0.222 C 
ATOM      3  O2  <0> d          -2.112  -0.151   1.161  0.00  0.00    -0.273 OA
ATOM      4  H5  <0> d          -0.402   2.370   1.653  0.00  0.00     0.163 HD
ENDROOT
BRANCH   1   5
ATOM      5  C2  <0> d          -0.013   1.086   0.008  0.00  0.00     0.092 C 
ATOM      6  H1  <0> d           0.002  -0.004   0.002  0.00  0.00     0.089 H 
BRANCH   5   7
ATOM      7  C1  <0> d          -0.753   1.593  -1.232  0.00  0.00    -0.048 C 
ATOM      8  H2  <0> d          -0.767   2.683  -1.226  0.00  0.00     0.030 H 
ATOM      9  H3  <0> d          -0.242   1.241  -2.128  0.00  0.00     0.030 H 
ATOM     10  H4  <0> d          -1.775   1.215  -1.224  0.00  0.00     0.030 H 
ENDBRANCH   5   7
BRANCH   5  11
ATOM     11  C3  <0> d           1.401   1.607  -0.003  0.00  0.00     0.196 C 
ATOM     12  O1  <0> d           1.796   2.303   0.903  0.00  0.00    -0.646 OA
ATOM     13  O3  <0> d           2.222   1.300  -1.019  0.00  0.00    -0.646 OA
ENDBRANCH   5  11
ENDBRANCH   1   5
BRANCH   2  14
ATOM     14  C5  <0> d          -2.447   1.351   2.951  0.00  0.00     0.024 A 
ATOM     15  C7  <0> d          -3.622   0.518   3.467  0.00  0.00    -0.053 A 
ATOM     16  C6  <0> d          -2.291   0.517   4.225  0.00  0.00    -0.053 A 
ATOM     17  H9  <0> d          -4.457   1.053   3.919  0.00  0.00     0.034 H 
ATOM     18  H10 <0> d          -3.885  -0.381   2.910  0.00  0.00     0.034 H 
ATOM     19  H7  <0> d          -1.679  -0.383   4.166  0.00  0.00     0.034 H 
ATOM     20  H8  <0> d          -2.252   1.051   5.174  0.00  0.00     0.034 H 
ATOM     21  H6  <0> d          -2.509   2.433   3.062  0.00  0.00     0.054 H 
ENDBRANCH   2  14
TORSDOF 4
