REMARK  4 active torsions:
REMARK  status: ('A' for Active; 'I' for Inactive)
REMARK    1  A    between atoms: C1_1  and  C2_2 
REMARK    2  A    between atoms: C1_1  and  O5_13 
REMARK    3  A    between atoms: C3_4  and  O4_12 
REMARK    4  A    between atoms: C4_6  and  O3_11 
ROOT
ATOM      1  C2  <0> d           1.177   3.099   0.067  0.00  0.00     0.096 C 
ATOM      2  H1  <0> d           0.130   3.400   0.074  0.00  0.00     0.091 H 
ATOM      3  C3  <0> d           1.286   1.562  -0.002  0.00  0.00     0.097 C 
ATOM      4  H2  <0> d           1.845   1.254  -0.886  0.00  0.00     0.091 H 
ATOM      5  C4  <0> d           2.062   1.204   1.286  0.00  0.00     0.146 C 
ATOM      6  H3  <0> d           2.846   0.477   1.072  0.00  0.00     0.103 H 
ATOM      7  C5  <0> d           2.663   2.533   1.716  0.00  0.00     0.291 C 
ATOM      8  O1  <0> d           3.703   2.690   2.311  0.00  0.00    -0.262 OA
ATOM      9  O2  <0> d           1.821   3.501   1.310  0.00  0.00    -0.309 OA
ENDROOT
BRANCH   1  10
ATOM     10  C1  <0> d           1.897   3.730  -1.127  0.00  0.00     0.044 C 
ATOM     11  H4  <0> d           2.964   3.519  -1.061  0.00  0.00     0.078 H 
ATOM     12  H5  <0> d           1.500   3.313  -2.052  0.00  0.00     0.078 H 
BRANCH  10  13
ATOM     13  O5  <0> d           1.690   5.144  -1.114  0.00  0.00    -0.398 OA
ATOM     14  H8  <0> d           2.119   5.611  -1.844  0.00  0.00     0.209 HD
ENDBRANCH  10  13
ENDBRANCH   1  10
BRANCH   3  15
ATOM     15  O4  <0> d          -0.011   0.963   0.007  0.00  0.00    -0.390 OA
ATOM     16  H7  <0> d           0.002  -0.004   0.002  0.00  0.00     0.210 HD
ENDBRANCH   3  15
BRANCH   5  17
ATOM     17  O3  <0> d           1.173   0.706   2.287  0.00  0.00    -0.383 OA
ATOM     18  H6  <0> d           1.608   0.466   3.116  0.00  0.00     0.210 HD
ENDBRANCH   5  17
TORSDOF 4
