REMARK  2 active torsions:
REMARK  status: ('A' for Active; 'I' for Inactive)
REMARK    1  A    between atoms: C6_6  and  C7_7 
REMARK    2  A    between atoms: C7_7  and  O1_8 
ROOT
ATOM      1  C1  <0> d          -0.360   2.779   1.818  0.00  0.00    -0.073 A 
ATOM      2  C2  <0> d          -1.010   3.228   2.952  0.00  0.00    -0.061 A 
ATOM      3  C3  <0> d          -2.012   2.464   3.523  0.00  0.00     0.034 A 
ATOM      4  C4  <0> d          -2.367   1.253   2.955  0.00  0.00    -0.061 A 
ATOM      5  C5  <0> d          -1.719   0.808   1.817  0.00  0.00    -0.073 A 
ATOM      6  C6  <0> d          -0.718   1.572   1.248  0.00  0.00    -0.035 A 
ATOM      7 Cl1  <0> d          -2.825   3.024   4.951  0.00  0.00    -0.084 Cl
ATOM      8  H1  <0> d           0.426   3.373   1.375  0.00  0.00     0.084 H 
ATOM      9  H2  <0> d          -0.733   4.173   3.395  0.00  0.00     0.086 H 
ATOM     10  H3  <0> d          -3.149   0.656   3.399  0.00  0.00     0.086 H 
ATOM     11  H4  <0> d          -1.996  -0.137   1.374  0.00  0.00     0.084 H 
ENDROOT
BRANCH   6  12
ATOM     12  C7  <0> d          -0.013   1.086   0.008  0.00  0.00     0.040 C 
ATOM     13  H5  <0> d           0.002  -0.004   0.002  0.00  0.00     0.081 H 
ATOM     14  H6  <0> d           1.010   1.463   0.000  0.00  0.00     0.081 H 
BRANCH  12  15
ATOM     15  O1  <0> d          -0.704   1.559  -1.150  0.00  0.00    -0.396 OA
ATOM     16  H7  <0> d          -0.304   1.284  -1.986  0.00  0.00     0.209 HD
ENDBRANCH  12  15
ENDBRANCH   6  12
TORSDOF 2
