REMARK  5 active torsions:
REMARK  status: ('A' for Active; 'I' for Inactive)
REMARK    1  A    between atoms: C1_1  and  C2_2 
REMARK    2  A    between atoms: C3_3  and  C6_10 
REMARK    3  A    between atoms: N1_6  and  C5_9 
REMARK    4  A    between atoms: C6_10  and  C7_11 
REMARK    5  A    between atoms: C7_11  and  O2_12 
ROOT
ATOM      1  C2  <0> d           0.002  -0.004   0.002  0.00  0.00     0.034 A 
ATOM      2  C3  <0> d          -1.081  -0.807   0.003  0.00  0.00     0.037 A 
ATOM      3  C4  <0> d          -0.633  -2.149  -0.008  0.00  0.00     0.270 A 
ATOM      4  O1  <0> d          -1.337  -3.142  -0.011  0.00  0.00    -0.266 OA
ATOM      5  N1  <0> d           0.716  -2.129  -0.014  0.00  0.00    -0.262 N 
ATOM      6  N2  <0> d           1.121  -0.787  -0.013  0.00  0.00    -0.300 N 
ATOM      7  H1  <0> d           2.038  -0.470  -0.021  0.00  0.00     0.187 HD
ENDROOT
BRANCH   2   8
ATOM      8  C6  <0> d          -2.518  -0.354   0.013  0.00  0.00    -0.014 C 
ATOM      9  H8  <0> d          -3.115  -1.051   0.601  0.00  0.00     0.043 H 
ATOM     10  H9  <0> d          -2.583   0.641   0.453  0.00  0.00     0.043 H 
BRANCH   8  11
ATOM     11  C7  <0> d          -3.050  -0.312  -1.422  0.00  0.00     0.021 C 
ATOM     12  H10 <0> d          -2.453   0.385  -2.010  0.00  0.00     0.074 H 
ATOM     13  H11 <0> d          -2.985  -1.307  -1.862  0.00  0.00     0.074 H 
BRANCH  11  14
ATOM     14  O2  <0> d          -4.412   0.117  -1.412  0.00  0.00    -0.401 OA
ATOM     15  H12 <0> d          -4.815   0.167  -2.290  0.00  0.00     0.209 HD
ENDBRANCH  11  14
ENDBRANCH   8  11
ENDBRANCH   2   8
BRANCH   1  16
ATOM     16  C1  <0> d          -0.018   1.503   0.010  0.00  0.00    -0.035 C 
ATOM     17  H2  <0> d           1.004   1.880   0.003  0.00  0.00     0.035 H 
ATOM     18  H3  <0> d          -0.545   1.864  -0.873  0.00  0.00     0.035 H 
ATOM     19  H4  <0> d          -0.529   1.854   0.907  0.00  0.00     0.035 H 
ENDBRANCH   1  16
BRANCH   5  20
ATOM     20  C5  <0> d           1.598  -3.298  -0.025  0.00  0.00     0.004 C 
ATOM     21  H5  <0> d           1.811  -3.583  -1.055  0.00  0.00     0.059 H 
ATOM     22  H6  <0> d           2.530  -3.055   0.486  0.00  0.00     0.059 H 
ATOM     23  H7  <0> d           1.108  -4.127   0.487  0.00  0.00     0.059 H 
ENDBRANCH   5  20
TORSDOF 5
