REMARK  0 active torsions:
REMARK  status: ('A' for Active; 'I' for Inactive)
ROOT
ATOM      1  C1  <0> d          -0.017   1.377   0.010  0.00  0.00    -0.081 A 
ATOM      2  C2  <0> d           1.168   2.092   0.002  0.00  0.00    -0.076 A 
ATOM      3  C3  <0> d           2.387   1.438  -0.013  0.00  0.00    -0.042 A 
ATOM      4  C4  <0> d           2.429   0.046  -0.021  0.00  0.00     0.037 A 
ATOM      5  C5  <0> d           1.216  -0.683  -0.014  0.00  0.00     0.059 A 
ATOM      6  C6  <0> d           0.002  -0.004   0.002  0.00  0.00    -0.062 A 
ATOM      7  C7  <0> d           1.239  -2.115  -0.023  0.00  0.00     0.100 C 
ATOM      8  N1  <0> d           1.257  -3.251  -0.029  0.00  0.00    -0.191 NA
ATOM      9  C8  <0> d           3.821  -0.432  -0.037  0.00  0.00     0.161 A 
ATOM     10  O1  <0> d           4.175  -1.592  -0.047  0.00  0.00    -0.292 OA
ATOM     11  C9  <0> d           4.731   0.772  -0.040  0.00  0.00    -0.001 A 
ATOM     12  C10 <0> d           3.793   1.988  -0.024  0.00  0.00    -0.034 A 
ATOM     13  H1  <0> d          -0.961   1.902   0.026  0.00  0.00     0.083 H 
ATOM     14  H2  <0> d           1.141   3.172   0.008  0.00  0.00     0.084 H 
ATOM     15  H3  <0> d          -0.926  -0.557   0.009  0.00  0.00     0.085 H 
ATOM     16  H4  <0> d           5.362   0.771   0.849  0.00  0.00     0.045 H 
ATOM     17  H5  <0> d           5.345   0.780  -0.940  0.00  0.00     0.045 H 
ATOM     18  H6  <0> d           3.951   2.594  -0.916  0.00  0.00     0.040 H 
ATOM     19  H7  <0> d           3.969   2.584   0.871  0.00  0.00     0.040 H 
ENDROOT
TORSDOF 0
