REMARK  4 active torsions:
REMARK  status: ('A' for Active; 'I' for Inactive)
REMARK    1  A    between atoms: C1_1  and  C2_2 
REMARK    2  A    between atoms: C2_2  and  S1_3 
REMARK    3  A    between atoms: S1_3  and  C3_4 
REMARK    4  A    between atoms: C8_9  and  N1_10 
ROOT
ATOM      1  C3  <0> d          -0.017   1.391   0.010  0.00  0.00     0.026 A 
ATOM      2  C4  <0> d           1.177   2.097   0.002  0.00  0.00    -0.065 A 
ATOM      3  C5  <0> d           2.381   1.417  -0.013  0.00  0.00    -0.082 A 
ATOM      4  C6  <0> d           2.400   0.035  -0.021  0.00  0.00    -0.081 A 
ATOM      5  C7  <0> d           1.214  -0.677  -0.013  0.00  0.00    -0.056 A 
ATOM      6  C8  <0> d           0.002  -0.004   0.002  0.00  0.00     0.042 A 
ATOM      7  H6  <0> d           1.167   3.177   0.008  0.00  0.00     0.085 H 
ATOM      8  H7  <0> d           3.310   1.968  -0.020  0.00  0.00     0.083 H 
ATOM      9  H8  <0> d           3.343  -0.491  -0.034  0.00  0.00     0.083 H 
ATOM     10  H9  <0> d           1.233  -1.756  -0.019  0.00  0.00     0.086 H 
ENDROOT
BRANCH   1  11
ATOM     11  S1  <0> d          -1.553   2.254   0.022  0.00  0.00    -0.128 SA
BRANCH  11  12
ATOM     12  C2  <0> d          -1.074   4.003   0.029  0.00  0.00    -0.022 C 
ATOM     13  H4  <0> d          -0.478   4.213   0.917  0.00  0.00     0.048 H 
ATOM     14  H5  <0> d          -0.486   4.223  -0.863  0.00  0.00     0.048 H 
BRANCH  12  15
ATOM     15  C1  <0> d          -2.330   4.876   0.040  0.00  0.00    -0.068 C 
ATOM     16  H1  <0> d          -2.917   4.657   0.931  0.00  0.00     0.028 H 
ATOM     17  H2  <0> d          -2.042   5.928   0.044  0.00  0.00     0.028 H 
ATOM     18  H3  <0> d          -2.926   4.667  -0.849  0.00  0.00     0.028 H 
ENDBRANCH  12  15
ENDBRANCH  11  12
ENDBRANCH   1  11
BRANCH   6  19
ATOM     19  N1  <0> d          -1.200  -0.723   0.009  0.00  0.00    -0.398 N 
ATOM     20  H10 <0> d          -2.047  -0.251   0.019  0.00  0.00     0.156 HD
ATOM     21  H11 <0> d          -1.185  -1.692   0.004  0.00  0.00     0.156 HD
ENDBRANCH   6  19
TORSDOF 4
