REMARK  1 active torsions:
REMARK  status: ('A' for Active; 'I' for Inactive)
REMARK    1  A    between atoms: C1_1  and  C2_2 
ROOT
ATOM      1  C2  <0> d          -0.018   1.503   0.010  0.00  0.00    -0.023 A 
ATOM      2  C3  <0> d          -1.224   2.178   0.020  0.00  0.00    -0.074 A 
ATOM      3  C4  <0> d          -1.244   3.560   0.033  0.00  0.00    -0.082 A 
ATOM      4  C5  <0> d          -0.056   4.269   0.026  0.00  0.00    -0.080 A 
ATOM      5  C6  <0> d           1.151   3.596   0.010  0.00  0.00    -0.045 A 
ATOM      6  C7  <0> d           1.171   2.212   0.003  0.00  0.00     0.122 A 
ATOM      7  F1  <0> d           2.350   1.553  -0.013  0.00  0.00    -0.206 F 
ATOM      8  H4  <0> d          -2.152   1.625   0.021  0.00  0.00     0.084 H 
ATOM      9  H5  <0> d          -2.186   4.086   0.045  0.00  0.00     0.083 H 
ATOM     10  H6  <0> d          -0.072   5.349   0.031  0.00  0.00     0.083 H 
ATOM     11  H7  <0> d           2.078   4.150   0.004  0.00  0.00     0.088 H 
ENDROOT
BRANCH   1  12
ATOM     12  C1  <0> d           0.002  -0.004   0.002  0.00  0.00    -0.048 C 
ATOM     13  H1  <0> d           0.017  -0.373   1.028  0.00  0.00     0.033 H 
ATOM     14  H2  <0> d          -0.888  -0.377  -0.505  0.00  0.00     0.033 H 
ATOM     15  H3  <0> d           0.892  -0.352  -0.522  0.00  0.00     0.033 H 
ENDBRANCH   1  12
TORSDOF 1
