REMARK  7 active torsions:
REMARK  status: ('A' for Active; 'I' for Inactive)
REMARK    1  A    between atoms: C1_1  and  C2_2 
REMARK    2  A    between atoms: C2_2  and  C3_4 
REMARK    3  A    between atoms: C2_2  and  C5_7 
REMARK    4  A    between atoms: C3_4  and  C4_5 
REMARK    5  A    between atoms: C5_7  and  C6_8 
REMARK    6  A    between atoms: C6_8  and  O3_10 
REMARK    7  A    between atoms: O3_10  and  C7_11 
ROOT
ATOM      1  C2  <0> d           2.457   0.997  -0.016  0.00  0.00    -0.040 C 
ATOM      2  H1  <0> d           2.367   0.307   0.823  0.00  0.00     0.041 H 
ENDROOT
BRANCH   1   3
ATOM      3  C1  <0> d           2.446   0.209  -1.328  0.00  0.00    -0.072 C 
ATOM      4  H2  <0> d           3.284  -0.488  -1.339  0.00  0.00     0.028 H 
ATOM      5  H3  <0> d           1.512  -0.345  -1.411  0.00  0.00     0.028 H 
ATOM      6  H4  <0> d           2.536   0.899  -2.167  0.00  0.00     0.028 H 
ENDBRANCH   1   3
BRANCH   1   7
ATOM      7  C3  <0> d           1.280   1.975   0.000  0.00  0.00     0.019 C 
ATOM      8  H5  <0> d           1.321   2.607  -0.887  0.00  0.00     0.049 H 
ATOM      9  H6  <0> d           1.338   2.598   0.893  0.00  0.00     0.049 H 
BRANCH   7  10
ATOM     10  C4  <0> d          -0.014   1.204   0.009  0.00  0.00     0.172 C 
ATOM     11  O1  <0> d           0.002  -0.004   0.002  0.00  0.00    -0.648 OA
ATOM     12  O4  <0> d          -1.186   1.859   0.018  0.00  0.00    -0.648 OA
ENDBRANCH   7  10
ENDBRANCH   1   7
BRANCH   1  13
ATOM     13  C5  <0> d           3.769   1.775   0.101  0.00  0.00     0.019 C 
ATOM     14  H7  <0> d           3.901   2.400  -0.782  0.00  0.00     0.048 H 
ATOM     15  H8  <0> d           3.740   2.405   0.991  0.00  0.00     0.048 H 
BRANCH  13  16
ATOM     16  C6  <0> d           4.919   0.807   0.209  0.00  0.00     0.258 C 
ATOM     17  O2  <0> d           4.710  -0.383   0.193  0.00  0.00    -0.265 OA
BRANCH  16  18
ATOM     18  O3  <0> d           6.175   1.267   0.322  0.00  0.00    -0.326 OA
BRANCH  18  19
ATOM     19  C7  <0> d           7.233   0.277   0.421  0.00  0.00     0.013 C 
ATOM     20  H9  <0> d           8.195   0.782   0.507  0.00  0.00     0.067 H 
ATOM     21  H10 <0> d           7.068  -0.344   1.301  0.00  0.00     0.067 H 
ATOM     22  H11 <0> d           7.229  -0.349  -0.471  0.00  0.00     0.067 H 
ENDBRANCH  18  19
ENDBRANCH  16  18
ENDBRANCH  13  16
ENDBRANCH   1  13
TORSDOF 7
