REMARK  1 active torsions:
REMARK  status: ('A' for Active; 'I' for Inactive)
REMARK    1  A    between atoms: C2_3  and  N4_10 
ROOT
ATOM      1  C1  <0> d           1.107   2.011   0.002  0.00  0.00     0.091 A 
ATOM      2  N1  <0> d           2.293   1.431  -0.011  0.00  0.00    -0.222 NA
ATOM      3  C2  <0> d           2.410   0.107  -0.020  0.00  0.00     0.156 A 
ATOM      4  C3  <0> d           1.238  -0.667  -0.013  0.00  0.00     0.157 A 
ATOM      5  C4  <0> d           0.002  -0.004   0.002  0.00  0.00     0.204 A 
ATOM      6  N2  <0> d          -0.016   1.324   0.009  0.00  0.00    -0.215 NA
ATOM      7  O1  <0> d          -0.940  -0.967   0.005  0.00  0.00    -0.283 OA
ATOM      8  C5  <0> d          -0.321  -2.160  -0.007  0.00  0.00     0.106 A 
ATOM      9  N3  <0> d           0.968  -1.997  -0.018  0.00  0.00    -0.228 NA
ATOM     10  H1  <0> d           1.056   3.090   0.009  0.00  0.00     0.146 H 
ATOM     11  H2  <0> d          -0.823  -3.116  -0.008  0.00  0.00     0.155 H 
ENDROOT
BRANCH   3  12
ATOM     12  N4  <0> d           3.656  -0.494  -0.035  0.00  0.00    -0.382 N 
ATOM     13  H3  <0> d           3.728  -1.461  -0.041  0.00  0.00     0.157 HD
ATOM     14  H4  <0> d           4.458   0.052  -0.039  0.00  0.00     0.157 HD
ENDBRANCH   3  12
TORSDOF 1
