REMARK  0 active torsions:
REMARK  status: ('A' for Active; 'I' for Inactive)
ROOT
ATOM      1  C1  <0> d          -1.232   1.760   0.017  0.00  0.00    -0.051 A 
ATOM      2  C2  <0> d          -1.226   3.120   0.029  0.00  0.00    -0.017 A 
ATOM      3  N1  <0> d          -0.038   3.778   0.022  0.00  0.00    -0.317 N 
ATOM      4  H1  <0> d          -0.018   4.878   0.028  0.00  0.00     0.170 HD
ATOM      5  C3  <0> d           1.117   3.087   0.007  0.00  0.00     0.345 A 
ATOM      6  O1  <0> d           2.178   3.689   0.000  0.00  0.00    -0.245 OA
ATOM      7  N2  <0> d           1.118   1.752   0.001  0.00  0.00    -0.206 NA
ATOM      8  C4  <0> d          -0.013   1.076   0.008  0.00  0.00     0.009 A 
ATOM      9  H2  <0> d          -2.165   1.216   0.019  0.00  0.00     0.087 H 
ATOM     10  H3  <0> d          -2.156   3.671   0.040  0.00  0.00     0.111 H 
ATOM     11  H4  <0> d           0.002  -0.004   0.002  0.00  0.00     0.115 H 
ENDROOT
TORSDOF 0
