REMARK  4 active torsions:
REMARK  status: ('A' for Active; 'I' for Inactive)
REMARK    1  A    between atoms: C1_1  and  N1_2 
REMARK    2  A    between atoms: C3_4  and  C5_7 
REMARK    3  A    between atoms: C5_7  and  O2_9 
REMARK    4  A    between atoms: O2_9  and  C6_10 
ROOT
ATOM      1  N1  <0> d          -1.105   1.856   0.017  0.00  0.00    -0.285 N 
ATOM      2  C2  <0> d          -0.013   1.076   0.008  0.00  0.00     0.015 A 
ATOM      3  C3  <0> d           1.089   1.909   0.002  0.00  0.00     0.075 A 
ATOM      4  C4  <0> d           0.608   3.237   0.013  0.00  0.00     0.039 A 
ATOM      5  N2  <0> d          -0.696   3.194   0.025  0.00  0.00    -0.185 NA
ATOM      6  H4  <0> d           0.002  -0.004   0.002  0.00  0.00     0.115 H 
ATOM      7  H5  <0> d           1.213   4.132   0.012  0.00  0.00     0.119 H 
ENDROOT
BRANCH   3   8
ATOM      8  C5  <0> d           2.502   1.490  -0.013  0.00  0.00     0.295 C 
ATOM      9  O1  <0> d           2.785   0.309  -0.021  0.00  0.00    -0.259 OA
BRANCH   8  10
ATOM     10  O2  <0> d           3.479   2.418  -0.017  0.00  0.00    -0.322 OA
BRANCH  10  11
ATOM     11  C6  <0> d           4.848   1.933  -0.032  0.00  0.00     0.013 C 
ATOM     12  H6  <0> d           5.540   2.789  -0.034  0.00  0.00     0.067 H 
ATOM     13  H7  <0> d           5.012   1.326  -0.934  0.00  0.00     0.067 H 
ATOM     14  H8  <0> d           5.028   1.318   0.862  0.00  0.00     0.067 H 
ENDBRANCH  10  11
ENDBRANCH   8  10
ENDBRANCH   3   8
BRANCH   1  15
ATOM     15  C1  <0> d          -2.492   1.385   0.021  0.00  0.00     0.002 C 
ATOM     16  H1  <0> d          -2.506   0.285   0.013  0.00  0.00     0.059 H 
ATOM     17  H2  <0> d          -3.011   1.765  -0.872  0.00  0.00     0.059 H 
ATOM     18  H3  <0> d          -3.001   1.751   0.924  0.00  0.00     0.059 H 
ENDBRANCH   1  15
TORSDOF 4
