REMARK  4 active torsions:
REMARK  status: ('A' for Active; 'I' for Inactive)
REMARK    1  A    between atoms: C1_1  and  O1_2 
REMARK    2  A    between atoms: O1_2  and  C2_3 
REMARK    3  A    between atoms: C4_5  and  O2_9 
REMARK    4  A    between atoms: O2_9  and  C6_10 
ROOT
ATOM      1  C2  <0> d           1.171   1.805   0.001  0.00  0.00     0.169 A 
ATOM      2  C3  <0> d          -0.013   1.076   0.008  0.00  0.00     0.019 A 
ATOM      3  C4  <0> d          -1.216   1.772   0.017  0.00  0.00     0.169 A 
ATOM      4  N1  <0> d          -1.192   3.102   0.030  0.00  0.00    -0.218 NA
ATOM      5  C5  <0> d          -0.049   3.757   0.023  0.00  0.00     0.092 A 
ATOM      6  N2  <0> d           1.111   3.133   0.008  0.00  0.00    -0.218 NA
ATOM      7  H4  <0> d           0.002  -0.004   0.002  0.00  0.00     0.097 H 
ATOM      8  H5  <0> d          -0.064   4.837   0.029  0.00  0.00     0.146 H 
ENDROOT
BRANCH   1   9
ATOM      9  O1  <0> d           2.369   1.171  -0.015  0.00  0.00    -0.339 OA
BRANCH   9  10
ATOM     10  C1  <0> d           3.538   1.992  -0.021  0.00  0.00     0.012 C 
ATOM     11  H1  <0> d           4.426   1.361  -0.034  0.00  0.00     0.067 H 
ATOM     12  H2  <0> d           3.531   2.627  -0.908  0.00  0.00     0.067 H 
ATOM     13  H3  <0> d           3.548   2.617   0.872  0.00  0.00     0.067 H 
ENDBRANCH   9  10
ENDBRANCH   1   9
BRANCH   3  14
ATOM     14  O2  <0> d          -2.396   1.106   0.019  0.00  0.00    -0.339 OA
BRANCH  14  15
ATOM     15  C6  <0> d          -3.587   1.895   0.029  0.00  0.00     0.012 C 
ATOM     16  H6  <0> d          -4.457   1.240   0.029  0.00  0.00     0.067 H 
ATOM     17  H7  <0> d          -3.601   2.520   0.922  0.00  0.00     0.067 H 
ATOM     18  H8  <0> d          -3.610   2.529  -0.857  0.00  0.00     0.067 H 
ENDBRANCH  14  15
ENDBRANCH   3  14
TORSDOF 4
