REMARK  0 active torsions:
REMARK  status: ('A' for Active; 'I' for Inactive)
ROOT
ATOM      1  C1  <0> d          -2.131   0.791  -1.220  0.00  0.00    -0.061 C 
ATOM      2  C2  <0> d          -2.915   1.295   0.013  0.00  0.00    -0.060 C 
ATOM      3  C3  <0> d          -1.998   2.386   0.645  0.00  0.00    -0.038 C 
ATOM      4  H1  <0> d          -2.488   3.087   1.321  0.00  0.00     0.042 H 
ATOM      5  C4  <0> d          -1.317   3.000  -0.651  0.00  0.00    -0.057 C 
ATOM      6  C5  <0> d          -0.813   1.625  -1.216  0.00  0.00    -0.052 C 
ATOM      7  H2  <0> d          -0.271   1.663  -2.161  0.00  0.00     0.040 H 
ATOM      8  C6  <0> d          -0.013   1.086   0.008  0.00  0.00    -0.046 C 
ATOM      9  C7  <0> d          -0.783   1.607   1.242  0.00  0.00     0.034 C 
ATOM     10  H3  <0> d          -1.147   0.774   1.843  0.00  0.00     0.063 H 
ATOM     11  C8  <0> d           0.078   2.487   2.050  0.00  0.00     0.064 C 
ATOM     12  N1  <0> d           0.742   3.166   2.674  0.00  0.00    -0.197 NA
ATOM     13  H4  <0> d          -2.696   0.978  -2.132  0.00  0.00     0.033 H 
ATOM     14  H5  <0> d          -1.908  -0.271  -1.122  0.00  0.00     0.033 H 
ATOM     15  H6  <0> d          -3.867   1.730  -0.294  0.00  0.00     0.033 H 
ATOM     16  H7  <0> d          -3.080   0.480   0.718  0.00  0.00     0.033 H 
ATOM     17  H8  <0> d          -0.492   3.674  -0.419  0.00  0.00     0.034 H 
ATOM     18  H9  <0> d          -2.049   3.469  -1.308  0.00  0.00     0.034 H 
ATOM     19  H10 <0> d           0.002  -0.004   0.002  0.00  0.00     0.035 H 
ATOM     20  H11 <0> d           1.004   1.479   0.000  0.00  0.00     0.035 H 
ENDROOT
TORSDOF 0
