REMARK  3 active torsions:
REMARK  status: ('A' for Active; 'I' for Inactive)
REMARK    1  A    between atoms: C1_1  and  C2_2 
REMARK    2  A    between atoms: C2_2  and  C3_3 
REMARK    3  A    between atoms: C3_3  and  C4_4 
ROOT
ATOM      1  C4  <0> d           0.762  -2.018   1.233  0.00  0.00     0.025 A 
ATOM      2  C5  <0> d           1.819  -2.685   0.723  0.00  0.00    -0.007 A 
ATOM      3  N1  <0> d           1.824  -4.053   0.727  0.00  0.00    -0.318 N 
ATOM      4  H1  <0> d           2.610  -4.547   0.356  0.00  0.00     0.170 HD
ATOM      5  C6  <0> d           0.780  -4.740   1.226  0.00  0.00     0.326 A 
ATOM      6  O1  <0> d           0.803  -5.956   1.217  0.00  0.00    -0.247 OA
ATOM      7  N2  <0> d          -0.288  -4.101   1.737  0.00  0.00    -0.275 N 
ATOM      8  H2  <0> d          -1.055  -4.627   2.104  0.00  0.00     0.173 HD
ATOM      9  C7  <0> d          -0.329  -2.753   1.756  0.00  0.00     0.257 A 
ATOM     10  O2  <0> d          -1.296  -2.173   2.217  0.00  0.00    -0.267 OA
ATOM     11  H10 <0> d           2.659  -2.141   0.316  0.00  0.00     0.112 H 
ENDROOT
BRANCH   1  12
ATOM     12  C3  <0> d           0.742  -0.511   1.242  0.00  0.00    -0.035 C 
ATOM     13  H8  <0> d           1.765  -0.134   1.234  0.00  0.00     0.040 H 
ATOM     14  H9  <0> d           0.232  -0.159   2.138  0.00  0.00     0.040 H 
BRANCH  12  15
ATOM     15  C2  <0> d           0.002  -0.004   0.002  0.00  0.00    -0.065 C 
ATOM     16  H6  <0> d          -1.020  -0.381   0.010  0.00  0.00     0.032 H 
ATOM     17  H7  <0> d           0.512  -0.356  -0.895  0.00  0.00     0.032 H 
BRANCH  15  18
ATOM     18  C1  <0> d          -0.019   1.526   0.010  0.00  0.00    -0.076 C 
ATOM     19  H3  <0> d           1.004   1.903   0.003  0.00  0.00     0.027 H 
ATOM     20  H4  <0> d          -0.546   1.887  -0.873  0.00  0.00     0.027 H 
ATOM     21  H5  <0> d          -0.529   1.877   0.907  0.00  0.00     0.027 H 
ENDBRANCH  15  18
ENDBRANCH  12  15
ENDBRANCH   1  12
TORSDOF 3
