REMARK  5 active torsions:
REMARK  status: ('A' for Active; 'I' for Inactive)
REMARK    1  A    between atoms: C1_1  and  C2_2 
REMARK    2  A    between atoms: C2_2  and  C3_3 
REMARK    3  A    between atoms: C3_3  and  O1_4 
REMARK    4  A    between atoms: O1_4  and  C4_5 
REMARK    5  A    between atoms: C4_5  and  C5_6 
ROOT
ATOM      1  O1  <0> d           0.750   4.039   0.017  0.00  0.00    -0.385 OA
ENDROOT
BRANCH   1   2
ATOM      2  C3  <0> d           1.140   5.413   0.020  0.00  0.00     0.020 C 
ATOM      3  H7  <0> d           1.742   5.618   0.906  0.00  0.00     0.074 H 
ATOM      4  H8  <0> d           1.725   5.628  -0.874  0.00  0.00     0.074 H 
BRANCH   2   5
ATOM      5  C2  <0> d          -0.109   6.298   0.037  0.00  0.00    -0.049 C 
ATOM      6  H5  <0> d          -0.711   6.093  -0.849  0.00  0.00     0.035 H 
ATOM      7  H6  <0> d          -0.694   6.084   0.931  0.00  0.00     0.035 H 
BRANCH   5   8
ATOM      8  C1  <0> d           0.309   7.770   0.041  0.00  0.00    -0.075 C 
ATOM      9  H2  <0> d           0.911   7.974   0.926  0.00  0.00     0.027 H 
ATOM     10  H3  <0> d           0.894   7.984  -0.854  0.00  0.00     0.027 H 
ATOM     11  H4  <0> d          -0.580   8.400   0.053  0.00  0.00     0.027 H 
ENDBRANCH   5   8
ENDBRANCH   2   5
ENDBRANCH   1   2
BRANCH   1  12
ATOM     12  C4  <0> d           1.847   3.123   0.001  0.00  0.00     0.062 C 
ATOM     13  H9  <0> d           2.463   3.280   0.886  0.00  0.00     0.084 H 
ATOM     14  H10 <0> d           2.446   3.290  -0.894  0.00  0.00     0.084 H 
BRANCH  12  15
ATOM     15  C5  <0> d           1.322   1.710  -0.001  0.00  0.00     0.099 A 
ATOM     16  N3  <0> d           2.030   0.604  -0.014  0.00  0.00    -0.158 NA
ATOM     17  N2  <0> d           1.226  -0.400  -0.012  0.00  0.00    -0.197 N 
ATOM     18  N1  <0> d           0.002  -0.004   0.002  0.00  0.00    -0.168 NA
ATOM     19  H1  <0> d           1.512  -1.358  -0.020  0.00  0.00     0.212 HD
ATOM     20  C6  <0> d          -0.016   1.310   0.009  0.00  0.00     0.051 A 
ATOM     21  H11 <0> d          -0.886   1.948   0.017  0.00  0.00     0.120 H 
ENDBRANCH  12  15
ENDBRANCH   1  12
TORSDOF 5
