REMARK  1 active torsions:
REMARK  status: ('A' for Active; 'I' for Inactive)
REMARK    1  A    between atoms: C2_5  and  C3_7 
ROOT
ATOM      1  C3  <0> d           1.689  -1.884  -0.025  0.00  0.00     0.007 C 
ATOM      2  C4  <0> d           1.073  -2.607  -1.241  0.00  0.00    -0.055 C 
ATOM      3  C5  <0> d           0.732  -4.021  -0.710  0.00  0.00    -0.064 C 
ATOM      4  C6  <0> d           0.238  -3.735   0.730  0.00  0.00    -0.064 C 
ATOM      5  C7  <0> d           1.158  -2.602   1.228  0.00  0.00    -0.055 C 
ATOM      6  H3  <0> d           2.776  -1.951  -0.061  0.00  0.00     0.052 H 
ATOM      7  H4  <0> d           0.169  -2.095  -1.571  0.00  0.00     0.034 H 
ATOM      8  H5  <0> d           1.796  -2.668  -2.054  0.00  0.00     0.034 H 
ATOM      9  H6  <0> d          -0.058  -4.478  -1.306  0.00  0.00     0.033 H 
ATOM     10  H7  <0> d           1.620  -4.652  -0.695  0.00  0.00     0.033 H 
ATOM     11  H8  <0> d          -0.801  -3.406   0.719  0.00  0.00     0.033 H 
ATOM     12  H9  <0> d           0.351  -4.621   1.355  0.00  0.00     0.033 H 
ATOM     13  H10 <0> d           1.988  -3.018   1.800  0.00  0.00     0.034 H 
ATOM     14  H11 <0> d           0.591  -1.905   1.846  0.00  0.00     0.034 H 
ENDROOT
BRANCH   1  15
ATOM     15  C2  <0> d           1.261  -0.439  -0.012  0.00  0.00     0.151 A 
ATOM     16  N2  <0> d           2.066   0.591  -0.015  0.00  0.00    -0.158 NA
ATOM     17  N1  <0> d           1.256   1.739  -0.001  0.00  0.00    -0.270 N 
ATOM     18  C1  <0> d          -0.016   1.304   0.009  0.00  0.00     0.082 A 
ATOM     19  H1  <0> d           1.556   2.661   0.002  0.00  0.00     0.190 HD
ATOM     20  N3  <0> d           0.002  -0.004   0.002  0.00  0.00    -0.225 NA
ATOM     21  H2  <0> d          -0.898   1.926   0.025  0.00  0.00     0.145 H 
ENDBRANCH   1  15
TORSDOF 1
