REMARK  5 active torsions:
REMARK  status: ('A' for Active; 'I' for Inactive)
REMARK    1  A    between atoms: C2_2  and  C3_3 
REMARK    2  A    between atoms: C3_3  and  O1_4 
REMARK    3  A    between atoms: O1_4  and  C4_5 
REMARK    4  A    between atoms: C4_5  and  C5_6 
REMARK    5  A    between atoms: C5_6  and  O2_7 
ROOT
ATOM      1  C1  <0> d          -0.749   5.481   3.679  0.00  0.00    -0.152 C 
ATOM      2  C2  <0> d          -0.254   5.229   2.645  0.00  0.00    -0.091 C 
ATOM      3  H1  <0> d          -1.192   5.706   4.604  0.00  0.00     0.166 H 
ENDROOT
BRANCH   2   4
ATOM      4  C3  <0> d           0.367   4.914   1.348  0.00  0.00     0.073 C 
ATOM      5  H2  <0> d           1.336   5.409   1.280  0.00  0.00     0.093 H 
ATOM      6  H3  <0> d          -0.277   5.263   0.542  0.00  0.00     0.093 H 
BRANCH   4   7
ATOM      7  O1  <0> d           0.546   3.500   1.237  0.00  0.00    -0.377 OA
BRANCH   7   8
ATOM      8  C4  <0> d           1.145   3.085   0.008  0.00  0.00     0.040 C 
ATOM      9  H4  <0> d           2.130   3.542  -0.089  0.00  0.00     0.077 H 
ATOM     10  H5  <0> d           0.516   3.397  -0.827  0.00  0.00     0.077 H 
BRANCH   8  11
ATOM     11  C5  <0> d           1.286   1.562  -0.002  0.00  0.00     0.036 C 
ATOM     12  H6  <0> d           1.840   1.243   0.881  0.00  0.00     0.077 H 
ATOM     13  H7  <0> d           1.823   1.252  -0.899  0.00  0.00     0.077 H 
BRANCH  11  14
ATOM     14  O2  <0> d          -0.011   0.963   0.007  0.00  0.00    -0.399 OA
ATOM     15  H8  <0> d           0.002  -0.004   0.002  0.00  0.00     0.209 HD
ENDBRANCH  11  14
ENDBRANCH   8  11
ENDBRANCH   7   8
ENDBRANCH   4   7
ENDBRANCH   2   4
TORSDOF 5
