REMARK  0 active torsions:
REMARK  status: ('A' for Active; 'I' for Inactive)
REMARK       I    between atoms: N1_5  and  C7_8 
REMARK       I    between atoms: C7_8  and  N2_10 
ROOT
ATOM      1  C1  <0> d          -1.115   3.878   0.333  0.00  0.00    -0.064 C 
ATOM      2  C2  <0> d          -0.525   3.025   1.452  0.00  0.00    -0.064 C 
ATOM      3  C3  <0> d          -0.726   1.577   1.282  0.00  0.00    -0.050 C 
ATOM      4  C4  <0> d          -0.007   1.082   0.003  0.00  0.00    -0.001 C 
ATOM      5  N1  <0> d          -0.709   1.563  -1.166  0.00  0.00    -0.334 N 
ATOM      6  C5  <0> d          -0.383   2.845  -1.821  0.00  0.00    -0.001 C 
ATOM      7  C6  <0> d          -0.125   3.969  -0.801  0.00  0.00    -0.050 C 
ATOM      8  C7  <0> d          -1.703   0.810  -1.678  0.00  0.00     0.316 C 
ATOM      9  O1  <0> d          -2.368   1.230  -2.605  0.00  0.00    -0.247 OA
ATOM     10  N2  <0> d          -1.959  -0.408  -1.162  0.00  0.00    -0.352 N 
ATOM     11  H1  <0> d          -1.329   4.878   0.711  0.00  0.00     0.033 H 
ATOM     12  H2  <0> d          -2.038   3.420  -0.025  0.00  0.00     0.033 H 
ATOM     13  H3  <0> d           0.545   3.222   1.509  0.00  0.00     0.033 H 
ATOM     14  H4  <0> d          -0.982   3.327   2.395  0.00  0.00     0.033 H 
ATOM     15  H5  <0> d          -1.793   1.368   1.200  0.00  0.00     0.035 H 
ATOM     16  H6  <0> d          -0.324   1.053   2.148  0.00  0.00     0.035 H 
ATOM     17  H7  <0> d           0.008  -0.008  -0.006  0.00  0.00     0.064 H 
ATOM     18  H8  <0> d           1.016   1.459  -0.008  0.00  0.00     0.064 H 
ATOM     19  H9  <0> d           0.508   2.712  -2.435  0.00  0.00     0.064 H 
ATOM     20  H10 <0> d          -1.215   3.136  -2.463  0.00  0.00     0.064 H 
ATOM     21  H11 <0> d           0.887   3.873  -0.406  0.00  0.00     0.035 H 
ATOM     22  H12 <0> d          -0.228   4.935  -1.294  0.00  0.00     0.035 H 
ATOM     23  H13 <0> d          -1.479  -0.713  -0.376  0.00  0.00     0.160 HD
ATOM     24  H14 <0> d          -2.623  -0.981  -1.577  0.00  0.00     0.160 HD
ENDROOT
TORSDOF 0
