REMARK  2 active torsions:
REMARK  status: ('A' for Active; 'I' for Inactive)
REMARK    1  A    between atoms: C2_2  and  C3_3 
REMARK    2  A    between atoms: C3_3  and  O3_13 
ROOT
ATOM      1  C1  <0> d           2.463   2.345  -0.009  0.00  0.00    -0.151 C 
ATOM      2  C2  <0> d           1.363   1.937  -0.001  0.00  0.00    -0.074 C 
ATOM      3  H3  <0> d           3.448   2.711  -0.016  0.00  0.00     0.166 H 
ENDROOT
BRANCH   2   4
ATOM      4  C3  <0> d          -0.017   1.425   0.010  0.00  0.00     0.169 C 
ATOM      5  C8  <0> d          -0.742   1.923   1.270  0.00  0.00     0.172 C 
ATOM      6  O1  <0> d          -2.141   1.610   1.138  0.00  0.00    -0.355 OA
ATOM      7  H2  <0> d          -0.319   1.482   2.172  0.00  0.00     0.135 H 
ATOM      8  O2  <0> d          -0.659   3.365   1.278  0.00  0.00    -0.350 OA
ATOM      9  C7  <0> d          -2.760   2.726   0.473  0.00  0.00     0.047 C 
ATOM     10  C6  <0> d          -1.617   3.746   0.260  0.00  0.00     0.062 C 
ATOM     11  H8  <0> d          -3.173   2.414  -0.486  0.00  0.00     0.078 H 
ATOM     12  H9  <0> d          -3.540   3.156   1.101  0.00  0.00     0.078 H 
ATOM     13  C5  <0> d          -0.973   3.449  -1.104  0.00  0.00    -0.035 C 
ATOM     14  H1  <0> d          -1.954   4.779   0.348  0.00  0.00     0.086 H 
ATOM     15  C4  <0> d          -0.764   1.935  -1.228  0.00  0.00    -0.019 C 
ATOM     16  H6  <0> d          -1.629   3.795  -1.902  0.00  0.00     0.037 H 
ATOM     17  H7  <0> d          -0.012   3.959  -1.173  0.00  0.00     0.037 H 
ATOM     18  H4  <0> d          -0.178   1.718  -2.121  0.00  0.00     0.039 H 
ATOM     19  H5  <0> d          -1.732   1.440  -1.298  0.00  0.00     0.039 H 
BRANCH   4  20
ATOM     20  O3  <0> d           0.002  -0.004   0.002  0.00  0.00    -0.373 OA
ATOM     21  H10 <0> d           0.442  -0.387  -0.769  0.00  0.00     0.212 HD
ENDBRANCH   4  20
ENDBRANCH   2   4
TORSDOF 2
