REMARK  3 active torsions:
REMARK  status: ('A' for Active; 'I' for Inactive)
REMARK    1  A    between atoms: C2_2  and  C3_3 
REMARK    2  A    between atoms: C3_3  and  N1_4 
REMARK       I    between atoms: N1_4  and  C4_5 
REMARK    3  A    between atoms: C4_5  and  C5_7 
ROOT
ATOM      1  C1  <0> d          -1.584   6.394   2.692  0.00  0.00    -0.152 C 
ATOM      2  C2  <0> d          -1.568   5.220   2.685  0.00  0.00    -0.098 C 
ATOM      3  H1  <0> d          -1.599   7.494   2.698  0.00  0.00     0.166 H 
ENDROOT
BRANCH   2   4
ATOM      4  C3  <0> d          -1.548   3.748   2.677  0.00  0.00     0.050 C 
ATOM      5  H2  <0> d          -1.016   3.384   3.568  0.00  0.00     0.083 H 
ATOM      6  H3  <0> d          -2.580   3.368   2.685  0.00  0.00     0.083 H 
BRANCH   4   7
ATOM      7  N1  <0> d          -0.862   3.276   1.472  0.00  0.00    -0.350 N 
ATOM      8  C4  <0> d          -0.723   1.954   1.250  0.00  0.00     0.231 C 
ATOM      9  O1  <0> d          -1.166   1.155   2.048  0.00  0.00    -0.273 OA
ATOM     10  H4  <0> d          -0.461   4.000   0.748  0.00  0.00     0.163 HD
BRANCH   8  11
ATOM     11  C5  <0> d          -0.018   1.468   0.010  0.00  0.00     0.088 C 
ATOM     12  C6  <0> d           0.002  -0.004   0.002  0.00  0.00     0.068 C 
ATOM     13  N2  <0> d           0.018  -1.140  -0.004  0.00  0.00    -0.197 NA
ATOM     14  H5  <0> d          -0.550   1.832  -0.881  0.00  0.00     0.069 H 
ATOM     15  H6  <0> d           1.014   1.849   0.002  0.00  0.00     0.069 H 
ENDBRANCH   8  11
ENDBRANCH   4   7
ENDBRANCH   2   4
TORSDOF 3
