REMARK  2 active torsions:
REMARK  status: ('A' for Active; 'I' for Inactive)
REMARK    1  A    between atoms: C1_1  and  C2_2 
REMARK    2  A    between atoms: C2_2  and  C3_4 
ROOT
ATOM      1  C3  <0> d          -0.200   1.218   2.571  0.00  0.00     0.026 A 
ATOM      2  C4  <0> d          -0.760   1.604   3.873  0.00  0.00    -0.053 A 
ATOM      3  C5  <0> d           0.038   1.057   4.806  0.00  0.00    -0.022 A 
ATOM      4  N1  <0> d           1.041   0.367   4.188  0.00  0.00    -0.374 N 
ATOM      5  H1  <0> d           1.745  -0.116   4.648  0.00  0.00     0.164 HD
ATOM      6  C6  <0> d           0.912   0.447   2.852  0.00  0.00    -0.010 A 
ATOM      7  H5  <0> d          -1.639   2.207   4.047  0.00  0.00     0.087 H 
ATOM      8  H6  <0> d          -0.093   1.148   5.874  0.00  0.00     0.111 H 
ATOM      9  H7  <0> d           1.566  -0.010   2.124  0.00  0.00     0.112 H 
ENDROOT
BRANCH   1  10
ATOM     10  C2  <0> d          -0.718   1.572   1.248  0.00  0.00     0.157 C 
ATOM     11  O1  <0> d          -1.715   2.256   1.150  0.00  0.00    -0.293 OA
BRANCH  10  12
ATOM     12  C1  <0> d          -0.013   1.086   0.008  0.00  0.00    -0.017 C 
ATOM     13  H2  <0> d           0.001   0.086   0.003  0.00  0.00     0.038 H 
ATOM     14  H3  <0> d           1.010   1.463   0.000  0.00  0.00     0.038 H 
ATOM     15  H4  <0> d          -0.540   1.447  -0.875  0.00  0.00     0.038 H 
ENDBRANCH  10  12
ENDBRANCH   1  10
TORSDOF 2
