REMARK  4 active torsions:
REMARK  status: ('A' for Active; 'I' for Inactive)
REMARK    1  A    between atoms: C2_2  and  C3_3 
REMARK    2  A    between atoms: C3_3  and  C4_4 
REMARK    3  A    between atoms: C6_6  and  O2_11 
REMARK    4  A    between atoms: C9_9  and  O1_10 
ROOT
ATOM      1  C4  <0> d          -1.318  -1.726  -1.159  0.00  0.00    -0.019 A 
ATOM      2  C5  <0> d          -1.936  -1.355  -2.337  0.00  0.00    -0.042 A 
ATOM      3  C6  <0> d          -1.955  -2.228  -3.415  0.00  0.00     0.066 A 
ATOM      4  C7  <0> d          -1.364  -3.479  -3.305  0.00  0.00    -0.048 A 
ATOM      5  C8  <0> d          -0.752  -3.852  -2.124  0.00  0.00    -0.048 A 
ATOM      6  C9  <0> d          -0.727  -2.976  -1.049  0.00  0.00     0.072 A 
ATOM      7  H6  <0> d          -2.400  -0.384  -2.421  0.00  0.00     0.088 H 
ATOM      8  H7  <0> d          -1.384  -4.161  -4.142  0.00  0.00     0.087 H 
ATOM      9  H8  <0> d          -0.292  -4.825  -2.039  0.00  0.00     0.087 H 
ENDROOT
BRANCH   1  10
ATOM     10  C3  <0> d          -1.293  -0.775   0.010  0.00  0.00    -0.024 C 
ATOM     11  H4  <0> d          -1.374  -1.339   0.939  0.00  0.00     0.046 H 
ATOM     12  H5  <0> d          -2.130  -0.081  -0.068  0.00  0.00     0.046 H 
BRANCH  10  13
ATOM     13  C2  <0> d           0.002  -0.004   0.002  0.00  0.00    -0.108 C 
ATOM     14  C1  <0> d          -0.016   1.306   0.009  0.00  0.00    -0.124 C 
ATOM     15  H1  <0> d           0.912   1.859   0.003  0.00  0.00     0.066 H 
ATOM     16  H2  <0> d          -0.958   1.833   0.017  0.00  0.00     0.066 H 
ATOM     17  H3  <0> d           0.945  -0.531  -0.010  0.00  0.00     0.076 H 
ENDBRANCH  10  13
ENDBRANCH   1  10
BRANCH   6  18
ATOM     18  O1  <0> d          -0.124  -3.343   0.113  0.00  0.00    -0.360 OA
ATOM     19  H9  <0> d          -0.714  -3.785   0.740  0.00  0.00     0.217 HD
ENDBRANCH   6  18
BRANCH   3  20
ATOM     20  O2  <0> d          -2.558  -1.861  -4.577  0.00  0.00    -0.361 OA
ATOM     21  H10 <0> d          -3.497  -2.090  -4.622  0.00  0.00     0.217 HD
ENDBRANCH   3  20
TORSDOF 4
