REMARK  2 active torsions:
REMARK  status: ('A' for Active; 'I' for Inactive)
REMARK    1  A    between atoms: C1_1  and  C2_2 
REMARK    2  A    between atoms: C2_2  and  C7_8 
ROOT
ATOM      1  C2  <0> d           0.628  -0.573  -1.150  0.00  0.00     0.145 C 
ATOM      2  C3  <0> d           2.091  -0.124  -1.207  0.00  0.00    -0.027 C 
ATOM      3  C4  <0> d           2.147   1.406  -1.233  0.00  0.00    -0.060 C 
ATOM      4  C5  <0> d           1.419   1.953  -0.001  0.00  0.00    -0.045 C 
ATOM      5  C6  <0> d          -0.017   1.425   0.010  0.00  0.00     0.021 C 
ATOM      6  O1  <0> d           0.002  -0.004   0.002  0.00  0.00    -0.369 OA
ATOM      7  H4  <0> d           2.620  -0.494  -0.329  0.00  0.00     0.038 H 
ATOM      8  H5  <0> d           2.558  -0.521  -2.108  0.00  0.00     0.038 H 
ATOM      9  H6  <0> d           3.187   1.733  -1.217  0.00  0.00     0.033 H 
ATOM     10  H7  <0> d           1.663   1.774  -2.137  0.00  0.00     0.033 H 
ATOM     11  H8  <0> d           1.407   3.042  -0.040  0.00  0.00     0.036 H 
ATOM     12  H9  <0> d           1.935   1.626   0.902  0.00  0.00     0.036 H 
ATOM     13  H10 <0> d          -0.544   1.786  -0.873  0.00  0.00     0.074 H 
ATOM     14  H11 <0> d          -0.527   1.776   0.907  0.00  0.00     0.074 H 
ENDROOT
BRANCH   1  15
ATOM     15  C1  <0> d          -0.100  -0.103  -2.411  0.00  0.00    -0.038 C 
ATOM     16  H1  <0> d          -0.054   0.985  -2.472  0.00  0.00     0.032 H 
ATOM     17  H2  <0> d           0.378  -0.536  -3.289  0.00  0.00     0.032 H 
ATOM     18  H3  <0> d          -1.141  -0.421  -2.369  0.00  0.00     0.032 H 
ENDBRANCH   1  15
BRANCH   1  19
ATOM     19  C7  <0> d           0.566  -2.076  -1.065  0.00  0.00     0.208 C 
ATOM     20  O2  <0> d           1.478  -2.744  -1.492  0.00  0.00    -0.646 OA
ATOM     21  O3  <0> d          -0.502  -2.674  -0.514  0.00  0.00    -0.646 OA
ENDBRANCH   1  19
TORSDOF 2
