REMARK  1 active torsions:
REMARK  status: ('A' for Active; 'I' for Inactive)
REMARK    1  A    between atoms: C1_1  and  C2_2 
ROOT
ATOM      1  C2  <0> d           1.066   1.894   0.002  0.00  0.00    -0.004 A 
ATOM      2  C3  <0> d          -0.013   1.076   0.008  0.00  0.00     0.004 A 
ATOM      3  N1  <0> d          -1.110   1.862   0.017  0.00  0.00    -0.288 N 
ATOM      4  H1  <0> d          -2.053   1.528   0.017  0.00  0.00     0.188 HD
ATOM      5  N2  <0> d          -0.770   3.101   0.025  0.00  0.00    -0.164 NA
ATOM      6  C4  <0> d           0.544   3.209   0.014  0.00  0.00     0.164 A 
ATOM      7  C5  <0> d           1.298   4.426   0.013  0.00  0.00     0.122 C 
ATOM      8  N3  <0> d           1.897   5.391   0.012  0.00  0.00    -0.190 NA
ATOM      9  H5  <0> d           0.002  -0.004   0.002  0.00  0.00     0.114 H 
ENDROOT
BRANCH   1  10
ATOM     10  C1  <0> d           2.518   1.489  -0.013  0.00  0.00    -0.047 C 
ATOM     11  H2  <0> d           2.858   1.397  -1.044  0.00  0.00     0.033 H 
ATOM     12  H3  <0> d           3.111   2.246   0.499  0.00  0.00     0.033 H 
ATOM     13  H4  <0> d           2.633   0.531   0.495  0.00  0.00     0.033 H 
ENDBRANCH   1  10
TORSDOF 1
