REMARK  5 active torsions:
REMARK  status: ('A' for Active; 'I' for Inactive)
REMARK    1  A    between atoms: C1_1  and  C2_2 
REMARK    2  A    between atoms: C2_2  and  N1_3 
REMARK    3  A    between atoms: N1_3  and  C3_4 
REMARK    4  A    between atoms: C8_9  and  O1_10 
REMARK    5  A    between atoms: O1_10  and  C9_11 
ROOT
ATOM      1  C3  <0> d           0.832  -1.849  -1.434  0.00  0.00     0.061 A 
ATOM      2  C4  <0> d           0.332  -2.765  -0.519  0.00  0.00    -0.055 A 
ATOM      3  C5  <0> d           0.471  -4.120  -0.751  0.00  0.00    -0.081 A 
ATOM      4  C6  <0> d           1.118  -4.567  -1.888  0.00  0.00    -0.080 A 
ATOM      5  C7  <0> d           1.624  -3.661  -2.802  0.00  0.00    -0.049 A 
ATOM      6  C8  <0> d           1.484  -2.301  -2.579  0.00  0.00     0.094 A 
ATOM      7  H7  <0> d          -0.170  -2.418   0.372  0.00  0.00     0.087 H 
ATOM      8  H8  <0> d           0.078  -4.832  -0.040  0.00  0.00     0.083 H 
ATOM      9  H9  <0> d           1.228  -5.627  -2.063  0.00  0.00     0.083 H 
ATOM     10  H10 <0> d           2.129  -4.013  -3.689  0.00  0.00     0.087 H 
ENDROOT
BRANCH   1  11
ATOM     11  N1  <0> d           0.688  -0.476  -1.203  0.00  0.00    -0.388 N 
ATOM     12  H6  <0> d           1.089   0.248  -1.927  0.00  0.00     0.159 HD
BRANCH  11  13
ATOM     13  C2  <0> d           0.002  -0.004   0.002  0.00  0.00    -0.011 C 
ATOM     14  H4  <0> d           0.534  -0.368   0.893  0.00  0.00     0.063 H 
ATOM     15  H5  <0> d          -1.030  -0.385   0.010  0.00  0.00     0.063 H 
BRANCH  13  16
ATOM     16  C1  <0> d          -0.019   1.526   0.010  0.00  0.00    -0.061 C 
ATOM     17  H1  <0> d          -0.534   1.881   0.915  0.00  0.00     0.029 H 
ATOM     18  H2  <0> d          -0.551   1.890  -0.881  0.00  0.00     0.029 H 
ATOM     19  H3  <0> d           1.013   1.907   0.003  0.00  0.00     0.029 H 
ENDBRANCH  13  16
ENDBRANCH  11  13
ENDBRANCH   1  11
BRANCH   6  20
ATOM     20  O1  <0> d           1.982  -1.408  -3.477  0.00  0.00    -0.354 OA
BRANCH  20  21
ATOM     21  C9  <0> d           2.638  -1.943  -4.628  0.00  0.00     0.010 C 
ATOM     22  H11 <0> d           2.990  -1.119  -5.266  0.00  0.00     0.066 H 
ATOM     23  H12 <0> d           1.932  -2.569  -5.194  0.00  0.00     0.066 H 
ATOM     24  H13 <0> d           3.496  -2.553  -4.311  0.00  0.00     0.066 H 
ENDBRANCH  20  21
ENDBRANCH   6  20
TORSDOF 5
