REMARK  1 active torsions:
REMARK  status: ('A' for Active; 'I' for Inactive)
REMARK    1  A    between atoms: C1_1  and  C2_2 
ROOT
ATOM      1  C2  <0> d           0.002  -0.004   0.002  0.00  0.00     0.101 C 
ATOM      2  C3  <0> d          -1.228  -0.641   0.667  0.00  0.00    -0.017 C 
ATOM      3  H1  <0> d          -2.011  -0.983  -0.009  0.00  0.00     0.045 H 
ATOM      4  C4  <0> d          -1.731   0.141   1.902  0.00  0.00    -0.055 C 
ATOM      5  C5  <0> d          -0.717  -0.262   3.023  0.00  0.00    -0.053 C 
ATOM      6  C6  <0> d           0.646   0.241   2.452  0.00  0.00    -0.055 C 
ATOM      7  C7  <0> d           0.832  -0.619   1.149  0.00  0.00    -0.017 C 
ATOM      8  H2  <0> d           1.853  -0.918   0.909  0.00  0.00     0.045 H 
ATOM      9  C8  <0> d          -0.255  -1.726   1.198  0.00  0.00    -0.041 C 
ATOM     10  C9  <0> d          -0.598  -1.797   2.736  0.00  0.00    -0.057 C 
ATOM     11  O1  <0> d           0.308  -0.549  -1.283  0.00  0.00    -0.228 OA
ATOM     12  H6  <0> d          -1.694   1.215   1.718  0.00  0.00     0.034 H 
ATOM     13  H7  <0> d          -2.741  -0.169   2.168  0.00  0.00     0.034 H 
ATOM     14  H8  <0> d          -0.971   0.031   4.041  0.00  0.00     0.040 H 
ATOM     15  H9  <0> d           0.594   1.304   2.215  0.00  0.00     0.034 H 
ATOM     16  H10 <0> d           1.454   0.044   3.156  0.00  0.00     0.034 H 
ATOM     17  H11 <0> d          -0.114  -2.647   0.632  0.00  0.00     0.041 H 
ATOM     18  H12 <0> d           0.211  -2.252   3.308  0.00  0.00     0.034 H 
ATOM     19  H13 <0> d          -1.544  -2.312   2.903  0.00  0.00     0.034 H 
ENDROOT
BRANCH   1  20
ATOM     20  C1  <0> d          -0.019   1.526   0.010  0.00  0.00    -0.044 C 
ATOM     21  H3  <0> d           0.991   1.904  -0.154  0.00  0.00     0.031 H 
ATOM     22  H4  <0> d          -0.674   1.885  -0.783  0.00  0.00     0.031 H 
ATOM     23  H5  <0> d          -0.387   1.879   0.974  0.00  0.00     0.031 H 
ENDBRANCH   1  20
TORSDOF 1
