REMARK  4 active torsions:
REMARK  status: ('A' for Active; 'I' for Inactive)
REMARK    1  A    between atoms: C1_1  and  C2_2 
REMARK    2  A    between atoms: C4_4  and  N2_10 
REMARK    3  A    between atoms: C6_6  and  N1_9 
REMARK    4  A    between atoms: C7_7  and  C8_8 
ROOT
ATOM      1  C2  <0> d           1.207  -0.680  -0.013  0.00  0.00    -0.052 A 
ATOM      2  C3  <0> d           0.002  -0.004   0.002  0.00  0.00    -0.051 A 
ATOM      3  C4  <0> d          -0.017   1.385   0.010  0.00  0.00     0.028 A 
ATOM      4  C5  <0> d           1.177   2.094   0.002  0.00  0.00    -0.032 A 
ATOM      5  C6  <0> d           2.385   1.412  -0.014  0.00  0.00     0.034 A 
ATOM      6  C7  <0> d           2.397   0.022  -0.021  0.00  0.00    -0.030 A 
ATOM      7  H4  <0> d          -0.926  -0.556   0.008  0.00  0.00     0.087 H 
ATOM      8  H5  <0> d           1.165   3.174   0.008  0.00  0.00     0.090 H 
ENDROOT
BRANCH   1   9
ATOM      9  C1  <0> d           1.224  -2.187  -0.021  0.00  0.00    -0.051 C 
ATOM     10  H1  <0> d           1.218  -2.545  -1.051  0.00  0.00     0.033 H 
ATOM     11  H2  <0> d           2.122  -2.543   0.482  0.00  0.00     0.033 H 
ATOM     12  H3  <0> d           0.343  -2.563   0.499  0.00  0.00     0.033 H 
ENDBRANCH   1   9
BRANCH   6  13
ATOM     13  C8  <0> d           3.708  -0.719  -0.038  0.00  0.00    -0.049 C 
ATOM     14  H6  <0> d           4.015  -0.893  -1.069  0.00  0.00     0.033 H 
ATOM     15  H7  <0> d           4.468  -0.126   0.472  0.00  0.00     0.033 H 
ATOM     16  H8  <0> d           3.592  -1.675   0.472  0.00  0.00     0.033 H 
ENDBRANCH   6  13
BRANCH   5  17
ATOM     17  N1  <0> d           3.588   2.121  -0.022  0.00  0.00    -0.399 N 
ATOM     18  H9  <0> d           4.432   1.644  -0.034  0.00  0.00     0.156 HD
ATOM     19  H10 <0> d           3.579   3.091  -0.017  0.00  0.00     0.156 HD
ENDBRANCH   5  17
BRANCH   3  20
ATOM     20  N2  <0> d          -1.235   2.068   0.019  0.00  0.00    -0.399 N 
ATOM     21  H11 <0> d          -2.069   1.572   0.020  0.00  0.00     0.156 HD
ATOM     22  H12 <0> d          -1.248   3.038   0.025  0.00  0.00     0.156 HD
ENDBRANCH   3  20
TORSDOF 4
