REMARK  0 active torsions:
REMARK  status: ('A' for Active; 'I' for Inactive)
ROOT
ATOM      1  C1  <0> d           3.813  -0.211  -0.035  0.00  0.00    -0.054 A 
ATOM      2  C2  <0> d           4.468   0.961  -0.035  0.00  0.00    -0.020 A 
ATOM      3  N1  <0> d           3.572   1.996  -0.021  0.00  0.00    -0.350 N 
ATOM      4  H1  <0> d           3.809   2.937  -0.018  0.00  0.00     0.166 HD
ATOM      5  C3  <0> d           2.287   1.507  -0.012  0.00  0.00     0.137 A 
ATOM      6  C4  <0> d           2.383   0.102  -0.020  0.00  0.00     0.013 A 
ATOM      7  C5  <0> d           1.216  -0.666  -0.013  0.00  0.00    -0.047 A 
ATOM      8  C6  <0> d           0.002  -0.004   0.002  0.00  0.00     0.052 A 
ATOM      9  C7  <0> d          -0.017   1.383   0.010  0.00  0.00     0.025 A 
ATOM     10  N2  <0> d           1.095   2.087   0.003  0.00  0.00    -0.241 NA
ATOM     11 Cl1  <0> d          -1.485  -0.900   0.012  0.00  0.00    -0.083 Cl
ATOM     12  H2  <0> d           4.256  -1.196  -0.045  0.00  0.00     0.087 H 
ATOM     13  H3  <0> d           5.542   1.071  -0.044  0.00  0.00     0.111 H 
ATOM     14  H4  <0> d           1.261  -1.745  -0.019  0.00  0.00     0.087 H 
ATOM     15  H5  <0> d          -0.966   1.897   0.017  0.00  0.00     0.117 H 
ENDROOT
TORSDOF 0
