REMARK  2 active torsions:
REMARK  status: ('A' for Active; 'I' for Inactive)
REMARK    1  A    between atoms: C1_1  and  C2_2 
REMARK    2  A    between atoms: C8_8  and  O1_9 
ROOT
ATOM      1  C2  <0> d           0.002  -0.004   0.002  0.00  0.00     0.066 A 
ATOM      2  C3  <0> d           0.008  -0.823  -1.152  0.00  0.00     0.051 A 
ATOM      3  C4  <0> d           0.028  -2.158  -0.707  0.00  0.00     0.065 A 
ATOM      4  C5  <0> d           0.037  -3.195  -1.636  0.00  0.00    -0.055 A 
ATOM      5  C6  <0> d           0.027  -2.913  -2.983  0.00  0.00    -0.078 A 
ATOM      6  C7  <0> d           0.007  -1.599  -3.431  0.00  0.00    -0.050 A 
ATOM      7  C8  <0> d          -0.002  -0.553  -2.531  0.00  0.00     0.080 A 
ATOM      8  N1  <0> d           0.034  -2.113   0.664  0.00  0.00    -0.277 N 
ATOM      9  H1  <0> d           0.047  -2.879   1.258  0.00  0.00     0.189 HD
ATOM     10  N2  <0> d           0.023  -0.768   1.055  0.00  0.00    -0.178 NA
ATOM     11  H5  <0> d           0.053  -4.221  -1.299  0.00  0.00     0.087 H 
ATOM     12  H6  <0> d           0.035  -3.722  -3.699  0.00  0.00     0.083 H 
ATOM     13  H7  <0> d          -0.000  -1.394  -4.491  0.00  0.00     0.087 H 
ENDROOT
BRANCH   1  14
ATOM     14  C1  <0> d          -0.018   1.503   0.010  0.00  0.00    -0.033 C 
ATOM     15  H2  <0> d           1.004   1.880   0.003  0.00  0.00     0.035 H 
ATOM     16  H3  <0> d          -0.545   1.864  -0.873  0.00  0.00     0.035 H 
ATOM     17  H4  <0> d          -0.529   1.854   0.907  0.00  0.00     0.035 H 
ENDBRANCH   1  14
BRANCH   7  18
ATOM     18  O1  <0> d          -0.022   0.730  -2.975  0.00  0.00    -0.360 OA
ATOM     19  H8  <0> d           0.856   1.114  -3.108  0.00  0.00     0.217 HD
ENDBRANCH   7  18
TORSDOF 2
