REMARK  4 active torsions:
REMARK  status: ('A' for Active; 'I' for Inactive)
REMARK    1  A    between atoms: C2_2  and  C3_3 
REMARK    2  A    between atoms: C3_3  and  O1_4 
REMARK    3  A    between atoms: O1_4  and  C4_5 
REMARK    4  A    between atoms: C9_10  and  N1_11 
ROOT
ATOM      1  C4  <0> d          -0.017   1.389   0.010  0.00  0.00     0.095 A 
ATOM      2  C5  <0> d           1.175   2.094   0.002  0.00  0.00    -0.049 A 
ATOM      3  C6  <0> d           2.380   1.416  -0.013  0.00  0.00    -0.080 A 
ATOM      4  C7  <0> d           2.400   0.034  -0.021  0.00  0.00    -0.081 A 
ATOM      5  C8  <0> d           1.215  -0.677  -0.013  0.00  0.00    -0.055 A 
ATOM      6  C9  <0> d           0.002  -0.004   0.002  0.00  0.00     0.059 A 
ATOM      7  H6  <0> d           1.163   3.174   0.008  0.00  0.00     0.087 H 
ATOM      8  H7  <0> d           3.308   1.968  -0.020  0.00  0.00     0.083 H 
ATOM      9  H8  <0> d           3.344  -0.491  -0.033  0.00  0.00     0.083 H 
ATOM     10  H9  <0> d           1.233  -1.757  -0.019  0.00  0.00     0.087 H 
ENDROOT
BRANCH   1  11
ATOM     11  O1  <0> d          -1.203   2.055   0.019  0.00  0.00    -0.345 OA
BRANCH  11  12
ATOM     12  C3  <0> d          -1.145   3.482   0.026  0.00  0.00     0.041 C 
ATOM     13  H4  <0> d          -0.613   3.820   0.916  0.00  0.00     0.081 H 
ATOM     14  H5  <0> d          -0.622   3.830  -0.864  0.00  0.00     0.081 H 
BRANCH  12  15
ATOM     15  C2  <0> d          -2.545   4.041   0.036  0.00  0.00    -0.089 C 
ATOM     16  C1  <0> d          -2.852   5.025   0.845  0.00  0.00    -0.123 C 
ATOM     17  H1  <0> d          -3.855   5.426   0.852  0.00  0.00     0.066 H 
ATOM     18  H2  <0> d          -2.102   5.435   1.505  0.00  0.00     0.066 H 
ATOM     19  H3  <0> d          -3.295   3.631  -0.624  0.00  0.00     0.078 H 
ENDBRANCH  12  15
ENDBRANCH  11  12
ENDBRANCH   1  11
BRANCH   6  20
ATOM     20  N1  <0> d          -1.199  -0.722   0.009  0.00  0.00    -0.397 N 
ATOM     21  H10 <0> d          -2.046  -0.250   0.019  0.00  0.00     0.156 HD
ATOM     22  H11 <0> d          -1.185  -1.692   0.004  0.00  0.00     0.156 HD
ENDBRANCH   6  20
TORSDOF 4
