REMARK  2 active torsions:
REMARK  status: ('A' for Active; 'I' for Inactive)
REMARK    1  A    between atoms: C4_5  and  C5_6 
REMARK    2  A    between atoms: C7_8  and  N3_12 
ROOT
ATOM      1  C5  <0> d           1.970  -1.768  -0.026  0.00  0.00     0.092 A 
ATOM      2  C6  <0> d           3.335  -2.110  -0.041  0.00  0.00    -0.009 A 
ATOM      3  C7  <0> d           3.423  -3.467  -0.049  0.00  0.00     0.117 A 
ATOM      4  N1  <0> d           2.158  -3.963  -0.040  0.00  0.00    -0.262 N 
ATOM      5  H1  <0> d           1.993  -5.050  -0.048  0.00  0.00     0.191 HD
ATOM      6  N2  <0> d           1.268  -2.881  -0.020  0.00  0.00    -0.172 NA
ATOM      7  H5  <0> d           4.164  -1.419  -0.045  0.00  0.00     0.093 H 
ENDROOT
BRANCH   1   8
ATOM      8  C4  <0> d           1.417  -0.390  -0.014  0.00  0.00     0.018 A 
ATOM      9  C1  <0> d           0.002  -0.004   0.002  0.00  0.00    -0.047 A 
ATOM     10  C2  <0> d          -0.016   1.340   0.009  0.00  0.00     0.019 A 
ATOM     11  H2  <0> d          -0.852  -0.665   0.006  0.00  0.00     0.087 H 
ATOM     12  O1  <0> d           1.246   1.793  -0.000  0.00  0.00    -0.334 OA
ATOM     13  H3  <0> d          -0.904   1.955   0.017  0.00  0.00     0.123 H 
ATOM     14  C3  <0> d           2.117   0.773  -0.014  0.00  0.00     0.030 A 
ATOM     15  H4  <0> d           3.193   0.862  -0.024  0.00  0.00     0.124 H 
ENDBRANCH   1   8
BRANCH   3  16
ATOM     16  N3  <0> d           4.597  -4.214  -0.065  0.00  0.00    -0.384 N 
ATOM     17  H6  <0> d           4.551  -5.313  -0.070  0.00  0.00     0.157 HD
ATOM     18  H7  <0> d           5.573  -3.705  -0.071  0.00  0.00     0.157 HD
ENDBRANCH   3  16
TORSDOF 2
