REMARK  2 active torsions:
REMARK  status: ('A' for Active; 'I' for Inactive)
REMARK    1  A    between atoms: C1_1  and  O1_2 
REMARK    2  A    between atoms: O1_2  and  C2_3 
ROOT
ATOM      1  C2  <0> d           0.598  -0.599  -1.042  0.00  0.00     0.081 A 
ATOM      2  C3  <0> d           1.173   0.139  -2.062  0.00  0.00     0.114 A 
ATOM      3  C4  <0> d           1.815  -0.556  -3.186  0.00  0.00     0.088 A 
ATOM      4  C5  <0> d           2.280   0.455  -4.016  0.00  0.00    -0.036 A 
ATOM      5  C6  <0> d           1.935   1.666  -3.420  0.00  0.00     0.005 A 
ATOM      6  N1  <0> d           1.296   1.460  -2.293  0.00  0.00    -0.256 NA
ATOM      7  N2  <0> d           1.865  -1.911  -3.262  0.00  0.00    -0.262 NA
ATOM      8  C7  <0> d           1.361  -2.689  -2.368  0.00  0.00    -0.011 A 
ATOM      9  C8  <0> d           0.676  -2.109  -1.153  0.00  0.00     0.012 A 
ATOM     10  H4  <0> d           2.811   0.327  -4.949  0.00  0.00     0.089 H 
ATOM     11  H5  <0> d           2.162   2.639  -3.829  0.00  0.00     0.114 H 
ATOM     12  H6  <0> d           1.433  -3.760  -2.485  0.00  0.00     0.108 H 
ATOM     13  H7  <0> d           1.190  -2.482  -0.266  0.00  0.00     0.051 H 
ATOM     14  H8  <0> d          -0.342  -2.498  -1.131  0.00  0.00     0.051 H 
ENDROOT
BRANCH   1  15
ATOM     15  O1  <0> d           0.002  -0.004   0.002  0.00  0.00    -0.357 OA
BRANCH  15  16
ATOM     16  C1  <0> d          -0.017   1.425   0.010  0.00  0.00     0.010 C 
ATOM     17  H1  <0> d           1.005   1.802   0.002  0.00  0.00     0.066 H 
ATOM     18  H2  <0> d          -0.544   1.786  -0.873  0.00  0.00     0.066 H 
ATOM     19  H3  <0> d          -0.527   1.776   0.907  0.00  0.00     0.066 H 
ENDBRANCH  15  16
ENDBRANCH   1  15
TORSDOF 2
