REMARK  1 active torsions:
REMARK  status: ('A' for Active; 'I' for Inactive)
REMARK    1  A    between atoms: C1_1  and  C2_2 
ROOT
ATOM      1  C2  <0> d           0.002  -0.004   0.002  0.00  0.00    -0.042 C 
ATOM      2  H1  <0> d           0.512  -0.358  -0.894  0.00  0.00     0.042 H 
ATOM      3  C3  <0> d          -1.435  -0.538   0.021  0.00  0.00    -0.053 C 
ATOM      4  C4  <0> d          -1.390  -2.056  -0.172  0.00  0.00     0.010 C 
ATOM      5  C5  <0> d          -0.385  -2.661   0.767  0.00  0.00     0.217 C 
ATOM      6  O1  <0> d          -0.446  -3.853   0.982  0.00  0.00    -0.274 OA
ATOM      7  N1  <0> d           0.569  -1.957   1.376  0.00  0.00    -0.361 N 
ATOM      8  C6  <0> d           0.734  -0.514   1.244  0.00  0.00    -0.002 C 
ATOM      9  H5  <0> d          -1.901  -0.304   0.978  0.00  0.00     0.034 H 
ATOM     10  H6  <0> d          -2.007  -0.082  -0.787  0.00  0.00     0.034 H 
ATOM     11  H7  <0> d          -2.375  -2.477   0.032  0.00  0.00     0.047 H 
ATOM     12  H8  <0> d          -1.107  -2.282  -1.200  0.00  0.00     0.047 H 
ATOM     13  H9  <0> d           1.196  -2.435   1.941  0.00  0.00     0.162 HD
ATOM     14  H10 <0> d           1.794  -0.276   1.161  0.00  0.00     0.064 H 
ATOM     15  H11 <0> d           0.327  -0.025   2.129  0.00  0.00     0.064 H 
ENDROOT
BRANCH   1  16
ATOM     16  C1  <0> d          -0.019   1.526   0.010  0.00  0.00    -0.071 C 
ATOM     17  H2  <0> d           1.004   1.903   0.003  0.00  0.00     0.028 H 
ATOM     18  H3  <0> d          -0.546   1.887  -0.873  0.00  0.00     0.028 H 
ATOM     19  H4  <0> d          -0.529   1.877   0.907  0.00  0.00     0.028 H 
ENDBRANCH   1  16
TORSDOF 1
