REMARK  2 active torsions:
REMARK  status: ('A' for Active; 'I' for Inactive)
REMARK    1  A    between atoms: C1_1  and  N1_2 
REMARK    2  A    between atoms: C2_3  and  C5_8 
ROOT
ATOM      1  N1  <0> d           0.002  -0.004   0.002  0.00  0.00    -0.341 N 
ATOM      2  C2  <0> d          -1.047  -1.016   0.000  0.00  0.00     0.106 A 
ATOM      3  H1  <0> d          -1.653  -1.010  -0.906  0.00  0.00     0.090 H 
ATOM      4  C3  <0> d           0.049  -2.074  -0.009  0.00  0.00     0.038 A 
ATOM      5  C4  <0> d           0.990  -0.906  -0.012  0.00  0.00     0.222 A 
ATOM      6  O1  <0> d           2.200  -0.814  -0.023  0.00  0.00    -0.273 OA
ATOM      7  H5  <0> d           0.089  -2.678   0.897  0.00  0.00     0.051 H 
ATOM      8  H6  <0> d           0.083  -2.668  -0.923  0.00  0.00     0.051 H 
ENDROOT
BRANCH   1   9
ATOM      9  C1  <0> d          -0.018   1.461   0.010  0.00  0.00    -0.015 C 
ATOM     10  H2  <0> d           1.005   1.838   0.002  0.00  0.00     0.056 H 
ATOM     11  H3  <0> d          -0.545   1.822  -0.873  0.00  0.00     0.056 H 
ATOM     12  H4  <0> d          -0.528   1.812   0.907  0.00  0.00     0.056 H 
ENDBRANCH   1   9
BRANCH   2  13
ATOM     13  C5  <0> d          -1.878  -1.021   1.257  0.00  0.00     0.197 C 
ATOM     14  O2  <0> d          -1.893  -0.041   1.982  0.00  0.00    -0.646 OA
ATOM     15  O3  <0> d          -2.534  -2.006   1.550  0.00  0.00    -0.646 OA
ENDBRANCH   2  13
TORSDOF 2
