REMARK  2 active torsions:
REMARK  status: ('A' for Active; 'I' for Inactive)
REMARK    1  A    between atoms: C1_1  and  C2_2 
REMARK    2  A    between atoms: C4_4  and  C6_10 
ROOT
ATOM      1  C2  <0> d           0.002  -0.004   0.002  0.00  0.00     0.052 A 
ATOM      2  C3  <0> d           1.217  -0.700  -0.014  0.00  0.00    -0.036 A 
ATOM      3  C4  <0> d           2.397   0.042  -0.021  0.00  0.00     0.112 A 
ATOM      4  C5  <0> d           2.278   1.461  -0.012  0.00  0.00     0.278 A 
ATOM      5  O1  <0> d           3.273   2.164  -0.018  0.00  0.00    -0.266 OA
ATOM      6  N1  <0> d           1.050   2.014   0.003  0.00  0.00    -0.242 N 
ATOM      7  H1  <0> d           0.970   2.981   0.009  0.00  0.00     0.192 HD
ATOM      8  N2  <0> d          -0.016   1.301   0.009  0.00  0.00    -0.177 NA
ATOM      9  H5  <0> d           1.239  -1.780  -0.020  0.00  0.00     0.088 H 
ENDROOT
BRANCH   1  10
ATOM     10  C1  <0> d          -1.297  -0.768   0.010  0.00  0.00    -0.034 C 
ATOM     11  H2  <0> d          -2.131  -0.067   0.022  0.00  0.00     0.035 H 
ATOM     12  H3  <0> d          -1.358  -1.391  -0.882  0.00  0.00     0.035 H 
ATOM     13  H4  <0> d          -1.341  -1.400   0.897  0.00  0.00     0.035 H 
ENDBRANCH   1  10
BRANCH   3  14
ATOM     14  C6  <0> d           3.714  -0.616  -0.038  0.00  0.00     0.215 C 
ATOM     15  O2  <0> d           3.788  -1.829  -0.046  0.00  0.00    -0.644 OA
ATOM     16  O3  <0> d           4.838   0.128  -0.045  0.00  0.00    -0.644 OA
ENDBRANCH   3  14
TORSDOF 2
