REMARK  3 active torsions:
REMARK  status: ('A' for Active; 'I' for Inactive)
REMARK    1  A    between atoms: C1_1  and  O1_2 
REMARK    2  A    between atoms: O1_2  and  C2_3 
REMARK    3  A    between atoms: C2_3  and  C3_5 
ROOT
ATOM      1  C3  <0> d           0.657  -2.104  -1.120  0.00  0.00     0.036 C 
ATOM      2  C4  <0> d           1.512  -2.685   0.030  0.00  0.00    -0.038 C 
ATOM      3  C5  <0> d           2.250  -3.849  -0.591  0.00  0.00    -0.106 C 
ATOM      4  C6  <0> d           2.220  -3.784  -1.894  0.00  0.00    -0.106 C 
ATOM      5  C7  <0> d           1.457  -2.565  -2.360  0.00  0.00    -0.038 C 
ATOM      6  H4  <0> d          -0.344  -2.533  -1.118  0.00  0.00     0.056 H 
ATOM      7  H5  <0> d           2.219  -1.938   0.393  0.00  0.00     0.040 H 
ATOM      8  H6  <0> d           0.872  -3.030   0.842  0.00  0.00     0.040 H 
ATOM      9  H7  <0> d           2.737  -4.633  -0.030  0.00  0.00     0.076 H 
ATOM     10  H8  <0> d           2.678  -4.506  -2.553  0.00  0.00     0.076 H 
ATOM     11  H9  <0> d           0.780  -2.828  -3.172  0.00  0.00     0.040 H 
ATOM     12  H10 <0> d           2.147  -1.783  -2.680  0.00  0.00     0.040 H 
ENDROOT
BRANCH   1  13
ATOM     13  C2  <0> d           0.598  -0.600  -1.043  0.00  0.00     0.263 C 
ATOM     14  O2  <0> d           1.088   0.070  -1.921  0.00  0.00    -0.265 OA
BRANCH  13  15
ATOM     15  O1  <0> d           0.002  -0.004   0.002  0.00  0.00    -0.326 OA
BRANCH  15  16
ATOM     16  C1  <0> d          -0.018   1.448   0.010  0.00  0.00     0.013 C 
ATOM     17  H1  <0> d           1.005   1.825   0.002  0.00  0.00     0.067 H 
ATOM     18  H2  <0> d          -0.545   1.809  -0.873  0.00  0.00     0.067 H 
ATOM     19  H3  <0> d          -0.528   1.799   0.907  0.00  0.00     0.067 H 
ENDBRANCH  15  16
ENDBRANCH  13  15
ENDBRANCH   1  13
TORSDOF 3
