REMARK  2 active torsions:
REMARK  status: ('A' for Active; 'I' for Inactive)
REMARK    1  A    between atoms: C1_1  and  C2_2 
REMARK    2  A    between atoms: C5_6  and  C8_11 
ROOT
ATOM      1  C2  <0> d           2.268  -0.128   0.982  0.00  0.00    -0.051 C 
ATOM      2  H1  <0> d           2.730  -0.358   0.011  0.00  0.00     0.040 H 
ATOM      3  C3  <0> d           2.195   1.389   1.165  0.00  0.00    -0.061 C 
ATOM      4  C4  <0> d           1.428   2.015  -0.001  0.00  0.00    -0.055 C 
ATOM      5  C5  <0> d          -0.018   1.508   0.010  0.00  0.00     0.000 C 
ATOM      6  H2  <0> d          -0.559   1.871  -0.876  0.00  0.00     0.051 H 
ATOM      7  C6  <0> d           0.002  -0.004   0.002  0.00  0.00     0.131 C 
ATOM      8  O1  <0> d          -0.645  -0.628  -0.805  0.00  0.00    -0.298 OA
ATOM      9  C7  <0> d           0.854  -0.715   1.030  0.00  0.00    -0.006 C 
ATOM     10  H6  <0> d           1.676   1.620   2.107  0.00  0.00     0.033 H 
ATOM     11  H7  <0> d           3.213   1.804   1.195  0.00  0.00     0.033 H 
ATOM     12  H8  <0> d           1.434   3.110   0.103  0.00  0.00     0.034 H 
ATOM     13  H9  <0> d           1.908   1.734  -0.949  0.00  0.00     0.034 H 
ATOM     14  H10 <0> d           0.895  -1.791   0.803  0.00  0.00     0.044 H 
ATOM     15  H11 <0> d           0.429  -0.569   2.035  0.00  0.00     0.044 H 
ENDROOT
BRANCH   1  16
ATOM     16  C1  <0> d           3.112  -0.737   2.103  0.00  0.00    -0.073 C 
ATOM     17  H3  <0> d           4.127  -0.315   2.069  0.00  0.00     0.028 H 
ATOM     18  H4  <0> d           3.163  -1.828   1.972  0.00  0.00     0.028 H 
ATOM     19  H5  <0> d           2.652  -0.506   3.076  0.00  0.00     0.028 H 
ENDBRANCH   1  16
BRANCH   5  20
ATOM     20  C8  <0> d          -0.728   2.006   1.272  0.00  0.00    -0.066 C 
ATOM     21  H12 <0> d          -1.765   1.641   1.277  0.00  0.00     0.028 H 
ATOM     22  H13 <0> d          -0.726   3.106   1.283  0.00  0.00     0.028 H 
ATOM     23  H14 <0> d          -0.202   1.629   2.161  0.00  0.00     0.028 H 
ENDBRANCH   5  20
TORSDOF 2
