REMARK  3 active torsions:
REMARK  status: ('A' for Active; 'I' for Inactive)
REMARK    1  A    between atoms: C1_1  and  C2_2 
REMARK    2  A    between atoms: C2_2  and  C8_11 
REMARK    3  A    between atoms: C4_4  and  C7_9 
ROOT
ATOM      1  C2  <0> d           2.216   0.101   1.149  0.00  0.00     0.054 C 
ATOM      2  C3  <0> d           0.809  -0.499   1.206  0.00  0.00    -0.024 C 
ATOM      3  C4  <0> d           0.002  -0.004   0.002  0.00  0.00     0.035 C 
ATOM      4  H1  <0> d           0.466  -0.357  -0.919  0.00  0.00     0.056 H 
ATOM      5  C5  <0> d          -0.019   1.528   0.010  0.00  0.00    -0.033 C 
ATOM      6  C6  <0> d           1.420   2.050  -0.001  0.00  0.00     0.021 C 
ATOM      7  O1  <0> d           2.124   1.527   1.128  0.00  0.00    -0.381 OA
ATOM      8  H5  <0> d           0.318  -0.188   2.127  0.00  0.00     0.038 H 
ATOM      9  H6  <0> d           0.875  -1.587   1.178  0.00  0.00     0.038 H 
ATOM     10  H7  <0> d          -0.544   1.890  -0.873  0.00  0.00     0.037 H 
ATOM     11  H8  <0> d          -0.527   1.880   0.908  0.00  0.00     0.037 H 
ATOM     12  H9  <0> d           1.916   1.731  -0.917  0.00  0.00     0.074 H 
ATOM     13  H10 <0> d           1.412   3.139   0.049  0.00  0.00     0.074 H 
ENDROOT
BRANCH   1  14
ATOM     14  C1  <0> d           3.010  -0.341   2.380  0.00  0.00    -0.048 C 
ATOM     15  H2  <0> d           3.080  -1.429   2.396  0.00  0.00     0.031 H 
ATOM     16  H3  <0> d           4.012   0.087   2.339  0.00  0.00     0.031 H 
ATOM     17  H4  <0> d           2.504   0.004   3.281  0.00  0.00     0.031 H 
ENDBRANCH   1  14
BRANCH   1  18
ATOM     18  C8  <0> d           2.927  -0.383  -0.117  0.00  0.00    -0.048 C 
ATOM     19  H11 <0> d           2.361  -0.067  -0.994  0.00  0.00     0.031 H 
ATOM     20  H12 <0> d           3.929   0.045  -0.158  0.00  0.00     0.031 H 
ATOM     21  H13 <0> d           2.996  -1.470  -0.102  0.00  0.00     0.031 H 
ENDBRANCH   1  18
BRANCH   3  22
ATOM     22  C7  <0> d          -1.408  -0.528   0.091  0.00  0.00     0.177 C 
ATOM     23  O2  <0> d          -1.734  -1.233   1.017  0.00  0.00    -0.648 OA
ATOM     24  O3  <0> d          -2.303  -0.211  -0.859  0.00  0.00    -0.648 OA
ENDBRANCH   3  22
TORSDOF 3
