REMARK  3 active torsions:
REMARK  status: ('A' for Active; 'I' for Inactive)
REMARK    1  A    between atoms: C1_1  and  C2_2 
REMARK    2  A    between atoms: C4_4  and  N1_9 
REMARK    3  A    between atoms: C7_7  and  O1_8 
ROOT
ATOM      1  C2  <0> d          -3.631   1.614   0.028  0.00  0.00    -0.027 A 
ATOM      2  C3  <0> d          -2.425   0.939   0.019  0.00  0.00    -0.049 A 
ATOM      3  C4  <0> d          -1.232   1.649   0.017  0.00  0.00     0.026 A 
ATOM      4  C5  <0> d          -1.252   3.038   0.030  0.00  0.00    -0.055 A 
ATOM      5  C6  <0> d          -2.457   3.711   0.033  0.00  0.00    -0.048 A 
ATOM      6  C7  <0> d          -3.649   3.001   0.036  0.00  0.00     0.071 A 
ATOM      7  H4  <0> d          -2.411  -0.141   0.013  0.00  0.00     0.087 H 
ATOM      8  H5  <0> d          -0.324   3.591   0.034  0.00  0.00     0.087 H 
ATOM      9  H6  <0> d          -2.472   4.791   0.039  0.00  0.00     0.087 H 
ENDROOT
BRANCH   1  10
ATOM     10  C1  <0> d          -4.926   0.844   0.029  0.00  0.00    -0.049 C 
ATOM     11  H1  <0> d          -5.233   0.652   1.057  0.00  0.00     0.033 H 
ATOM     12  H2  <0> d          -5.695   1.426  -0.478  0.00  0.00     0.033 H 
ATOM     13  H3  <0> d          -4.785  -0.104  -0.490  0.00  0.00     0.033 H 
ENDBRANCH   1  10
BRANCH   6  14
ATOM     14  O1  <0> d          -4.836   3.665   0.045  0.00  0.00    -0.360 OA
ATOM     15  H7  <0> d          -5.175   3.852   0.931  0.00  0.00     0.217 HD
ENDBRANCH   6  14
BRANCH   3  16
ATOM     16  N1  <0> d          -0.011   0.966   0.007  0.00  0.00    -0.399 N 
ATOM     17  H8  <0> d           0.002  -0.004   0.002  0.00  0.00     0.156 HD
ATOM     18  H9  <0> d           0.822   1.462   0.002  0.00  0.00     0.156 HD
ENDBRANCH   3  16
TORSDOF 3
