REMARK  7 active torsions:
REMARK  status: ('A' for Active; 'I' for Inactive)
REMARK    1  A    between atoms: C1_1  and  C2_2 
REMARK    2  A    between atoms: C2_2  and  C3_3 
REMARK    3  A    between atoms: C2_2  and  C4_5 
REMARK    4  A    between atoms: C2_2  and  O3_8 
REMARK    5  A    between atoms: C3_3  and  O1_4 
REMARK    6  A    between atoms: C4_5  and  O2_6 
REMARK    7  A    between atoms: O2_6  and  C5_7 
ROOT
ATOM      1  C2  <0> d           0.002  -0.004   0.002  0.00  0.00     0.096 C 
ENDROOT
BRANCH   1   2
ATOM      2  C1  <0> d          -0.019   1.526   0.010  0.00  0.00    -0.044 C 
ATOM      3  H1  <0> d           1.004   1.903   0.003  0.00  0.00     0.031 H 
ATOM      4  H2  <0> d          -0.546   1.887  -0.873  0.00  0.00     0.031 H 
ATOM      5  H3  <0> d          -0.529   1.877   0.907  0.00  0.00     0.031 H 
ENDBRANCH   1   2
BRANCH   1   6
ATOM      6  C3  <0> d           0.742  -0.511   1.242  0.00  0.00     0.047 C 
ATOM      7  H4  <0> d           0.184  -0.235   2.136  0.00  0.00     0.078 H 
ATOM      8  H5  <0> d           0.835  -1.596   1.191  0.00  0.00     0.078 H 
BRANCH   6   9
ATOM      9  O1  <0> d           2.044   0.076   1.292  0.00  0.00    -0.398 OA
ATOM     10  H6  <0> d           2.571  -0.201   2.054  0.00  0.00     0.209 HD
ENDBRANCH   6   9
ENDBRANCH   1   6
BRANCH   1  11
ATOM     11  C4  <0> d          -1.433  -0.534   0.013  0.00  0.00     0.049 C 
ATOM     12  H7  <0> d          -1.419  -1.623   0.007  0.00  0.00     0.079 H 
ATOM     13  H8  <0> d          -1.944  -0.182   0.910  0.00  0.00     0.079 H 
BRANCH  11  14
ATOM     14  O2  <0> d          -2.124  -0.060  -1.145  0.00  0.00    -0.393 OA
BRANCH  14  15
ATOM     15  C5  <0> d          -3.481  -0.500  -1.232  0.00  0.00     0.004 C 
ATOM     16  H9  <0> d          -3.509  -1.589  -1.264  0.00  0.00     0.066 H 
ATOM     17  H10 <0> d          -4.034  -0.148  -0.361  0.00  0.00     0.066 H 
ATOM     18  H11 <0> d          -3.936  -0.098  -2.138  0.00  0.00     0.066 H 
ENDBRANCH  14  15
ENDBRANCH  11  14
ENDBRANCH   1  11
BRANCH   1  19
ATOM     19  O3  <0> d           0.671  -0.465  -1.174  0.00  0.00    -0.386 OA
ATOM     20  H12 <0> d           0.722  -1.428  -1.246  0.00  0.00     0.210 HD
ENDBRANCH   1  19
TORSDOF 7
