REMARK  2 active torsions:
REMARK  status: ('A' for Active; 'I' for Inactive)
REMARK    1  A    between atoms: C1_1  and  O1_2 
REMARK    2  A    between atoms: O1_2  and  C2_3 
ROOT
ATOM      1  C2  <0> d           0.002  -0.004   0.002  0.00  0.00     0.082 A 
ATOM      2  C3  <0> d           1.197  -0.701  -0.013  0.00  0.00    -0.033 A 
ATOM      3  C4  <0> d           1.184  -2.090  -0.020  0.00  0.00     0.005 A 
ATOM      4  N1  <0> d           0.063  -2.772  -0.013  0.00  0.00    -0.260 NA
ATOM      5  C5  <0> d          -1.128  -2.163   0.002  0.00  0.00     0.069 A 
ATOM      6  C6  <0> d          -1.199  -0.749   0.015  0.00  0.00     0.026 A 
ATOM      7  C7  <0> d          -2.450  -0.117   0.036  0.00  0.00    -0.068 A 
ATOM      8  C8  <0> d          -3.585  -0.870   0.049  0.00  0.00    -0.082 A 
ATOM      9  C9  <0> d          -3.519  -2.261   0.041  0.00  0.00    -0.081 A 
ATOM     10  C10 <0> d          -2.321  -2.906   0.009  0.00  0.00    -0.054 A 
ATOM     11  H4  <0> d           2.136  -0.168  -0.020  0.00  0.00     0.090 H 
ATOM     12  H5  <0> d           2.123  -2.624  -0.032  0.00  0.00     0.114 H 
ATOM     13  H6  <0> d          -2.514   0.962   0.043  0.00  0.00     0.085 H 
ATOM     14  H7  <0> d          -4.549  -0.382   0.065  0.00  0.00     0.083 H 
ATOM     15  H8  <0> d          -4.433  -2.837   0.050  0.00  0.00     0.083 H 
ATOM     16  H9  <0> d          -2.287  -3.986   0.003  0.00  0.00     0.087 H 
ENDROOT
BRANCH   1  17
ATOM     17  O1  <0> d          -0.016   1.352   0.009  0.00  0.00    -0.355 OA
BRANCH  17  18
ATOM     18  C1  <0> d           1.248   2.018   0.001  0.00  0.00     0.010 C 
ATOM     19  H1  <0> d           1.091   3.096   0.008  0.00  0.00     0.066 H 
ATOM     20  H2  <0> d           1.817   1.728   0.884  0.00  0.00     0.066 H 
ATOM     21  H3  <0> d           1.800   1.737  -0.896  0.00  0.00     0.066 H 
ENDBRANCH  17  18
ENDBRANCH   1  17
TORSDOF 2
