REMARK  3 active torsions:
REMARK  status: ('A' for Active; 'I' for Inactive)
REMARK    1  A    between atoms: C1_1  and  O1_2 
REMARK    2  A    between atoms: O1_2  and  C2_3 
REMARK    3  A    between atoms: C5_6  and  O2_11 
ROOT
ATOM      1  C2  <0> d          -1.247   3.137   0.031  0.00  0.00     0.069 A 
ATOM      2  C3  <0> d          -1.218   1.748   0.017  0.00  0.00    -0.048 A 
ATOM      3  C4  <0> d          -0.013   1.076   0.008  0.00  0.00    -0.047 A 
ATOM      4  C5  <0> d           1.179   1.784   0.000  0.00  0.00     0.086 A 
ATOM      5  C6  <0> d           1.158   3.185   0.008  0.00  0.00     0.080 A 
ATOM      6  C7  <0> d          -0.067   3.857   0.023  0.00  0.00    -0.028 A 
ATOM      7  C8  <0> d           2.384   3.923   0.001  0.00  0.00     0.102 C 
ATOM      8  N1  <0> d           3.357   4.509  -0.005  0.00  0.00    -0.191 NA
ATOM      9  H4  <0> d          -2.144   1.192   0.019  0.00  0.00     0.087 H 
ATOM     10  H5  <0> d           0.002  -0.004   0.002  0.00  0.00     0.087 H 
ATOM     11  H6  <0> d          -0.091   4.937   0.029  0.00  0.00     0.090 H 
ENDROOT
BRANCH   4  12
ATOM     12  O2  <0> d           2.364   1.121  -0.015  0.00  0.00    -0.359 OA
ATOM     13  H7  <0> d           2.699   0.934  -0.903  0.00  0.00     0.217 HD
ENDBRANCH   4  12
BRANCH   1  14
ATOM     14  O1  <0> d          -2.440   3.791   0.045  0.00  0.00    -0.356 OA
BRANCH  14  15
ATOM     15  C1  <0> d          -3.621   2.986   0.052  0.00  0.00     0.010 C 
ATOM     16  H1  <0> d          -4.500   3.630   0.064  0.00  0.00     0.066 H 
ATOM     17  H2  <0> d          -3.640   2.361  -0.841  0.00  0.00     0.066 H 
ATOM     18  H3  <0> d          -3.623   2.352   0.939  0.00  0.00     0.066 H 
ENDBRANCH  14  15
ENDBRANCH   1  14
TORSDOF 3
