REMARK  1 active torsions:
REMARK  status: ('A' for Active; 'I' for Inactive)
REMARK    1  A    between atoms: C5_6  and  C6_7 
ROOT
ATOM      1  C1  <0> d           2.472   3.731  -0.002  0.00  0.00    -0.061 A 
ATOM      2  C2  <0> d           2.472   5.112   0.005  0.00  0.00    -0.026 A 
ATOM      3  C3  <0> d           1.262   5.791   0.020  0.00  0.00     0.209 A 
ATOM      4  N1  <0> d           0.114   5.136   0.028  0.00  0.00    -0.232 NA
ATOM      5  C4  <0> d           0.064   3.821   0.016  0.00  0.00     0.022 A 
ATOM      6  C5  <0> d           1.238   3.066   0.007  0.00  0.00     0.058 A 
ATOM      7  F1  <0> d           1.258   7.142   0.026  0.00  0.00    -0.184 F 
ATOM      8  H1  <0> d           3.399   3.177  -0.013  0.00  0.00     0.085 H 
ATOM      9  H2  <0> d           3.404   5.658  -0.000  0.00  0.00     0.090 H 
ATOM     10  H3  <0> d          -0.893   3.322   0.018  0.00  0.00     0.116 H 
ENDROOT
BRANCH   6  11
ATOM     11  C6  <0> d           1.181   1.591  -0.001  0.00  0.00     0.210 C 
ATOM     12  O1  <0> d           2.209   0.943  -0.014  0.00  0.00    -0.644 OA
ATOM     13  O2  <0> d          -0.011   0.963   0.007  0.00  0.00    -0.644 OA
ENDBRANCH   6  11
TORSDOF 1
