REMARK  7 active torsions:
REMARK  status: ('A' for Active; 'I' for Inactive)
REMARK    1  A    between atoms: C1_1  and  C2_2 
REMARK    2  A    between atoms: C2_2  and  C3_3 
REMARK    3  A    between atoms: C4_4  and  C5_5 
REMARK    4  A    between atoms: C6_6  and  C7_7 
REMARK    5  A    between atoms: C7_7  and  O1_8 
REMARK    6  A    between atoms: O1_8  and  C8_9 
REMARK    7  A    between atoms: C8_9  and  C9_10 
ROOT
ATOM      1  C5  <0> d          -1.172   1.724   0.017  0.00  0.00    -0.035 C 
ATOM      2  C6  <0> d          -0.013   1.076   0.008  0.00  0.00    -0.073 C 
ATOM      3  H6  <0> d          -1.187   2.804   0.023  0.00  0.00     0.097 H 
ATOM      4  H7  <0> d           0.002  -0.004   0.002  0.00  0.00     0.081 H 
ENDROOT
BRANCH   2   5
ATOM      5  C7  <0> d           1.282   1.847  -0.000  0.00  0.00     0.035 C 
ATOM      6  H8  <0> d           1.721   1.810  -0.997  0.00  0.00     0.080 H 
ATOM      7  H9  <0> d           1.089   2.884   0.273  0.00  0.00     0.080 H 
BRANCH   5   8
ATOM      8  O1  <0> d           2.188   1.267   0.941  0.00  0.00    -0.388 OA
BRANCH   8   9
ATOM      9  C8  <0> d           3.453   1.927   1.012  0.00  0.00     0.017 C 
ATOM     10  H10 <0> d           3.937   1.892   0.036  0.00  0.00     0.073 H 
ATOM     11  H11 <0> d           3.305   2.966   1.306  0.00  0.00     0.073 H 
BRANCH   9  12
ATOM     12  C9  <0> d           4.337   1.225   2.045  0.00  0.00    -0.056 C 
ATOM     13  H12 <0> d           3.853   1.261   3.021  0.00  0.00     0.030 H 
ATOM     14  H13 <0> d           4.485   0.186   1.751  0.00  0.00     0.030 H 
ATOM     15  H14 <0> d           5.302   1.729   2.099  0.00  0.00     0.030 H 
ENDBRANCH   9  12
ENDBRANCH   8   9
ENDBRANCH   5   8
ENDBRANCH   2   5
BRANCH   1  16
ATOM     16  C4  <0> d          -2.402   0.992   0.019  0.00  0.00    -0.079 C 
ATOM     17  C3  <0> d          -3.411   0.391   0.020  0.00  0.00    -0.102 C 
BRANCH  17  18
ATOM     18  C2  <0> d          -4.676  -0.362   0.022  0.00  0.00    -0.012 C 
ATOM     19  H4  <0> d          -4.729  -0.985  -0.871  0.00  0.00     0.051 H 
ATOM     20  H5  <0> d          -4.721  -0.995   0.909  0.00  0.00     0.051 H 
BRANCH  18  21
ATOM     21  C1  <0> d          -5.852   0.616   0.033  0.00  0.00    -0.067 C 
ATOM     22  H1  <0> d          -6.789   0.058   0.035  0.00  0.00     0.028 H 
ATOM     23  H2  <0> d          -5.799   1.239   0.926  0.00  0.00     0.028 H 
ATOM     24  H3  <0> d          -5.807   1.248  -0.854  0.00  0.00     0.028 H 
ENDBRANCH  18  21
ENDBRANCH  17  18
ENDBRANCH   1  16
TORSDOF 7
