REMARK  3 active torsions:
REMARK  status: ('A' for Active; 'I' for Inactive)
REMARK    1  A    between atoms: C1_1  and  C2_2 
REMARK    2  A    between atoms: C5_5  and  C9_9 
REMARK    3  A    between atoms: C6_6  and  C8_8 
ROOT
ATOM      1  C2  <0> d           2.327   1.468   0.208  0.00  0.00    -0.061 A 
ATOM      2  C3  <0> d           1.118   2.092  -0.041  0.00  0.00    -0.076 A 
ATOM      3  C4  <0> d          -0.019   1.341  -0.255  0.00  0.00    -0.065 A 
ATOM      4  C5  <0> d           0.053  -0.053  -0.222  0.00  0.00     0.046 A 
ATOM      5  C6  <0> d           1.276  -0.677   0.030  0.00  0.00    -0.044 A 
ATOM      6  C7  <0> d           2.405   0.087   0.243  0.00  0.00    -0.070 A 
ATOM      7  H4  <0> d           1.064   3.171  -0.067  0.00  0.00     0.084 H 
ATOM      8  H5  <0> d          -0.961   1.830  -0.454  0.00  0.00     0.085 H 
ATOM      9  H6  <0> d           3.353  -0.394   0.437  0.00  0.00     0.085 H 
ENDROOT
BRANCH   1  10
ATOM     10  C1  <0> d           3.565   2.295   0.442  0.00  0.00    -0.051 C 
ATOM     11  H1  <0> d           4.063   2.481  -0.510  0.00  0.00     0.033 H 
ATOM     12  H2  <0> d           3.286   3.245   0.897  0.00  0.00     0.033 H 
ATOM     13  H3  <0> d           4.241   1.758   1.107  0.00  0.00     0.033 H 
ENDBRANCH   1  10
BRANCH   5  14
ATOM     14  C8  <0> d           1.363  -2.181   0.069  0.00  0.00    -0.050 C 
ATOM     15  H7  <0> d           1.467  -2.565  -0.946  0.00  0.00     0.033 H 
ATOM     16  H8  <0> d           2.228  -2.479   0.661  0.00  0.00     0.033 H 
ATOM     17  H9  <0> d           0.457  -2.586   0.519  0.00  0.00     0.033 H 
ENDBRANCH   5  14
BRANCH   4  18
ATOM     18  C9  <0> d          -1.160  -0.864  -0.451  0.00  0.00     0.209 C 
ATOM     19  O1  <0> d          -1.076  -2.073  -0.534  0.00  0.00    -0.644 OA
ATOM     20  O2  <0> d          -2.360  -0.263  -0.569  0.00  0.00    -0.644 OA
ENDBRANCH   4  18
TORSDOF 3
