REMARK  3 active torsions:
REMARK  status: ('A' for Active; 'I' for Inactive)
REMARK    1  A    between atoms: C1_1  and  C2_2 
REMARK    2  A    between atoms: C2_2  and  C3_3 
REMARK    3  A    between atoms: C2_2  and  C4_4 
ROOT
ATOM      1  C4  <0> d          -1.412  -0.526   0.013  0.00  0.00     0.044 A 
ATOM      2  C5  <0> d          -1.653  -1.898  -0.098  0.00  0.00    -0.044 A 
ATOM      3  C6  <0> d          -2.937  -2.347  -0.086  0.00  0.00    -0.016 A 
ATOM      4  N1  <0> d          -3.951  -1.450   0.033  0.00  0.00    -0.317 N 
ATOM      5  C7  <0> d          -3.682  -0.135   0.137  0.00  0.00     0.346 A 
ATOM      6  N2  <0> d          -2.423   0.310   0.132  0.00  0.00    -0.199 NA
ATOM      7  O1  <0> d          -4.601   0.660   0.243  0.00  0.00    -0.245 OA
ATOM      8  H8  <0> d          -0.832  -2.593  -0.192  0.00  0.00     0.088 H 
ATOM      9  H9  <0> d          -3.148  -3.403  -0.170  0.00  0.00     0.111 H 
ATOM     10  H10 <0> d          -4.871  -1.758   0.043  0.00  0.00     0.170 HD
ENDROOT
BRANCH   1  11
ATOM     11  C2  <0> d           0.002  -0.004   0.002  0.00  0.00    -0.018 C 
ATOM     12  H4  <0> d           0.512  -0.356  -0.895  0.00  0.00     0.048 H 
BRANCH  11  13
ATOM     13  C1  <0> d          -0.019   1.526   0.010  0.00  0.00    -0.068 C 
ATOM     14  H1  <0> d           1.004   1.903   0.003  0.00  0.00     0.028 H 
ATOM     15  H2  <0> d          -0.546   1.887  -0.873  0.00  0.00     0.028 H 
ATOM     16  H3  <0> d          -0.529   1.877   0.907  0.00  0.00     0.028 H 
ENDBRANCH  11  13
BRANCH  11  17
ATOM     17  C3  <0> d           0.742  -0.511   1.242  0.00  0.00    -0.068 C 
ATOM     18  H5  <0> d           0.757  -1.601   1.236  0.00  0.00     0.028 H 
ATOM     19  H6  <0> d           1.765  -0.134   1.234  0.00  0.00     0.028 H 
ATOM     20  H7  <0> d           0.232  -0.159   2.138  0.00  0.00     0.028 H 
ENDBRANCH  11  17
ENDBRANCH   1  11
TORSDOF 3
