REMARK  1 active torsions:
REMARK  status: ('A' for Active; 'I' for Inactive)
REMARK    1  A    between atoms: C6_8  and  N4_10 
ROOT
ATOM      1  C1  <0> d          -0.656   5.499   0.037  0.00  0.00     0.020 A 
ATOM      2  C2  <0> d          -1.361   4.351   0.038  0.00  0.00     0.003 A 
ATOM      3  N1  <0> d          -0.707   3.147   0.026  0.00  0.00    -0.312 N 
ATOM      4  C3  <0> d          -1.123   1.852   0.017  0.00  0.00     0.003 A 
ATOM      5  C4  <0> d          -0.013   1.076   0.008  0.00  0.00     0.020 A 
ATOM      6  N2  <0> d           1.059   1.869   0.002  0.00  0.00    -0.238 NA
ATOM      7  C5  <0> d           0.665   3.130   0.013  0.00  0.00     0.179 A 
ATOM      8  C6  <0> d           1.361   4.365   0.012  0.00  0.00     0.168 A 
ATOM      9  N3  <0> d           0.681   5.494   0.024  0.00  0.00    -0.239 NA
ATOM     10  H1  <0> d          -1.181   6.443   0.047  0.00  0.00     0.117 H 
ATOM     11  H2  <0> d          -2.441   4.380   0.048  0.00  0.00     0.114 H 
ATOM     12  H3  <0> d          -2.146   1.507   0.019  0.00  0.00     0.114 H 
ATOM     13  H4  <0> d           0.002  -0.004   0.002  0.00  0.00     0.117 H 
ENDROOT
BRANCH   8  14
ATOM     14  N4  <0> d           2.747   4.385  -0.002  0.00  0.00    -0.381 N 
ATOM     15  H5  <0> d           3.283   5.346  -0.002  0.00  0.00     0.157 HD
ATOM     16  H6  <0> d           3.310   3.441  -0.012  0.00  0.00     0.157 HD
ENDBRANCH   8  14
TORSDOF 1
