REMARK  4 active torsions:
REMARK  status: ('A' for Active; 'I' for Inactive)
REMARK    1  A    between atoms: C1_1  and  C2_2 
REMARK    2  A    between atoms: C2_2  and  C3_3 
REMARK    3  A    between atoms: C3_3  and  N1_4 
REMARK    4  A    between atoms: C5_7  and  N4_9 
ROOT
ATOM      1  C3  <0> d          -1.663   4.209   0.038  0.00  0.00     0.035 C 
ATOM      2  H6  <0> d          -2.579   3.930   0.559  0.00  0.00     0.070 H 
ATOM      3  H7  <0> d          -1.194   5.048   0.552  0.00  0.00     0.070 H 
ENDROOT
BRANCH   1   4
ATOM      4  C2  <0> d          -1.997   4.613  -1.399  0.00  0.00    -0.050 C 
ATOM      5  H4  <0> d          -1.081   4.892  -1.920  0.00  0.00     0.035 H 
ATOM      6  H5  <0> d          -2.465   3.773  -1.913  0.00  0.00     0.035 H 
BRANCH   4   7
ATOM      7  C1  <0> d          -2.958   5.803  -1.385  0.00  0.00    -0.075 C 
ATOM      8  H1  <0> d          -3.874   5.523  -0.864  0.00  0.00     0.027 H 
ATOM      9  H2  <0> d          -2.490   6.642  -0.871  0.00  0.00     0.027 H 
ATOM     10  H3  <0> d          -3.196   6.090  -2.409  0.00  0.00     0.027 H 
ENDBRANCH   4   7
ENDBRANCH   1   4
BRANCH   1  11
ATOM     11  N1  <0> d          -0.742   3.069   0.024  0.00  0.00    -0.187 N 
ATOM     12  N3  <0> d           0.657   3.149   0.012  0.00  0.00    -0.136 NA
ATOM     13  C5  <0> d           1.110   1.911   0.002  0.00  0.00     0.162 A 
ATOM     14  C4  <0> d          -0.013   1.076   0.008  0.00  0.00     0.069 A 
ATOM     15  N2  <0> d          -1.084   1.829   0.017  0.00  0.00    -0.164 NA
ATOM     16  H8  <0> d           0.002  -0.004   0.002  0.00  0.00     0.123 H 
BRANCH  13  17
ATOM     17  N4  <0> d           2.452   1.510  -0.013  0.00  0.00    -0.381 N 
ATOM     18  H9  <0> d           2.676   0.567  -0.019  0.00  0.00     0.157 HD
ATOM     19  H10 <0> d           3.157   2.176  -0.017  0.00  0.00     0.157 HD
ENDBRANCH  13  17
ENDBRANCH   1  11
TORSDOF 4
