REMARK  4 active torsions:
REMARK  status: ('A' for Active; 'I' for Inactive)
REMARK    1  A    between atoms: C1_1  and  O1_2 
REMARK    2  A    between atoms: O1_2  and  C2_3 
REMARK    3  A    between atoms: C2_3  and  C3_5 
REMARK    4  A    between atoms: C5_7  and  N3_11 
ROOT
ATOM      1  C3  <0> d          -1.247  -2.107   0.003  0.00  0.00     0.155 A 
ATOM      2  C4  <0> d          -2.420  -2.890   0.004  0.00  0.00    -0.004 A 
ATOM      3  C5  <0> d          -2.046  -4.196  -0.004  0.00  0.00     0.117 A 
ATOM      4  N1  <0> d          -0.688  -4.239  -0.011  0.00  0.00    -0.262 N 
ATOM      5  H1  <0> d          -0.143  -5.042  -0.018  0.00  0.00     0.191 HD
ATOM      6  N2  <0> d          -0.210  -2.922  -0.012  0.00  0.00    -0.167 NA
ATOM      7  H5  <0> d          -3.434  -2.519   0.011  0.00  0.00     0.093 H 
ENDROOT
BRANCH   1   8
ATOM      8  C2  <0> d          -1.190  -0.632   0.010  0.00  0.00     0.313 C 
ATOM      9  O2  <0> d          -2.218   0.016   0.023  0.00  0.00    -0.257 OA
BRANCH   8  10
ATOM     10  O1  <0> d           0.002  -0.004   0.002  0.00  0.00    -0.321 OA
BRANCH  10  11
ATOM     11  C1  <0> d          -0.017   1.425   0.010  0.00  0.00     0.013 C 
ATOM     12  H2  <0> d           1.005   1.802   0.002  0.00  0.00     0.067 H 
ATOM     13  H3  <0> d          -0.544   1.786  -0.873  0.00  0.00     0.067 H 
ATOM     14  H4  <0> d          -0.527   1.776   0.907  0.00  0.00     0.067 H 
ENDBRANCH  10  11
ENDBRANCH   8  10
ENDBRANCH   1   8
BRANCH   3  15
ATOM     15  N3  <0> d          -2.902  -5.295  -0.006  0.00  0.00    -0.384 N 
ATOM     16  H6  <0> d          -3.863  -5.161  -0.001  0.00  0.00     0.157 HD
ATOM     17  H7  <0> d          -2.538  -6.193  -0.013  0.00  0.00     0.157 HD
ENDBRANCH   3  15
TORSDOF 4
