REMARK  0 active torsions:
REMARK  status: ('A' for Active; 'I' for Inactive)
ROOT
ATOM      1  C1  <0> d           2.596  -2.626  -0.038  0.00  0.00    -0.082 A 
ATOM      2  C2  <0> d           3.749  -1.844  -0.045  0.00  0.00    -0.081 A 
ATOM      3  C3  <0> d           3.677  -0.484  -0.036  0.00  0.00    -0.054 A 
ATOM      4  C4  <0> d           2.422   0.143  -0.020  0.00  0.00     0.069 A 
ATOM      5  C5  <0> d           1.248  -0.655  -0.013  0.00  0.00     0.010 A 
ATOM      6  C6  <0> d           1.361  -2.053  -0.022  0.00  0.00    -0.069 A 
ATOM      7  C7  <0> d           0.002  -0.004   0.002  0.00  0.00     0.016 A 
ATOM      8  N1  <0> d          -0.016   1.314   0.009  0.00  0.00    -0.253 NA
ATOM      9  C8  <0> d           1.103   2.024   0.002  0.00  0.00     0.086 A 
ATOM     10  N2  <0> d           2.294   1.475  -0.012  0.00  0.00    -0.241 NA
ATOM     11  H1  <0> d           2.683  -3.703  -0.045  0.00  0.00     0.083 H 
ATOM     12  H2  <0> d           4.717  -2.324  -0.058  0.00  0.00     0.083 H 
ATOM     13  H3  <0> d           4.580   0.108  -0.042  0.00  0.00     0.087 H 
ATOM     14  H4  <0> d           0.474  -2.670  -0.018  0.00  0.00     0.085 H 
ATOM     15  H5  <0> d          -0.918  -0.570   0.008  0.00  0.00     0.116 H 
ATOM     16  H6  <0> d           1.030   3.102   0.009  0.00  0.00     0.146 H 
ENDROOT
TORSDOF 0
