REMARK  1 active torsions:
REMARK  status: ('A' for Active; 'I' for Inactive)
REMARK    1  A    between atoms: C1_1  and  N1_2 
REMARK       I    between atoms: N1_2  and  C2_3 
REMARK       I    between atoms: C2_3  and  N2_5 
ROOT
ATOM      1  N1  <0> d           1.143   1.900   0.001  0.00  0.00    -0.346 N 
ATOM      2  C2  <0> d          -0.014   1.211   0.009  0.00  0.00     0.343 C 
ATOM      3  O1  <0> d           0.002  -0.004   0.002  0.00  0.00    -0.245 OA
ATOM      4  N2  <0> d          -1.191   1.869   0.018  0.00  0.00    -0.175 N 
ATOM      5  C3  <0> d          -2.426   1.321   0.021  0.00  0.00     0.094 A 
ATOM      6  N3  <0> d          -3.298   2.294   0.030  0.00  0.00    -0.233 NA
ATOM      7  C4  <0> d          -2.667   3.469   0.034  0.00  0.00     0.107 A 
ATOM      8  N4  <0> d          -1.377   3.261   0.032  0.00  0.00    -0.156 NA
ATOM      9  H4  <0> d           1.130   2.870   0.007  0.00  0.00     0.163 HD
ATOM     10  H5  <0> d          -2.653   0.265   0.015  0.00  0.00     0.147 H 
ATOM     11  H6  <0> d          -3.145   4.437   0.041  0.00  0.00     0.149 H 
ENDROOT
BRANCH   1  12
ATOM     12  C1  <0> d           2.422   1.185  -0.015  0.00  0.00    -0.017 C 
ATOM     13  H1  <0> d           3.241   1.905  -0.019  0.00  0.00     0.056 H 
ATOM     14  H2  <0> d           2.497   0.555   0.871  0.00  0.00     0.056 H 
ATOM     15  H3  <0> d           2.480   0.564  -0.909  0.00  0.00     0.056 H 
ENDBRANCH   1  12
TORSDOF 1
