REMARK  4 active torsions:
REMARK  status: ('A' for Active; 'I' for Inactive)
REMARK    1  A    between atoms: C1_1  and  C2_2 
REMARK    2  A    between atoms: C2_2  and  C3_3 
REMARK    3  A    between atoms: C3_3  and  C4_4 
REMARK    4  A    between atoms: C7_8  and  C8_10 
ROOT
ATOM      1  C4  <0> d          -0.718   1.572   1.248  0.00  0.00     0.040 A 
ATOM      2  C5  <0> d          -1.140   0.674   2.210  0.00  0.00    -0.007 A 
ATOM      3  C6  <0> d          -1.783   1.171   3.343  0.00  0.00     0.182 A 
ATOM      4  N1  <0> d          -1.966   2.481   3.456  0.00  0.00    -0.323 N 
ATOM      5  C7  <0> d          -1.553   3.303   2.511  0.00  0.00     0.102 A 
ATOM      6  N2  <0> d          -0.942   2.865   1.429  0.00  0.00    -0.240 NA
ATOM      7  O1  <0> d          -2.209   0.330   4.317  0.00  0.00    -0.172 OA
ATOM      8  H8  <0> d          -0.981  -0.305   2.084  0.00  0.00     0.093 H 
ATOM      9  H12 <0> d          -2.469   2.879   4.350  0.00  0.00     0.169 HD
ENDROOT
BRANCH   1  10
ATOM     10  C3  <0> d          -0.013   1.086   0.008  0.00  0.00    -0.025 C 
ATOM     11  H6  <0> d           0.002  -0.014   0.002  0.00  0.00     0.042 H 
ATOM     12  H7  <0> d           1.019   1.466   0.000  0.00  0.00     0.042 H 
BRANCH  10  13
ATOM     13  C2  <0> d          -0.753   1.593  -1.232  0.00  0.00    -0.063 C 
ATOM     14  H4  <0> d          -0.767   2.693  -1.226  0.00  0.00     0.033 H 
ATOM     15  H5  <0> d          -1.785   1.212  -1.224  0.00  0.00     0.033 H 
BRANCH  13  16
ATOM     16  C1  <0> d          -0.037   1.099  -2.490  0.00  0.00    -0.076 C 
ATOM     17  H1  <0> d          -0.569   1.464  -3.381  0.00  0.00     0.027 H 
ATOM     18  H2  <0> d          -0.022  -0.001  -2.496  0.00  0.00     0.027 H 
ATOM     19  H3  <0> d           0.995   1.480  -2.498  0.00  0.00     0.027 H 
ENDBRANCH  13  16
ENDBRANCH  10  13
ENDBRANCH   1  10
BRANCH   5  20
ATOM     20  C8  <0> d          -1.786   4.782   2.674  0.00  0.00    -0.021 C 
ATOM     21  H9  <0> d          -2.304   4.970   3.626  0.00  0.00     0.037 H 
ATOM     22  H10 <0> d          -2.405   5.150   1.842  0.00  0.00     0.037 H 
ATOM     23  H11 <0> d          -0.820   5.308   2.672  0.00  0.00     0.037 H 
ENDBRANCH   5  20
TORSDOF 4
