REMARK  5 active torsions:
REMARK  status: ('A' for Active; 'I' for Inactive)
REMARK    1  A    between atoms: C1_1  and  C2_2 
REMARK    2  A    between atoms: C2_2  and  C6_6 
REMARK    3  A    between atoms: C3_3  and  C4_4 
REMARK    4  A    between atoms: C7_7  and  O1_8 
REMARK    5  A    between atoms: O1_8  and  C8_9 
ROOT
ATOM      1  C4  <0> d           0.025   0.023   2.412  0.00  0.00    -0.089 C 
ATOM      2  C5  <0> d           0.026   0.605   3.432  0.00  0.00    -0.150 C 
ATOM      3  H5  <0> d           0.028   1.125   4.344  0.00  0.00     0.166 H 
ENDROOT
BRANCH   1   4
ATOM      4  C3  <0> d           0.022  -0.686   1.168  0.00  0.00    -0.028 C 
ATOM      5  C2  <0> d           0.002  -0.004   0.002  0.00  0.00    -0.052 C 
ATOM      6  H4  <0> d           0.037  -1.766   1.162  0.00  0.00     0.098 H 
BRANCH   5   7
ATOM      7  C1  <0> d          -0.018   1.503   0.010  0.00  0.00    -0.051 C 
ATOM      8  H1  <0> d           1.004   1.880   0.003  0.00  0.00     0.033 H 
ATOM      9  H2  <0> d          -0.545   1.864  -0.873  0.00  0.00     0.033 H 
ATOM     10  H3  <0> d          -0.529   1.854   0.907  0.00  0.00     0.033 H 
ENDBRANCH   5   7
BRANCH   5  11
ATOM     11  C6  <0> d          -0.000  -0.728  -1.267  0.00  0.00    -0.056 C 
ATOM     12  C7  <0> d          -0.020  -0.051  -2.426  0.00  0.00     0.012 C 
ATOM     13  H7  <0> d          -0.035   1.029  -2.420  0.00  0.00     0.122 H 
ATOM     14  H6  <0> d           0.015  -1.808  -1.273  0.00  0.00     0.087 H 
BRANCH  12  15
ATOM     15  O1  <0> d          -0.022  -0.721  -3.602  0.00  0.00    -0.368 OA
BRANCH  15  16
ATOM     16  C8  <0> d          -0.044   0.064  -4.796  0.00  0.00     0.009 C 
ATOM     17  H8  <0> d          -0.943   0.680  -4.809  0.00  0.00     0.066 H 
ATOM     18  H9  <0> d           0.837   0.705  -4.825  0.00  0.00     0.066 H 
ATOM     19  H10 <0> d          -0.044  -0.596  -5.664  0.00  0.00     0.066 H 
ENDBRANCH  15  16
ENDBRANCH  12  15
ENDBRANCH   5  11
ENDBRANCH   1   4
TORSDOF 5
