REMARK  1 active torsions:
REMARK  status: ('A' for Active; 'I' for Inactive)
REMARK    1  A    between atoms: C2_2  and  N1_7 
ROOT
ATOM      1  C1  <0> d          -0.019   1.526   0.010  0.00  0.00     0.033 A 
ATOM      2  C2  <0> d           1.317   0.779  -0.006  0.00  0.00     0.198 A 
ATOM      3  H1  <0> d           1.906   0.782   0.910  0.00  0.00     0.097 H 
ATOM      4  C3  <0> d           0.002  -0.004   0.002  0.00  0.00     0.276 A 
ATOM      5  F1  <0> d          -0.373  -0.649  -1.181  0.00  0.00    -0.204 F 
ATOM      6  F2  <0> d          -0.351  -0.661   1.185  0.00  0.00    -0.204 F 
ATOM      7  H2  <0> d          -0.307   2.020   0.938  0.00  0.00     0.045 H 
ATOM      8  H3  <0> d          -0.325   2.030  -0.906  0.00  0.00     0.045 H 
ENDROOT
BRANCH   2   9
ATOM      9  N1  <0> d           2.088   0.797  -1.256  0.00  0.00     0.089 N 
ATOM     10  H4  <0> d           2.947   0.277  -1.158  0.00  0.00     0.313 HD
ATOM     11  H5  <0> d           1.538   0.445  -2.026  0.00  0.00     0.313 HD
ENDBRANCH   2   9
TORSDOF 1
