REMARK  2 active torsions:
REMARK  status: ('A' for Active; 'I' for Inactive)
REMARK    1  A    between atoms: C1_1  and  C2_2 
REMARK    2  A    between atoms: C7_7  and  C8_8 
ROOT
ATOM      1  C2  <0> d           0.002  -0.004   0.002  0.00  0.00    -0.052 A 
ATOM      2  C3  <0> d           0.006  -0.689  -1.196  0.00  0.00    -0.073 A 
ATOM      3  C4  <0> d           0.024  -2.071  -1.207  0.00  0.00    -0.045 A 
ATOM      4  C5  <0> d           0.040  -2.779  -0.015  0.00  0.00     0.117 A 
ATOM      5  C6  <0> d           0.036  -2.104   1.191  0.00  0.00    -0.035 A 
ATOM      6  C7  <0> d           0.023  -0.709   1.206  0.00  0.00    -0.028 A 
ATOM      7  F1  <0> d           0.057  -4.129  -0.033  0.00  0.00    -0.206 F 
ATOM      8  H4  <0> d          -0.006  -0.143  -2.128  0.00  0.00     0.084 H 
ATOM      9  H5  <0> d           0.027  -2.602  -2.147  0.00  0.00     0.088 H 
ATOM     10  H6  <0> d           0.048  -2.655   2.119  0.00  0.00     0.089 H 
ENDROOT
BRANCH   6  11
ATOM     11  C8  <0> d           0.026   0.019   2.492  0.00  0.00    -0.081 C 
ATOM     12  C9  <0> d           0.046  -0.653   3.634  0.00  0.00    -0.120 C 
ATOM     13  H8  <0> d           0.060  -1.733   3.625  0.00  0.00     0.066 H 
ATOM     14  H9  <0> d           0.048  -0.121   4.574  0.00  0.00     0.066 H 
ATOM     15  H7  <0> d           0.012   1.099   2.501  0.00  0.00     0.083 H 
ENDBRANCH   6  11
BRANCH   1  16
ATOM     16  C1  <0> d          -0.018   1.503   0.010  0.00  0.00    -0.050 C 
ATOM     17  H1  <0> d           1.004   1.880   0.003  0.00  0.00     0.033 H 
ATOM     18  H2  <0> d          -0.545   1.864  -0.873  0.00  0.00     0.033 H 
ATOM     19  H3  <0> d          -0.529   1.854   0.907  0.00  0.00     0.033 H 
ENDBRANCH   1  16
TORSDOF 2
