REMARK  1 active torsions:
REMARK  status: ('A' for Active; 'I' for Inactive)
REMARK    1  A    between atoms: C3_7  and  N4_9 
ROOT
ATOM      1  C1  <0> d           1.104   2.015   0.002  0.00  0.00     0.086 A 
ATOM      2  N1  <0> d           2.288   1.365  -0.013  0.00  0.00    -0.300 N 
ATOM      3  H1  <0> d           3.119   1.864  -0.017  0.00  0.00     0.171 HD
ATOM      4  C2  <0> d           2.307   0.016  -0.020  0.00  0.00     0.362 A 
ATOM      5  O1  <0> d           3.369  -0.583  -0.034  0.00  0.00    -0.244 OA
ATOM      6  N2  <0> d           1.154  -0.660  -0.013  0.00  0.00    -0.004 NA
ATOM      7  C3  <0> d           0.002  -0.004   0.002  0.00  0.00     0.725 A 
ATOM      8  N3  <0> d          -0.016   1.336   0.009  0.00  0.00    -0.058 NA
ATOM      9  H2  <0> d           1.081   3.095   0.008  0.00  0.00     0.144 H 
ENDROOT
BRANCH   7  10
ATOM     10  N4  <0> d          -1.180  -0.702   0.009  0.00  0.00    -0.231 N 
ATOM     11  H3  <0> d          -2.025  -0.226   0.019  0.00  0.00     0.174 HD
ATOM     12  H4  <0> d          -1.170  -1.672   0.004  0.00  0.00     0.174 HD
ENDBRANCH   7  10
TORSDOF 1
