REMARK  1 active torsions:
REMARK  status: ('A' for Active; 'I' for Inactive)
REMARK    1  A    between atoms: C2_2  and  N2_9 
ROOT
ATOM      1  C1  <0> d           1.165   2.044   0.002  0.00  0.00    -0.006 A 
ATOM      2  C2  <0> d           2.378   1.361  -0.014  0.00  0.00     0.034 A 
ATOM      3  C3  <0> d           2.353  -0.034  -0.021  0.00  0.00    -0.004 A 
ATOM      4  C4  <0> d           1.135  -0.685  -0.013  0.00  0.00     0.192 A 
ATOM      5  N1  <0> d           0.002  -0.004   0.002  0.00  0.00    -0.311 N 
ATOM      6  C5  <0> d          -0.016   1.320   0.009  0.00  0.00     0.183 A 
ATOM      7  O1  <0> d          -1.204   1.975   0.018  0.00  0.00    -0.172 OA
ATOM      8  F1  <0> d           1.101  -2.036  -0.019  0.00  0.00    -0.186 F 
ATOM      9  H1  <0> d           1.145   3.124   0.008  0.00  0.00     0.093 H 
ATOM     10  H2  <0> d           3.275  -0.597  -0.034  0.00  0.00     0.094 H 
ATOM     11  H5  <0> d          -0.960  -0.537   0.008  0.00  0.00     0.170 HD
ENDROOT
BRANCH   2  12
ATOM     12  N2  <0> d           3.587   2.052  -0.023  0.00  0.00    -0.399 N 
ATOM     13  H3  <0> d           4.537   1.499  -0.035  0.00  0.00     0.156 HD
ATOM     14  H4  <0> d           3.591   3.152  -0.017  0.00  0.00     0.156 HD
ENDBRANCH   2  12
TORSDOF 1
