REMARK  5 active torsions:
REMARK  status: ('A' for Active; 'I' for Inactive)
REMARK    1  A    between atoms: C1_1  and  O1_2 
REMARK    2  A    between atoms: O1_2  and  C2_3 
REMARK    3  A    between atoms: C2_3  and  C3_4 
REMARK    4  A    between atoms: C3_4  and  O2_5 
REMARK    5  A    between atoms: O2_5  and  C4_6 
ROOT
ATOM      1  O2  <0> d          -0.069   5.201   0.029  0.00  0.00    -0.349 OA
ENDROOT
BRANCH   1   2
ATOM      2  C3  <0> d          -1.350   5.832   0.045  0.00  0.00     0.046 C 
ATOM      3  H6  <0> d          -1.912   5.536  -0.841  0.00  0.00     0.078 H 
ATOM      4  H7  <0> d          -1.895   5.527   0.939  0.00  0.00     0.078 H 
BRANCH   2   5
ATOM      5  C2  <0> d          -1.171   7.351   0.050  0.00  0.00     0.039 C 
ATOM      6  H4  <0> d          -2.143   7.832   0.152  0.00  0.00     0.077 H 
ATOM      7  H5  <0> d          -0.534   7.639   0.887  0.00  0.00     0.077 H 
BRANCH   5   8
ATOM      8  O1  <0> d          -0.561   7.763  -1.175  0.00  0.00    -0.394 OA
BRANCH   8   9
ATOM      9  C1  <0> d          -0.347   9.173  -1.273  0.00  0.00     0.004 C 
ATOM     10  H1  <0> d           0.118   9.404  -2.231  0.00  0.00     0.066 H 
ATOM     11  H2  <0> d          -1.303   9.691  -1.199  0.00  0.00     0.066 H 
ATOM     12  H3  <0> d           0.306   9.498  -0.463  0.00  0.00     0.066 H 
ENDBRANCH   8   9
ENDBRANCH   5   8
ENDBRANCH   2   5
ENDBRANCH   1   2
BRANCH   1  13
ATOM     13  C4  <0> d          -0.050   3.842   0.023  0.00  0.00     0.068 A 
ATOM     14  C9  <0> d          -1.241   3.131   0.031  0.00  0.00    -0.051 A 
ATOM     15  C8  <0> d          -1.220   1.750   0.017  0.00  0.00    -0.080 A 
ATOM     16  H12 <0> d          -2.185   3.657   0.042  0.00  0.00     0.087 H 
ATOM     17  C7  <0> d          -0.013   1.076   0.008  0.00  0.00    -0.083 A 
ATOM     18  H11 <0> d          -2.147   1.196   0.018  0.00  0.00     0.083 H 
ATOM     19  C6  <0> d           1.176   1.782   0.000  0.00  0.00    -0.080 A 
ATOM     20  H10 <0> d           0.002  -0.004   0.002  0.00  0.00     0.083 H 
ATOM     21  C5  <0> d           1.160   3.163   0.007  0.00  0.00    -0.051 A 
ATOM     22  H9  <0> d           2.118   1.254  -0.011  0.00  0.00     0.083 H 
ATOM     23  H8  <0> d           2.089   3.715   0.001  0.00  0.00     0.087 H 
ENDBRANCH   1  13
TORSDOF 5
