REMARK  1 active torsions:
REMARK  status: ('A' for Active; 'I' for Inactive)
REMARK    1  A    between atoms: C5_5  and  C8_8 
ROOT
ATOM      1  C1  <0> d          -0.016   1.306   0.009  0.00  0.00    -0.119 C 
ATOM      2  C2  <0> d           0.002  -0.004   0.002  0.00  0.00    -0.089 C 
ATOM      3  C3  <0> d          -1.286  -0.797   0.004  0.00  0.00    -0.044 C 
ATOM      4  C4  <0> d          -1.219  -1.832   1.132  0.00  0.00    -0.049 C 
ATOM      5  C5  <0> d           0.043  -2.680   0.970  0.00  0.00     0.031 C 
ATOM      6  C6  <0> d           1.284  -1.798   1.120  0.00  0.00    -0.049 C 
ATOM      7  C7  <0> d           1.311  -0.762  -0.015  0.00  0.00    -0.044 C 
ATOM      8  H1  <0> d           0.912   1.859   0.003  0.00  0.00     0.067 H 
ATOM      9  H2  <0> d          -0.958   1.833   0.017  0.00  0.00     0.067 H 
ATOM     10  H3  <0> d          -2.129  -0.127   0.171  0.00  0.00     0.039 H 
ATOM     11  H4  <0> d          -1.404  -1.306  -0.953  0.00  0.00     0.039 H 
ATOM     12  H5  <0> d          -1.192  -1.320   2.094  0.00  0.00     0.034 H 
ATOM     13  H6  <0> d          -2.098  -2.475   1.087  0.00  0.00     0.034 H 
ATOM     14  H7  <0> d           0.045  -3.142  -0.017  0.00  0.00     0.056 H 
ATOM     15  H8  <0> d           1.252  -1.286   2.082  0.00  0.00     0.034 H 
ATOM     16  H9  <0> d           2.179  -2.417   1.067  0.00  0.00     0.034 H 
ATOM     17  H10 <0> d           1.429  -1.268  -0.973  0.00  0.00     0.039 H 
ATOM     18  H11 <0> d           2.138  -0.069   0.141  0.00  0.00     0.039 H 
ENDROOT
BRANCH   5  19
ATOM     19  C8  <0> d           0.063  -3.756   2.025  0.00  0.00     0.177 C 
ATOM     20  O1  <0> d           0.441  -4.880   1.743  0.00  0.00    -0.648 OA
ATOM     21  O2  <0> d          -0.300  -3.502   3.161  0.00  0.00    -0.648 OA
ENDBRANCH   5  19
TORSDOF 1
