REMARK  3 active torsions:
REMARK  status: ('A' for Active; 'I' for Inactive)
REMARK    1  A    between atoms: C2_2  and  N1_3 
REMARK    2  A    between atoms: C6_7  and  C7_8 
REMARK    3  A    between atoms: C7_8  and  O1_9 
ROOT
ATOM      1  N1  <0> d          -0.705   3.163   0.026  0.00  0.00    -0.335 N 
ATOM      2  C3  <0> d          -1.111   1.859   0.017  0.00  0.00    -0.015 A 
ATOM      3  C4  <0> d          -0.013   1.076   0.008  0.00  0.00    -0.066 A 
ATOM      4  C5  <0> d           1.113   1.925   0.002  0.00  0.00    -0.057 A 
ATOM      5  C6  <0> d           0.661   3.196   0.013  0.00  0.00     0.039 A 
ATOM      6  H4  <0> d          -2.134   1.514   0.019  0.00  0.00     0.112 H 
ATOM      7  H5  <0> d           0.002  -0.004   0.002  0.00  0.00     0.085 H 
ATOM      8  H6  <0> d           2.147   1.615  -0.010  0.00  0.00     0.086 H 
ENDROOT
BRANCH   1   9
ATOM      9  C2  <0> d          -1.545   4.277   0.040  0.00  0.00    -0.024 C 
ATOM     10  C1  <0> d          -2.853   4.115   0.051  0.00  0.00    -0.106 C 
ATOM     11  H1  <0> d          -3.275   3.121   0.050  0.00  0.00     0.068 H 
ATOM     12  H2  <0> d          -3.504   4.977   0.062  0.00  0.00     0.068 H 
ATOM     13  H3  <0> d          -1.124   5.271   0.041  0.00  0.00     0.110 H 
ENDBRANCH   1   9
BRANCH   5  14
ATOM     14  C7  <0> d           1.515   4.437   0.011  0.00  0.00     0.055 C 
ATOM     15  H7  <0> d           1.289   5.033  -0.873  0.00  0.00     0.083 H 
ATOM     16  H8  <0> d           1.307   5.022   0.907  0.00  0.00     0.083 H 
BRANCH  14  17
ATOM     17  O1  <0> d           2.895   4.066  -0.004  0.00  0.00    -0.395 OA
ATOM     18  H9  <0> d           3.505   4.816  -0.006  0.00  0.00     0.209 HD
ENDBRANCH  14  17
ENDBRANCH   5  14
TORSDOF 3
