REMARK  5 active torsions:
REMARK  status: ('A' for Active; 'I' for Inactive)
REMARK    1  A    between atoms: C1_1  and  C2_2 
REMARK    2  A    between atoms: C2_2  and  N1_3 
REMARK    3  A    between atoms: N1_3  and  C3_4 
REMARK       I    between atoms: N1_3  and  C5_6 
REMARK    4  A    between atoms: C3_4  and  C4_5 
REMARK    5  A    between atoms: C5_6  and  C6_8 
ROOT
ATOM      1  N1  <0> d           1.093   1.879  -0.004  0.00  0.00    -0.353 N 
ATOM      2  C5  <0> d          -0.086   1.227  -0.004  0.00  0.00     0.215 C 
ATOM      3  O1  <0> d          -1.125   1.852   0.021  0.00  0.00    -0.274 OA
ENDROOT
BRANCH   1   4
ATOM      4  C2  <0> d           1.121   3.342  -0.089  0.00  0.00    -0.006 C 
ATOM      5  H4  <0> d           1.989   3.656  -0.670  0.00  0.00     0.063 H 
ATOM      6  H5  <0> d           0.212   3.695  -0.575  0.00  0.00     0.063 H 
BRANCH   4   7
ATOM      7  C1  <0> d           1.210   3.933   1.320  0.00  0.00    -0.061 C 
ATOM      8  H1  <0> d           1.230   5.021   1.257  0.00  0.00     0.029 H 
ATOM      9  H2  <0> d           0.342   3.619   1.900  0.00  0.00     0.029 H 
ATOM     10  H3  <0> d           2.119   3.579   1.805  0.00  0.00     0.029 H 
ENDBRANCH   4   7
ENDBRANCH   1   4
BRANCH   1  11
ATOM     11  C3  <0> d           2.348   1.127   0.080  0.00  0.00    -0.006 C 
ATOM     12  H6  <0> d           3.126   1.763   0.500  0.00  0.00     0.063 H 
ATOM     13  H7  <0> d           2.206   0.255   0.719  0.00  0.00     0.063 H 
BRANCH  11  14
ATOM     14  C4  <0> d           2.763   0.670  -1.321  0.00  0.00    -0.061 C 
ATOM     15  H8  <0> d           1.984   0.034  -1.741  0.00  0.00     0.029 H 
ATOM     16  H9  <0> d           2.904   1.542  -1.960  0.00  0.00     0.029 H 
ATOM     17  H10 <0> d           3.696   0.110  -1.258  0.00  0.00     0.029 H 
ENDBRANCH  11  14
ENDBRANCH   1  11
BRANCH   2  18
ATOM     18  C6  <0> d          -0.113  -0.280  -0.026  0.00  0.00    -0.003 C 
ATOM     19  H11 <0> d          -0.040  -0.629  -1.056  0.00  0.00     0.040 H 
ATOM     20  H12 <0> d           0.727  -0.667   0.549  0.00  0.00     0.040 H 
ATOM     21  H13 <0> d          -1.047  -0.633   0.411  0.00  0.00     0.040 H 
ENDBRANCH   2  18
TORSDOF 5
