REMARK  2 active torsions:
REMARK  status: ('A' for Active; 'I' for Inactive)
REMARK    1  A    between atoms: C1_1  and  C2_2 
REMARK    2  A    between atoms: C3_4  and  C4_7 
ROOT
ATOM      1  C2  <0> d           0.002  -0.004   0.002  0.00  0.00     0.152 A 
ATOM      2  N1  <0> d           0.007  -0.771  -1.089  0.00  0.00    -0.203 NA
ATOM      3  C3  <0> d           0.026  -2.043  -0.745  0.00  0.00     0.230 A 
ATOM      4  O1  <0> d           0.033  -2.108   0.600  0.00  0.00    -0.189 OA
ATOM      5  N2  <0> d           0.023  -0.765   1.060  0.00  0.00    -0.111 NA
ENDROOT
BRANCH   3   6
ATOM      6  C4  <0> d           0.037  -3.187  -1.665  0.00  0.00     0.130 A 
ATOM      7  O2  <0> d           0.029  -3.120  -3.012  0.00  0.00    -0.318 OA
ATOM      8  C7  <0> d           0.045  -4.362  -3.519  0.00  0.00     0.019 A 
ATOM      9  C6  <0> d           0.056  -5.247  -2.500  0.00  0.00    -0.059 A 
ATOM     10  H6  <0> d           0.046  -4.612  -4.570  0.00  0.00     0.123 H 
ATOM     11  C5  <0> d           0.051  -4.503  -1.307  0.00  0.00    -0.044 A 
ATOM     12  H5  <0> d           0.068  -6.323  -2.585  0.00  0.00     0.086 H 
ATOM     13  H4  <0> d           0.057  -4.898  -0.302  0.00  0.00     0.088 H 
ENDBRANCH   3   6
BRANCH   1  14
ATOM     14  C1  <0> d          -0.018   1.503   0.010  0.00  0.00    -0.017 C 
ATOM     15  H1  <0> d           1.004   1.880   0.003  0.00  0.00     0.038 H 
ATOM     16  H2  <0> d          -0.545   1.864  -0.873  0.00  0.00     0.038 H 
ATOM     17  H3  <0> d          -0.529   1.854   0.907  0.00  0.00     0.038 H 
ENDBRANCH   1  14
TORSDOF 2
