REMARK  1 active torsions:
REMARK  status: ('A' for Active; 'I' for Inactive)
REMARK    1  A    between atoms: C4_4  and  C6_7 
ROOT
ATOM      1  C1  <0> d          -0.013   1.076   0.008  0.00  0.00    -0.064 A 
ATOM      2  C2  <0> d          -1.218   1.759   0.017  0.00  0.00    -0.058 A 
ATOM      3  C3  <0> d          -1.192   3.146   0.030  0.00  0.00     0.069 A 
ATOM      4  C4  <0> d           0.040   3.800   0.021  0.00  0.00     0.154 A 
ATOM      5  N1  <0> d           1.171   3.106   0.007  0.00  0.00    -0.252 NA
ATOM      6  C5  <0> d           1.175   1.792   0.001  0.00  0.00     0.003 A 
ATOM      7 Cl1  <0> d          -2.672   4.054   0.048  0.00  0.00    -0.082 Cl
ATOM      8  H1  <0> d           0.002  -0.004   0.002  0.00  0.00     0.085 H 
ATOM      9  H2  <0> d          -2.156   1.224   0.019  0.00  0.00     0.086 H 
ATOM     10  H3  <0> d           2.115   1.262  -0.011  0.00  0.00     0.114 H 
ENDROOT
BRANCH   4  11
ATOM     11  C6  <0> d           0.085   5.279   0.027  0.00  0.00     0.230 C 
ATOM     12  O1  <0> d          -0.947   5.919   0.040  0.00  0.00    -0.643 OA
ATOM     13  O2  <0> d           1.272   5.917   0.019  0.00  0.00    -0.643 OA
ENDBRANCH   4  11
TORSDOF 1
