REMARK  0 active torsions:
REMARK  status: ('A' for Active; 'I' for Inactive)
ROOT
ATOM      1  C1  <0> d          -0.017   1.380   0.010  0.00  0.00    -0.043 A 
ATOM      2  C2  <0> d           1.170   2.088   0.002  0.00  0.00    -0.040 A 
ATOM      3  C3  <0> d           2.379   1.414  -0.013  0.00  0.00     0.154 A 
ATOM      4  C4  <0> d           2.399   0.028  -0.021  0.00  0.00     0.157 A 
ATOM      5  C5  <0> d           1.210  -0.680  -0.013  0.00  0.00    -0.005 A 
ATOM      6  C6  <0> d           0.002  -0.004   0.002  0.00  0.00     0.119 A 
ATOM      7  F1  <0> d          -1.159  -0.695   0.010  0.00  0.00    -0.206 F 
ATOM      8  F2  <0> d           3.578  -0.631  -0.036  0.00  0.00    -0.203 F 
ATOM      9  F3  <0> d           3.539   2.107  -0.021  0.00  0.00    -0.203 F 
ATOM     10  H1  <0> d          -0.959   1.907   0.026  0.00  0.00     0.088 H 
ATOM     11  H2  <0> d           1.155   3.168   0.008  0.00  0.00     0.088 H 
ATOM     12  H3  <0> d           1.225  -1.760  -0.019  0.00  0.00     0.093 H 
ENDROOT
TORSDOF 0
