REMARK  2 active torsions:
REMARK  status: ('A' for Active; 'I' for Inactive)
REMARK    1  A    between atoms: C1_1  and  N1_2 
REMARK    2  A    between atoms: N2_7  and  C6_10 
ROOT
ATOM      1  N1  <0> d          -0.721   1.571  -1.179  0.00  0.00    -0.282 N 
ATOM      2  C2  <0> d          -1.232   0.681  -2.070  0.00  0.00     0.188 A 
ATOM      3  C3  <0> d          -1.903   1.147  -3.193  0.00  0.00     0.021 A 
ATOM      4  C4  <0> d          -2.035   2.518  -3.377  0.00  0.00     0.188 A 
ATOM      5  O1  <0> d          -2.675   2.995  -4.448  0.00  0.00    -0.172 OA
ATOM      6  N2  <0> d          -1.507   3.369  -2.459  0.00  0.00    -0.282 N 
ATOM      7  C5  <0> d          -0.866   2.894  -1.375  0.00  0.00     0.332 A 
ATOM      8  O2  <0> d          -0.406   3.673  -0.563  0.00  0.00    -0.246 OA
ATOM      9  O3  <0> d          -1.090  -0.631  -1.868  0.00  0.00    -0.172 OA
ATOM     10  H7  <0> d          -2.315   0.456  -3.913  0.00  0.00     0.097 H 
ENDROOT
BRANCH   1  11
ATOM     11  C1  <0> d          -0.013   1.086   0.008  0.00  0.00    -0.008 C 
ATOM     12  H1  <0> d           0.002  -0.004   0.002  0.00  0.00     0.057 H 
ATOM     13  H2  <0> d           1.010   1.463   0.000  0.00  0.00     0.057 H 
ATOM     14  H3  <0> d          -0.523   1.437   0.905  0.00  0.00     0.057 H 
ENDBRANCH   1  11
BRANCH   6  15
ATOM     15  C6  <0> d          -1.642   4.816  -2.647  0.00  0.00    -0.008 C 
ATOM     16  H4  <0> d          -2.189   5.013  -3.568  0.00  0.00     0.057 H 
ATOM     17  H5  <0> d          -2.185   5.243  -1.803  0.00  0.00     0.057 H 
ATOM     18  H6  <0> d          -0.652   5.269  -2.708  0.00  0.00     0.057 H 
ENDBRANCH   6  15
TORSDOF 2
