REMARK  2 active torsions:
REMARK  status: ('A' for Active; 'I' for Inactive)
REMARK    1  A    between atoms: C1_1  and  N1_2 
REMARK    2  A    between atoms: C3_4  and  C5_7 
ROOT
ATOM      1  N1  <0> d           2.070  -4.186  -0.040  0.00  0.00    -0.354 N 
ATOM      2  C2  <0> d           2.457  -2.875  -0.037  0.00  0.00     0.009 A 
ATOM      3  C3  <0> d           1.319  -2.132  -0.022  0.00  0.00     0.085 A 
ATOM      4  N2  <0> d           0.274  -2.983  -0.012  0.00  0.00    -0.242 NA
ATOM      5  C4  <0> d           0.719  -4.208  -0.027  0.00  0.00     0.066 A 
ATOM      6  H4  <0> d           3.470  -2.502  -0.045  0.00  0.00     0.115 H 
ATOM      7  H5  <0> d           0.106  -5.098  -0.025  0.00  0.00     0.143 H 
ENDROOT
BRANCH   3   8
ATOM      8  C5  <0> d           1.241  -0.650  -0.013  0.00  0.00     0.012 A 
ATOM      9  C9  <0> d           2.403   0.120  -0.020  0.00  0.00     0.014 A 
ATOM     10  N3  <0> d           2.335   1.435  -0.013  0.00  0.00    -0.272 NA
ATOM     11  H9  <0> d           3.367  -0.366  -0.032  0.00  0.00     0.116 H 
ATOM     12  C8  <0> d           1.180   2.073   0.002  0.00  0.00     0.002 A 
ATOM     13  C7  <0> d          -0.017   1.380   0.010  0.00  0.00    -0.065 A 
ATOM     14  H8  <0> d           1.169   3.153   0.007  0.00  0.00     0.114 H 
ATOM     15  C6  <0> d           0.002  -0.004   0.002  0.00  0.00    -0.068 A 
ATOM     16  H7  <0> d          -0.956   1.913   0.017  0.00  0.00     0.085 H 
ATOM     17  H6  <0> d          -0.917  -0.570   0.007  0.00  0.00     0.085 H 
ENDBRANCH   3   8
BRANCH   1  18
ATOM     18  C1  <0> d           2.956  -5.351  -0.055  0.00  0.00    -0.014 C 
ATOM     19  H1  <0> d           3.186  -5.646   0.970  0.00  0.00     0.057 H 
ATOM     20  H2  <0> d           2.463  -6.177  -0.568  0.00  0.00     0.057 H 
ATOM     21  H3  <0> d           3.880  -5.099  -0.576  0.00  0.00     0.057 H 
ENDBRANCH   1  18
TORSDOF 2
