REMARK  2 active torsions:
REMARK  status: ('A' for Active; 'I' for Inactive)
REMARK    1  A    between atoms: C1_1  and  C2_2 
REMARK    2  A    between atoms: C4_5  and  N2_7 
ROOT
ATOM      1  C2  <0> d          -3.334   2.060   0.029  0.00  0.00     0.057 A 
ATOM      2  C3  <0> d          -2.694   3.237   0.033  0.00  0.00     0.046 A 
ATOM      3  O1  <0> d          -1.369   2.974   0.031  0.00  0.00    -0.289 OA
ATOM      4  C4  <0> d          -1.217   1.640   0.017  0.00  0.00     0.244 A 
ATOM      5  N1  <0> d          -2.404   1.085   0.019  0.00  0.00    -0.212 NA
ATOM      6  H4  <0> d          -3.152   4.215   0.042  0.00  0.00     0.126 H 
ENDROOT
BRANCH   1   7
ATOM      7  C1  <0> d          -4.828   1.861   0.035  0.00  0.00    -0.034 C 
ATOM      8  H1  <0> d          -5.184   1.808   1.064  0.00  0.00     0.035 H 
ATOM      9  H2  <0> d          -5.308   2.698  -0.472  0.00  0.00     0.035 H 
ATOM     10  H3  <0> d          -5.073   0.934  -0.483  0.00  0.00     0.035 H 
ENDBRANCH   1   7
BRANCH   4  11
ATOM     11  N2  <0> d          -0.011   0.966   0.007  0.00  0.00    -0.363 N 
ATOM     12  H5  <0> d           0.002  -0.004   0.002  0.00  0.00     0.159 HD
ATOM     13  H6  <0> d           0.822   1.462   0.002  0.00  0.00     0.159 HD
ENDBRANCH   4  11
TORSDOF 2
