REMARK  7 active torsions:
REMARK  status: ('A' for Active; 'I' for Inactive)
REMARK    1  A    between atoms: C1_1  and  C2_2 
REMARK    2  A    between atoms: C2_2  and  O2_4 
REMARK    3  A    between atoms: O2_4  and  C3_5 
REMARK    4  A    between atoms: C3_5  and  C4_6 
REMARK    5  A    between atoms: C4_6  and  O3_7 
REMARK    6  A    between atoms: O3_7  and  C5_8 
REMARK    7  A    between atoms: C5_8  and  C6_9 
ROOT
ATOM      1  C6  <0> d           4.627   4.421   2.594  0.00  0.00    -0.091 C 
ATOM      2  C7  <0> d           4.577   4.979   3.626  0.00  0.00    -0.152 C 
ATOM      3  H10 <0> d           4.533   5.478   4.548  0.00  0.00     0.166 H 
ENDROOT
BRANCH   1   4
ATOM      4  C5  <0> d           4.689   3.721   1.301  0.00  0.00     0.073 C 
ATOM      5  H8  <0> d           5.631   3.177   1.227  0.00  0.00     0.093 H 
ATOM      6  H9  <0> d           4.624   4.447   0.491  0.00  0.00     0.093 H 
BRANCH   4   7
ATOM      7  O3  <0> d           3.600   2.801   1.204  0.00  0.00    -0.377 OA
BRANCH   7   8
ATOM      8  C4  <0> d           3.568   2.065  -0.021  0.00  0.00     0.041 C 
ATOM      9  H6  <0> d           4.487   1.488  -0.122  0.00  0.00     0.077 H 
ATOM     10  H7  <0> d           3.479   2.757  -0.858  0.00  0.00     0.077 H 
BRANCH   8  11
ATOM     11  C3  <0> d           2.367   1.117  -0.015  0.00  0.00     0.048 C 
ATOM     12  H4  <0> d           2.409   0.484   0.872  0.00  0.00     0.078 H 
ATOM     13  H5  <0> d           2.392   0.493  -0.908  0.00  0.00     0.078 H 
BRANCH  11  14
ATOM     14  O2  <0> d           1.139   1.891   0.001  0.00  0.00    -0.320 OA
BRANCH  14  15
ATOM     15  C2  <0> d          -0.014   1.204   0.009  0.00  0.00     0.254 C 
ATOM     16  O1  <0> d           0.002  -0.004   0.002  0.00  0.00    -0.266 OA
BRANCH  15  17
ATOM     17  C1  <0> d          -1.329   1.940   0.019  0.00  0.00     0.004 C 
ATOM     18  H1  <0> d          -1.642   2.111   1.049  0.00  0.00     0.041 H 
ATOM     19  H2  <0> d          -1.214   2.897  -0.490  0.00  0.00     0.041 H 
ATOM     20  H3  <0> d          -2.083   1.343  -0.495  0.00  0.00     0.041 H 
ENDBRANCH  15  17
ENDBRANCH  14  15
ENDBRANCH  11  14
ENDBRANCH   8  11
ENDBRANCH   7   8
ENDBRANCH   4   7
ENDBRANCH   1   4
TORSDOF 7
