REMARK  3 active torsions:
REMARK  status: ('A' for Active; 'I' for Inactive)
REMARK    1  A    between atoms: C1_1  and  C2_2 
REMARK    2  A    between atoms: C5_5  and  C8_9 
REMARK    3  A    between atoms: C8_9  and  O1_10 
ROOT
ATOM      1  C2  <0> d           1.396   5.776  -0.729  0.00  0.00    -0.087 C 
ATOM      2  C3  <0> d           0.582   5.042  -1.417  0.00  0.00    -0.101 C 
ATOM      3  C4  <0> d           0.488   3.549  -1.294  0.00  0.00    -0.044 C 
ATOM      4  C5  <0> d           1.145   3.085   0.008  0.00  0.00    -0.030 C 
ATOM      5  H1  <0> d           0.533   3.391   0.856  0.00  0.00     0.043 H 
ATOM      6  C6  <0> d           2.532   3.731   0.113  0.00  0.00    -0.056 C 
ATOM      7  C7  <0> d           2.352   5.239   0.295  0.00  0.00    -0.045 C 
ATOM      8  H5  <0> d          -0.070   5.533  -2.124  0.00  0.00     0.077 H 
ATOM      9  H6  <0> d           0.994   3.084  -2.140  0.00  0.00     0.039 H 
ATOM     10  H7  <0> d          -0.561   3.254  -1.295  0.00  0.00     0.039 H 
ATOM     11  H8  <0> d           3.065   3.317   0.969  0.00  0.00     0.034 H 
ATOM     12  H9  <0> d           3.096   3.540  -0.800  0.00  0.00     0.034 H 
ATOM     13  H10 <0> d           3.317   5.735   0.183  0.00  0.00     0.039 H 
ATOM     14  H11 <0> d           1.960   5.435   1.293  0.00  0.00     0.039 H 
ENDROOT
BRANCH   4  15
ATOM     15  C8  <0> d           1.286   1.562  -0.002  0.00  0.00     0.020 C 
ATOM     16  H12 <0> d           1.840   1.243   0.881  0.00  0.00     0.074 H 
ATOM     17  H13 <0> d           1.823   1.252  -0.899  0.00  0.00     0.074 H 
BRANCH  15  18
ATOM     18  O1  <0> d          -0.011   0.963   0.007  0.00  0.00    -0.400 OA
ATOM     19  H14 <0> d           0.002  -0.004   0.002  0.00  0.00     0.209 HD
ENDBRANCH  15  18
ENDBRANCH   4  15
BRANCH   1  20
ATOM     20  C1  <0> d           1.382   7.264  -0.972  0.00  0.00    -0.055 C 
ATOM     21  H2  <0> d           0.642   7.500  -1.737  0.00  0.00     0.033 H 
ATOM     22  H3  <0> d           1.126   7.780  -0.047  0.00  0.00     0.033 H 
ATOM     23  H4  <0> d           2.368   7.586  -1.308  0.00  0.00     0.033 H 
ENDBRANCH   1  20
TORSDOF 3
