REMARK  1 active torsions:
REMARK  status: ('A' for Active; 'I' for Inactive)
REMARK    1  A    between atoms: C4_7  and  C6_10 
ROOT
ATOM      1  C1  <0> d          -0.017   1.405   0.010  0.00  0.00    -0.038 A 
ATOM      2  C2  <0> d           1.157   2.088   0.002  0.00  0.00    -0.014 A 
ATOM      3  C3  <0> d           2.381   1.380  -0.013  0.00  0.00     0.246 A 
ATOM      4  O1  <0> d           3.436   1.992  -0.020  0.00  0.00    -0.268 OA
ATOM      5  N1  <0> d           2.387   0.034  -0.020  0.00  0.00    -0.315 N 
ATOM      6  H1  <0> d           3.232  -0.444  -0.030  0.00  0.00     0.169 HD
ATOM      7  C4  <0> d           1.207  -0.670  -0.013  0.00  0.00     0.151 A 
ATOM      8  C5  <0> d           0.002  -0.004   0.002  0.00  0.00     0.150 A 
ATOM      9  F1  <0> d          -1.157  -0.698   0.009  0.00  0.00    -0.203 F 
ATOM     10  H2  <0> d          -0.957   1.936   0.026  0.00  0.00     0.088 H 
ATOM     11  H3  <0> d           1.155   3.168   0.008  0.00  0.00     0.092 H 
ENDROOT
BRANCH   7  12
ATOM     12  C6  <0> d           1.231  -2.143  -0.021  0.00  0.00     0.230 C 
ATOM     13  O2  <0> d           0.182  -2.772  -0.014  0.00  0.00    -0.643 OA
ATOM     14  O3  <0> d           2.300  -2.737  -0.034  0.00  0.00    -0.643 OA
ENDBRANCH   7  12
TORSDOF 1
