REMARK  0 active torsions:
REMARK  status: ('A' for Active; 'I' for Inactive)
ROOT
ATOM      1  C1  <0> d          -0.013   1.086   0.008  0.00  0.00    -0.024 C 
ATOM      2  C2  <0> d          -0.736   1.583   1.266  0.00  0.00     0.033 C 
ATOM      3  O1  <0> d          -0.867   3.032   1.185  0.00  0.00    -0.298 OA
ATOM      4  C3  <0> d          -1.393   3.507   0.033  0.00  0.00     0.406 C 
ATOM      5  O2  <0> d          -2.291   4.324   0.044  0.00  0.00    -0.230 OA
ATOM      6  O3  <0> d          -0.886   3.045  -1.133  0.00  0.00    -0.298 OA
ATOM      7  C4  <0> d          -0.760   1.597  -1.230  0.00  0.00     0.033 C 
ATOM      8  H1  <0> d           0.002  -0.004   0.002  0.00  0.00     0.039 H 
ATOM      9  H2  <0> d           1.009   1.465   0.000  0.00  0.00     0.039 H 
ATOM     10  H3  <0> d          -1.726   1.131   1.321  0.00  0.00     0.075 H 
ATOM     11  H4  <0> d          -0.158   1.315   2.150  0.00  0.00     0.075 H 
ATOM     12  H5  <0> d          -0.199   1.338  -2.128  0.00  0.00     0.075 H 
ATOM     13  H6  <0> d          -1.751   1.145  -1.272  0.00  0.00     0.075 H 
ENDROOT
TORSDOF 0
