REMARK  4 active torsions:
REMARK  status: ('A' for Active; 'I' for Inactive)
REMARK    1  A    between atoms: C1_1  and  C2_2 
REMARK    2  A    between atoms: C5_5  and  C7_8 
REMARK    3  A    between atoms: C7_8  and  C8_9 
REMARK    4  A    between atoms: C8_9  and  O1_10 
ROOT
ATOM      1  C2  <0> d           0.002  -0.004   0.002  0.00  0.00     0.030 A 
ATOM      2  C3  <0> d           0.005  -0.681  -1.203  0.00  0.00    -0.059 A 
ATOM      3  C4  <0> d           0.024  -2.067  -1.200  0.00  0.00    -0.073 A 
ATOM      4  C5  <0> d           0.039  -2.724   0.021  0.00  0.00    -0.039 A 
ATOM      5  C6  <0> d           0.035  -1.980   1.186  0.00  0.00     0.009 A 
ATOM      6  N1  <0> d           0.022  -0.662   1.145  0.00  0.00    -0.265 NA
ATOM      7  H4  <0> d          -0.007  -0.136  -2.136  0.00  0.00     0.086 H 
ATOM      8  H5  <0> d           0.027  -2.622  -2.126  0.00  0.00     0.084 H 
ATOM      9  H6  <0> d           0.046  -2.484   2.141  0.00  0.00     0.115 H 
ENDROOT
BRANCH   4  10
ATOM     10  C7  <0> d           0.059  -4.229   0.077  0.00  0.00    -0.020 C 
ATOM     11  H7  <0> d          -0.446  -4.566   0.983  0.00  0.00     0.043 H 
ATOM     12  H8  <0> d          -0.454  -4.633  -0.796  0.00  0.00     0.043 H 
BRANCH  10  13
ATOM     13  C8  <0> d           1.509  -4.720   0.089  0.00  0.00     0.020 C 
ATOM     14  H9  <0> d           2.014  -4.383  -0.816  0.00  0.00     0.074 H 
ATOM     15  H10 <0> d           2.021  -4.317   0.963  0.00  0.00     0.074 H 
BRANCH  13  16
ATOM     16  O1  <0> d           1.528  -6.148   0.143  0.00  0.00    -0.401 OA
ATOM     17  H11 <0> d           2.416  -6.529   0.153  0.00  0.00     0.209 HD
ENDBRANCH  13  16
ENDBRANCH  10  13
ENDBRANCH   4  10
BRANCH   1  18
ATOM     18  C1  <0> d          -0.018   1.503   0.010  0.00  0.00    -0.035 C 
ATOM     19  H1  <0> d           1.004   1.880   0.003  0.00  0.00     0.035 H 
ATOM     20  H2  <0> d          -0.545   1.864  -0.873  0.00  0.00     0.035 H 
ATOM     21  H3  <0> d          -0.529   1.854   0.907  0.00  0.00     0.035 H 
ENDBRANCH   1  18
TORSDOF 4
