REMARK  4 active torsions:
REMARK  status: ('A' for Active; 'I' for Inactive)
REMARK    1  A    between atoms: C1_1  and  C2_2 
REMARK    2  A    between atoms: C4_4  and  N2_10 
REMARK    3  A    between atoms: C5_5  and  N1_9 
REMARK    4  A    between atoms: C7_7  and  C8_8 
ROOT
ATOM      1  C2  <0> d           2.381   1.417  -0.013  0.00  0.00    -0.054 A 
ATOM      2  C3  <0> d           1.177   2.096   0.002  0.00  0.00    -0.049 A 
ATOM      3  C4  <0> d          -0.017   1.391   0.010  0.00  0.00     0.052 A 
ATOM      4  C5  <0> d           0.002  -0.004   0.002  0.00  0.00     0.052 A 
ATOM      5  C6  <0> d           1.214  -0.677  -0.013  0.00  0.00    -0.049 A 
ATOM      6  C7  <0> d           2.400   0.035  -0.021  0.00  0.00    -0.054 A 
ATOM      7  H4  <0> d           1.165   3.176   0.008  0.00  0.00     0.087 H 
ATOM      8  H5  <0> d           1.232  -1.756  -0.019  0.00  0.00     0.087 H 
ENDROOT
BRANCH   1   9
ATOM      9  C1  <0> d           3.677   2.186  -0.022  0.00  0.00    -0.051 C 
ATOM     10  H1  <0> d           3.979   2.377  -1.052  0.00  0.00     0.033 H 
ATOM     11  H2  <0> d           3.541   3.134   0.498  0.00  0.00     0.033 H 
ATOM     12  H3  <0> d           4.449   1.603   0.481  0.00  0.00     0.033 H 
ENDBRANCH   1   9
BRANCH   6  13
ATOM     13  C8  <0> d           3.716  -0.698  -0.037  0.00  0.00    -0.051 C 
ATOM     14  H6  <0> d           4.024  -0.870  -1.068  0.00  0.00     0.033 H 
ATOM     15  H7  <0> d           4.472  -0.100   0.473  0.00  0.00     0.033 H 
ATOM     16  H8  <0> d           3.605  -1.655   0.473  0.00  0.00     0.033 H 
ENDBRANCH   6  13
BRANCH   3  17
ATOM     17  N2  <0> d          -1.238   2.076   0.019  0.00  0.00    -0.397 N 
ATOM     18  H11 <0> d          -2.072   1.581   0.020  0.00  0.00     0.156 HD
ATOM     19  H12 <0> d          -1.249   3.046   0.025  0.00  0.00     0.156 HD
ENDBRANCH   3  17
BRANCH   4  20
ATOM     20  N1  <0> d          -1.200  -0.723   0.009  0.00  0.00    -0.397 N 
ATOM     21  H9  <0> d          -2.047  -0.251   0.019  0.00  0.00     0.156 HD
ATOM     22  H10 <0> d          -1.185  -1.692   0.004  0.00  0.00     0.156 HD
ENDBRANCH   4  20
TORSDOF 4
