REMARK  8 active torsions:
REMARK  status: ('A' for Active; 'I' for Inactive)
REMARK    1  A    between atoms: C1_1  and  C2_2 
REMARK    2  A    between atoms: C2_2  and  C3_3 
REMARK    3  A    between atoms: C2_2  and  C4_4 
REMARK    4  A    between atoms: C4_4  and  C5_5 
REMARK    5  A    between atoms: C5_5  and  C6_7 
REMARK    6  A    between atoms: C5_5  and  O1_12 
REMARK    7  A    between atoms: C6_7  and  C7_8 
REMARK    8  A    between atoms: C7_8  and  C9_10 
ROOT
ATOM      1  C9  <0> d           4.548   1.415  -2.936  0.00  0.00    -0.083 C 
ATOM      2  C10 <0> d           4.764   2.517  -3.276  0.00  0.00    -0.149 C 
ATOM      3  H15 <0> d           4.956   3.503  -3.581  0.00  0.00     0.166 H 
ENDROOT
BRANCH   1   4
ATOM      4  C7  <0> d           4.286   0.069  -2.521  0.00  0.00    -0.013 C 
ATOM      5  C8  <0> d           5.287  -0.715  -2.136  0.00  0.00    -0.107 C 
ATOM      6  H13 <0> d           6.299  -0.338  -2.137  0.00  0.00     0.068 H 
ATOM      7  H14 <0> d           5.089  -1.729  -1.823  0.00  0.00     0.068 H 
BRANCH   4   8
ATOM      8  C6  <0> d           2.874  -0.457  -2.520  0.00  0.00    -0.010 C 
ATOM      9  H11 <0> d           2.890  -1.542  -2.617  0.00  0.00     0.044 H 
ATOM     10  H12 <0> d           2.324  -0.025  -3.357  0.00  0.00     0.044 H 
BRANCH   8  11
ATOM     11  C5  <0> d           2.187  -0.073  -1.207  0.00  0.00     0.040 C 
ATOM     12  H1  <0> d           2.249   1.006  -1.067  0.00  0.00     0.083 H 
BRANCH  11  13
ATOM     13  C4  <0> d           0.718  -0.497  -1.257  0.00  0.00    -0.038 C 
ATOM     14  H9  <0> d           0.656  -1.585  -1.308  0.00  0.00     0.037 H 
ATOM     15  H10 <0> d           0.244  -0.064  -2.138  0.00  0.00     0.037 H 
BRANCH  13  16
ATOM     16  C2  <0> d           0.002  -0.004   0.002  0.00  0.00    -0.059 C 
ATOM     17  H5  <0> d           0.529  -0.365   0.885  0.00  0.00     0.039 H 
BRANCH  16  18
ATOM     18  C1  <0> d          -0.019   1.526   0.010  0.00  0.00    -0.073 C 
ATOM     19  H2  <0> d           1.004   1.903   0.003  0.00  0.00     0.028 H 
ATOM     20  H3  <0> d          -0.546   1.887  -0.873  0.00  0.00     0.028 H 
ATOM     21  H4  <0> d          -0.529   1.877   0.907  0.00  0.00     0.028 H 
ENDBRANCH  16  18
BRANCH  16  22
ATOM     22  C3  <0> d          -1.433  -0.534   0.013  0.00  0.00    -0.073 C 
ATOM     23  H6  <0> d          -1.960  -0.173  -0.870  0.00  0.00     0.028 H 
ATOM     24  H7  <0> d          -1.419  -1.623   0.007  0.00  0.00     0.028 H 
ATOM     25  H8  <0> d          -1.944  -0.182   0.910  0.00  0.00     0.028 H 
ENDBRANCH  16  22
ENDBRANCH  13  16
ENDBRANCH  11  13
BRANCH  11  26
ATOM     26  O1  <0> d           2.837  -0.733  -0.119  0.00  0.00    -0.395 OA
ATOM     27  H16 <0> d           2.821  -1.698  -0.178  0.00  0.00     0.210 HD
ENDBRANCH  11  26
ENDBRANCH   8  11
ENDBRANCH   4   8
ENDBRANCH   1   4
TORSDOF 8
