REMARK  8 active torsions:
REMARK  status: ('A' for Active; 'I' for Inactive)
REMARK    1  A    between atoms: C1_1  and  C2_2 
REMARK    2  A    between atoms: C2_2  and  C3_4 
REMARK    3  A    between atoms: C2_2  and  O2_10 
REMARK    4  A    between atoms: C3_4  and  O1_5 
REMARK    5  A    between atoms: O1_5  and  C4_6 
REMARK    6  A    between atoms: C4_6  and  C5_7 
REMARK    7  A    between atoms: C5_7  and  C6_8 
REMARK    8  A    between atoms: C5_7  and  C7_9 
ROOT
ATOM      1  C4  <0> d           2.776  -0.307  -2.471  0.00  0.00     0.022 C 
ATOM      2  H7  <0> d           2.912  -1.388  -2.459  0.00  0.00     0.074 H 
ATOM      3  H8  <0> d           2.243  -0.018  -3.377  0.00  0.00     0.074 H 
ENDROOT
BRANCH   1   4
ATOM      4  O1  <0> d           2.019   0.090  -1.326  0.00  0.00    -0.388 OA
BRANCH   4   5
ATOM      5  C3  <0> d           0.718  -0.497  -1.257  0.00  0.00     0.043 C 
ATOM      6  H5  <0> d           0.812  -1.583  -1.220  0.00  0.00     0.078 H 
ATOM      7  H6  <0> d           0.143  -0.212  -2.138  0.00  0.00     0.078 H 
BRANCH   5   8
ATOM      8  C2  <0> d           0.002  -0.004   0.002  0.00  0.00     0.052 C 
ATOM      9  H1  <0> d          -1.020  -0.381   0.010  0.00  0.00     0.085 H 
BRANCH   8  10
ATOM     10  C1  <0> d          -0.019   1.526   0.010  0.00  0.00    -0.051 C 
ATOM     11  H2  <0> d           1.004   1.903   0.003  0.00  0.00     0.031 H 
ATOM     12  H3  <0> d          -0.546   1.887  -0.873  0.00  0.00     0.031 H 
ATOM     13  H4  <0> d          -0.529   1.877   0.907  0.00  0.00     0.031 H 
ENDBRANCH   8  10
BRANCH   8  14
ATOM     14  O2  <0> d           0.693  -0.477   1.160  0.00  0.00    -0.394 OA
ATOM     15  H16 <0> d           0.294  -0.202   1.996  0.00  0.00     0.210 HD
ENDBRANCH   8  14
ENDBRANCH   5   8
ENDBRANCH   4   5
ENDBRANCH   1   4
BRANCH   1  16
ATOM     16  C5  <0> d           4.143   0.379  -2.442  0.00  0.00    -0.041 C 
ATOM     17  H9  <0> d           4.006   1.458  -2.364  0.00  0.00     0.042 H 
BRANCH  16  18
ATOM     18  C6  <0> d           4.940  -0.122  -1.236  0.00  0.00    -0.071 C 
ATOM     19  H10 <0> d           5.914   0.367  -1.215  0.00  0.00     0.028 H 
ATOM     20  H11 <0> d           4.397   0.110  -0.320  0.00  0.00     0.028 H 
ATOM     21  H12 <0> d           5.076  -1.201  -1.314  0.00  0.00     0.028 H 
ENDBRANCH  16  18
BRANCH  16  22
ATOM     22  C7  <0> d           4.905   0.053  -3.728  0.00  0.00    -0.071 C 
ATOM     23  H13 <0> d           4.337   0.411  -4.587  0.00  0.00     0.028 H 
ATOM     24  H14 <0> d           5.879   0.542  -3.707  0.00  0.00     0.028 H 
ATOM     25  H15 <0> d           5.042  -1.025  -3.806  0.00  0.00     0.028 H 
ENDBRANCH  16  22
ENDBRANCH   1  16
TORSDOF 8
