REMARK  5 active torsions:
REMARK  status: ('A' for Active; 'I' for Inactive)
REMARK    1  A    between atoms: C1_1  and  C2_2 
REMARK    2  A    between atoms: C2_2  and  C3_3 
REMARK    3  A    between atoms: C3_3  and  C4_5 
REMARK    4  A    between atoms: C3_3  and  O2_8 
REMARK       I    between atoms: C4_5  and  N1_7 
REMARK    5  A    between atoms: O2_8  and  C5_9 
ROOT
ATOM      1  C3  <0> d          -0.581   3.329   1.389  0.00  0.00     0.114 C 
ATOM      2  H1  <0> d           0.451   3.522   1.093  0.00  0.00     0.098 H 
ENDROOT
BRANCH   1   3
ATOM      3  C2  <0> d          -0.748   1.846   1.722  0.00  0.00    -0.036 C 
ATOM      4  H5  <0> d          -1.798   1.634   1.923  0.00  0.00     0.036 H 
ATOM      5  H6  <0> d          -0.153   1.602   2.602  0.00  0.00     0.036 H 
BRANCH   3   6
ATOM      6  C1  <0> d          -0.276   1.000   0.537  0.00  0.00    -0.074 C 
ATOM      7  H2  <0> d          -0.312  -0.055   0.807  0.00  0.00     0.027 H 
ATOM      8  H3  <0> d           0.748   1.274   0.281  0.00  0.00     0.027 H 
ATOM      9  H4  <0> d          -0.925   1.180  -0.319  0.00  0.00     0.027 H 
ENDBRANCH   3   6
ENDBRANCH   1   3
BRANCH   1  10
ATOM     10  C4  <0> d          -0.918   4.158   2.601  0.00  0.00     0.244 C 
ATOM     11  O1  <0> d          -1.877   4.901   2.580  0.00  0.00    -0.271 OA
ATOM     12  N1  <0> d          -0.156   4.073   3.709  0.00  0.00    -0.368 N 
ATOM     13  H7  <0> d           0.611   3.479   3.726  0.00  0.00     0.159 HD
ATOM     14  H8  <0> d          -0.373   4.606   4.490  0.00  0.00     0.159 HD
ENDBRANCH   1  10
BRANCH   1  15
ATOM     15  O2  <0> d          -1.457   3.678   0.315  0.00  0.00    -0.381 OA
BRANCH  15  16
ATOM     16  C5  <0> d          -0.807   3.787  -0.953  0.00  0.00     0.005 C 
ATOM     17  H9  <0> d          -1.519   4.147  -1.696  0.00  0.00     0.066 H 
ATOM     18  H10 <0> d           0.024   4.487  -0.876  0.00  0.00     0.066 H 
ATOM     19  H11 <0> d          -0.432   2.809  -1.254  0.00  0.00     0.066 H 
ENDBRANCH  15  16
ENDBRANCH   1  15
TORSDOF 5
