REMARK  2 active torsions:
REMARK  status: ('A' for Active; 'I' for Inactive)
REMARK    1  A    between atoms: C1_1  and  C2_2 
REMARK       I    between atoms: N1_8  and  C7_9 
REMARK    2  A    between atoms: C7_9  and  C8_11 
ROOT
ATOM      1  C2  <0> d           2.351   1.195   0.081  0.00  0.00     0.011 C 
ATOM      2  H1  <0> d           2.660   1.503   1.080  0.00  0.00     0.072 H 
ATOM      3  C3  <0> d           3.397   1.647  -0.943  0.00  0.00    -0.046 C 
ATOM      4  C4  <0> d           3.434   3.176  -0.987  0.00  0.00    -0.062 C 
ATOM      5  C5  <0> d           2.068   3.709  -1.425  0.00  0.00    -0.050 C 
ATOM      6  C6  <0> d           1.008   3.280  -0.411  0.00  0.00    -0.002 C 
ATOM      7  N1  <0> d           1.064   1.821  -0.250  0.00  0.00    -0.348 N 
ATOM      8  C7  <0> d          -0.044   1.070  -0.409  0.00  0.00     0.216 C 
ATOM      9  O1  <0> d           0.031  -0.139  -0.361  0.00  0.00    -0.274 OA
ATOM     10  H5  <0> d           4.377   1.267  -0.654  0.00  0.00     0.035 H 
ATOM     11  H6  <0> d           3.133   1.261  -1.927  0.00  0.00     0.035 H 
ATOM     12  H7  <0> d           3.674   3.562   0.004  0.00  0.00     0.033 H 
ATOM     13  H8  <0> d           4.195   3.501  -1.697  0.00  0.00     0.033 H 
ATOM     14  H9  <0> d           2.103   4.798  -1.478  0.00  0.00     0.035 H 
ATOM     15  H10 <0> d           1.817   3.305  -2.405  0.00  0.00     0.035 H 
ATOM     16  H11 <0> d           0.022   3.571  -0.772  0.00  0.00     0.064 H 
ATOM     17  H12 <0> d           1.206   3.761   0.546  0.00  0.00     0.064 H 
ENDROOT
BRANCH   1  18
ATOM     18  C1  <0> d           2.209  -0.328   0.031  0.00  0.00    -0.057 C 
ATOM     19  H2  <0> d           1.840  -0.626  -0.950  0.00  0.00     0.030 H 
ATOM     20  H3  <0> d           3.180  -0.789   0.210  0.00  0.00     0.030 H 
ATOM     21  H4  <0> d           1.506  -0.652   0.798  0.00  0.00     0.030 H 
ENDBRANCH   1  18
BRANCH   8  22
ATOM     22  C8  <0> d          -1.376   1.734  -0.651  0.00  0.00    -0.003 C 
ATOM     23  H13 <0> d          -1.823   2.010   0.303  0.00  0.00     0.040 H 
ATOM     24  H14 <0> d          -1.231   2.628  -1.257  0.00  0.00     0.040 H 
ATOM     25  H15 <0> d          -2.036   1.042  -1.176  0.00  0.00     0.040 H 
ENDBRANCH   8  22
TORSDOF 2
