REMARK  1 active torsions:
REMARK  status: ('A' for Active; 'I' for Inactive)
REMARK    1  A    between atoms: C4_4  and  N1_8 
ROOT
ATOM      1  C1  <0> d          -1.220   1.750   0.017  0.00  0.00    -0.044 A 
ATOM      2  C2  <0> d          -0.013   1.076   0.008  0.00  0.00    -0.057 A 
ATOM      3  C3  <0> d           1.175   1.782   0.000  0.00  0.00     0.060 A 
ATOM      4  C4  <0> d           1.156   3.172   0.008  0.00  0.00     0.050 A 
ATOM      5  C5  <0> d          -0.057   3.847   0.022  0.00  0.00    -0.019 A 
ATOM      6  C6  <0> d          -1.243   3.135   0.030  0.00  0.00     0.118 A 
ATOM      7  F1  <0> d          -2.424   3.790   0.044  0.00  0.00    -0.206 F 
ATOM      8 Cl1  <0> d           2.690   0.934  -0.019  0.00  0.00    -0.082 Cl
ATOM      9  H1  <0> d          -2.147   1.196   0.019  0.00  0.00     0.088 H 
ATOM     10  H2  <0> d           0.002  -0.004   0.002  0.00  0.00     0.086 H 
ATOM     11  H3  <0> d          -0.075   4.927   0.028  0.00  0.00     0.091 H 
ENDROOT
BRANCH   4  12
ATOM     12  N1  <0> d           2.356   3.889   0.000  0.00  0.00    -0.398 N 
ATOM     13  H4  <0> d           3.203   3.416  -0.009  0.00  0.00     0.156 HD
ATOM     14  H5  <0> d           2.342   4.859   0.005  0.00  0.00     0.156 HD
ENDBRANCH   4  12
TORSDOF 1
