REMARK  0 active torsions:
REMARK  status: ('A' for Active; 'I' for Inactive)
ROOT
ATOM      1  C1  <0> d           1.111   3.188   0.008  0.00  0.00    -0.031 A 
ATOM      2  C2  <0> d          -0.084   3.821   0.022  0.00  0.00    -0.017 A 
ATOM      3  N1  <0> d          -1.244   3.114   0.029  0.00  0.00    -0.334 N 
ATOM      4  H1  <0> d          -2.209   3.642   0.045  0.00  0.00     0.168 HD
ATOM      5  C3  <0> d          -1.232   1.768   0.017  0.00  0.00     0.248 A 
ATOM      6  O1  <0> d          -2.284   1.149   0.019  0.00  0.00    -0.268 OA
ATOM      7  C4  <0> d          -0.013   1.076   0.008  0.00  0.00     0.020 A 
ATOM      8  C5  <0> d           1.158   1.783   0.001  0.00  0.00     0.122 A 
ATOM      9  F1  <0> d           2.346   1.139  -0.013  0.00  0.00    -0.206 F 
ATOM     10  H2  <0> d           2.026   3.760   0.003  0.00  0.00     0.090 H 
ATOM     11  H3  <0> d          -0.116   4.901   0.028  0.00  0.00     0.111 H 
ATOM     12  H4  <0> d           0.002  -0.004   0.002  0.00  0.00     0.096 H 
ENDROOT
TORSDOF 0
