REMARK  0 active torsions:
REMARK  status: ('A' for Active; 'I' for Inactive)
ROOT
ATOM      1  C1  <0> d          -0.013   1.076   0.008  0.00  0.00    -0.078 A 
ATOM      2  C2  <0> d           1.178   1.780   0.000  0.00  0.00    -0.044 A 
ATOM      3  C3  <0> d           1.167   3.162   0.007  0.00  0.00     0.138 A 
ATOM      4  C4  <0> d          -0.052   3.848   0.022  0.00  0.00     0.104 A 
ATOM      5  C5  <0> d          -1.250   3.128   0.030  0.00  0.00     0.057 A 
ATOM      6  C6  <0> d          -1.222   1.747   0.017  0.00  0.00    -0.060 A 
ATOM      7 Cl1  <0> d          -2.770   3.967   0.048  0.00  0.00    -0.083 Cl
ATOM      8  C7  <0> d          -0.073   5.280   0.030  0.00  0.00     0.104 C 
ATOM      9  N1  <0> d          -0.089   6.415   0.036  0.00  0.00    -0.191 NA
ATOM     10  F1  <0> d           2.331   3.848   0.001  0.00  0.00    -0.204 F 
ATOM     11  H1  <0> d           0.002  -0.004   0.002  0.00  0.00     0.083 H 
ATOM     12  H2  <0> d           2.118   1.248  -0.011  0.00  0.00     0.088 H 
ATOM     13  H3  <0> d          -2.147   1.190   0.019  0.00  0.00     0.086 H 
ENDROOT
TORSDOF 0
