REMARK  2 active torsions:
REMARK  status: ('A' for Active; 'I' for Inactive)
REMARK    1  A    between atoms: C4_4  and  N2_8 
REMARK    2  A    between atoms: C6_6  and  N1_7 
ROOT
ATOM      1  C1  <0> d          -1.250   3.037   0.030  0.00  0.00    -0.056 A 
ATOM      2  C2  <0> d          -2.456   3.713   0.035  0.00  0.00    -0.058 A 
ATOM      3  C3  <0> d          -3.645   3.010   0.037  0.00  0.00     0.060 A 
ATOM      4  C4  <0> d          -3.632   1.619   0.029  0.00  0.00     0.049 A 
ATOM      5  C5  <0> d          -2.423   0.938   0.019  0.00  0.00    -0.031 A 
ATOM      6  C6  <0> d          -1.231   1.648   0.017  0.00  0.00     0.028 A 
ATOM      7 Cl1  <0> d          -5.157   3.863   0.049  0.00  0.00    -0.082 Cl
ATOM      8  H1  <0> d          -0.322   3.589   0.033  0.00  0.00     0.087 H 
ATOM      9  H2  <0> d          -2.468   4.793   0.042  0.00  0.00     0.086 H 
ATOM     10  H3  <0> d          -2.411  -0.142   0.013  0.00  0.00     0.090 H 
ENDROOT
BRANCH   4  11
ATOM     11  N2  <0> d          -4.835   0.908   0.030  0.00  0.00    -0.398 N 
ATOM     12  H6  <0> d          -4.825  -0.062   0.024  0.00  0.00     0.156 HD
ATOM     13  H7  <0> d          -5.680   1.385   0.037  0.00  0.00     0.156 HD
ENDBRANCH   4  11
BRANCH   6  14
ATOM     14  N1  <0> d          -0.011   0.966   0.007  0.00  0.00    -0.399 N 
ATOM     15  H4  <0> d           0.002  -0.004   0.002  0.00  0.00     0.156 HD
ATOM     16  H5  <0> d           0.822   1.462   0.002  0.00  0.00     0.156 HD
ENDBRANCH   6  14
TORSDOF 2
