REMARK  2 active torsions:
REMARK  status: ('A' for Active; 'I' for Inactive)
REMARK    1  A    between atoms: C1_1  and  C2_2 
REMARK    2  A    between atoms: N2_6  and  C5_7 
ROOT
ATOM      1  C5  <0> d           0.031  -0.353   2.491  0.00  0.00     0.079 C 
ATOM      2  C6  <0> d          -1.351  -0.107   2.935  0.00  0.00     0.079 C 
ATOM      3  N3  <0> d          -2.417   0.082   3.278  0.00  0.00    -0.196 NA
ATOM      4  H6  <0> d           0.486  -1.131   3.121  0.00  0.00     0.087 H 
ATOM      5  H7  <0> d           0.614   0.576   2.577  0.00  0.00     0.087 H 
ENDROOT
BRANCH   1   6
ATOM      6  N2  <0> d           0.023  -0.797   1.095  0.00  0.00    -0.331 N 
ATOM      7  C2  <0> d           0.002  -0.004   0.002  0.00  0.00     0.102 A 
ATOM      8  N1  <0> d          -0.003  -0.759  -1.062  0.00  0.00    -0.246 NA
ATOM      9  C3  <0> d           0.022  -2.047  -0.691  0.00  0.00     0.019 A 
ATOM     10  C4  <0> d           0.036  -2.093   0.655  0.00  0.00    -0.001 A 
ATOM     11  H4  <0> d           0.026  -2.899  -1.355  0.00  0.00     0.117 H 
ATOM     12  H5  <0> d           0.053  -2.981   1.269  0.00  0.00     0.113 H 
BRANCH   7  13
ATOM     13  C1  <0> d          -0.018   1.503   0.010  0.00  0.00    -0.021 C 
ATOM     14  H1  <0> d          -0.033   1.875  -1.025  0.00  0.00     0.037 H 
ATOM     15  H2  <0> d           0.880   1.879   0.522  0.00  0.00     0.037 H 
ATOM     16  H3  <0> d          -0.916   1.854   0.539  0.00  0.00     0.037 H 
ENDBRANCH   7  13
ENDBRANCH   1   6
TORSDOF 2
