REMARK  2 active torsions:
REMARK  status: ('A' for Active; 'I' for Inactive)
REMARK    1  A    between atoms: C1_1  and  C2_2 
REMARK    2  A    between atoms: C5_6  and  N3_8 
ROOT
ATOM      1  C2  <0> d          -2.889   2.491   1.817  0.00  0.00     0.058 A 
ATOM      2  C3  <0> d          -2.036   1.991   0.846  0.00  0.00    -0.008 A 
ATOM      3  C4  <0> d          -0.761   1.594   1.220  0.00  0.00     0.062 A 
ATOM      4  N1  <0> d          -0.401   1.702   2.487  0.00  0.00    -0.067 NA
ATOM      5  C5  <0> d          -1.240   2.183   3.392  0.00  0.00     0.720 A 
ATOM      6  N2  <0> d          -2.464   2.572   3.067  0.00  0.00    -0.068 NA
ATOM      7  C6  <0> d          -0.013   1.086   0.008  0.00  0.00    -0.023 C 
ATOM      8  C7  <0> d          -0.800   1.617  -1.209  0.00  0.00    -0.056 C 
ATOM      9  C8  <0> d          -2.226   1.779  -0.638  0.00  0.00    -0.037 C 
ATOM     10  H6  <0> d           0.002  -0.004   0.002  0.00  0.00     0.042 H 
ATOM     11  H7  <0> d           1.005   1.477   0.000  0.00  0.00     0.042 H 
ATOM     12  H8  <0> d          -0.404   2.578  -1.537  0.00  0.00     0.034 H 
ATOM     13  H9  <0> d          -0.789   0.894  -2.024  0.00  0.00     0.034 H 
ATOM     14  H10 <0> d          -2.717   2.644  -1.084  0.00  0.00     0.040 H 
ATOM     15  H11 <0> d          -2.810   0.876  -0.819  0.00  0.00     0.040 H 
ENDROOT
BRANCH   1  16
ATOM     16  C1  <0> d          -4.282   2.934   1.454  0.00  0.00    -0.034 C 
ATOM     17  H1  <0> d          -4.968   2.092   1.548  0.00  0.00     0.035 H 
ATOM     18  H2  <0> d          -4.595   3.734   2.126  0.00  0.00     0.035 H 
ATOM     19  H3  <0> d          -4.292   3.298   0.427  0.00  0.00     0.035 H 
ENDBRANCH   1  16
BRANCH   5  20
ATOM     20  N3  <0> d          -0.827   2.282   4.710  0.00  0.00    -0.231 N 
ATOM     21  H4  <0> d          -1.432   2.632   5.382  0.00  0.00     0.174 HD
ATOM     22  H5  <0> d           0.066   2.000   4.961  0.00  0.00     0.174 HD
ENDBRANCH   5  20
TORSDOF 2
