REMARK  4 active torsions:
REMARK  status: ('A' for Active; 'I' for Inactive)
REMARK    1  A    between atoms: C2_2  and  C3_3 
REMARK    2  A    between atoms: C3_3  and  N1_4 
REMARK    3  A    between atoms: N1_4  and  C4_5 
REMARK    4  A    between atoms: C4_5  and  C5_6 
ROOT
ATOM      1  C5  <0> d          -2.153   0.960  -1.077  0.00  0.00    -0.087 C 
ATOM      2  C6  <0> d          -3.236   0.508  -1.043  0.00  0.00    -0.152 C 
ATOM      3  H9  <0> d          -4.251   0.085  -1.012  0.00  0.00     0.166 H 
ENDROOT
BRANCH   1   4
ATOM      4  C4  <0> d          -0.795   1.527  -1.120  0.00  0.00     0.165 C 
ATOM      5  H7  <0> d          -0.853   2.623  -1.050  0.00  0.00     0.099 H 
ATOM      6  H8  <0> d          -0.310   1.245  -2.066  0.00  0.00     0.099 H 
BRANCH   4   7
ATOM      7  N1  <0> d          -0.012   1.005   0.008  0.00  0.00     0.097 N 
ATOM      8  H6  <0> d           0.031  -0.092  -0.070  0.00  0.00     0.317 HD
BRANCH   7   9
ATOM      9  C3  <0> d           1.353   1.550  -0.003  0.00  0.00     0.127 C 
ATOM     10  H4  <0> d           1.310   2.646   0.075  0.00  0.00     0.085 H 
ATOM     11  H5  <0> d           1.853   1.268  -0.941  0.00  0.00     0.085 H 
BRANCH   9  12
ATOM     12  C2  <0> d           2.125   0.993   1.166  0.00  0.00    -0.085 C 
ATOM     13  C1  <0> d           3.264   0.379   0.965  0.00  0.00    -0.123 C 
ATOM     14  H1  <0> d           3.828  -0.027   1.817  0.00  0.00     0.066 H 
ATOM     15  H2  <0> d           3.658   0.270  -0.057  0.00  0.00     0.066 H 
ATOM     16  H3  <0> d           1.731   1.102   2.187  0.00  0.00     0.078 H 
ENDBRANCH   9  12
ENDBRANCH   7   9
ENDBRANCH   4   7
ENDBRANCH   1   4
TORSDOF 4
