REMARK  5 active torsions:
REMARK  status: ('A' for Active; 'I' for Inactive)
REMARK    1  A    between atoms: C1_1  and  O1_2 
REMARK    2  A    between atoms: O1_2  and  C2_3 
REMARK    3  A    between atoms: C3_4  and  N3_11 
REMARK    4  A    between atoms: C5_8  and  O2_9 
REMARK    5  A    between atoms: O2_9  and  C6_10 
ROOT
ATOM      1  C2  <0> d           2.330   1.332  -0.013  0.00  0.00     0.167 A 
ATOM      2  C3  <0> d           2.305  -0.063  -0.020  0.00  0.00     0.160 A 
ATOM      3  N1  <0> d           1.129  -0.687  -0.012  0.00  0.00    -0.222 NA
ATOM      4  C4  <0> d           0.002  -0.004   0.002  0.00  0.00     0.091 A 
ATOM      5  N2  <0> d          -0.016   1.313   0.009  0.00  0.00    -0.215 NA
ATOM      6  C5  <0> d           1.115   2.013   0.002  0.00  0.00     0.203 A 
ATOM      7  H4  <0> d          -0.935  -0.541   0.008  0.00  0.00     0.146 H 
ENDROOT
BRANCH   1   8
ATOM      8  O1  <0> d           3.510   2.010  -0.020  0.00  0.00    -0.349 OA
BRANCH   8   9
ATOM      9  C1  <0> d           4.062   2.340  -1.297  0.00  0.00     0.011 C 
ATOM     10  H1  <0> d           3.360   2.968  -1.844  0.00  0.00     0.067 H 
ATOM     11  H2  <0> d           5.000   2.877  -1.160  0.00  0.00     0.067 H 
ATOM     12  H3  <0> d           4.246   1.425  -1.860  0.00  0.00     0.067 H 
ENDBRANCH   8   9
ENDBRANCH   1   8
BRANCH   6  13
ATOM     13  O2  <0> d           1.086   3.369   0.009  0.00  0.00    -0.337 OA
BRANCH  13  14
ATOM     14  C6  <0> d          -0.201   3.990   0.025  0.00  0.00     0.012 C 
ATOM     15  H5  <0> d          -0.081   5.073   0.029  0.00  0.00     0.067 H 
ATOM     16  H6  <0> d          -0.760   3.689  -0.862  0.00  0.00     0.067 H 
ATOM     17  H7  <0> d          -0.743   3.680   0.918  0.00  0.00     0.067 H 
ENDBRANCH  13  14
ENDBRANCH   6  13
BRANCH   2  18
ATOM     18  N3  <0> d           3.488  -0.790  -0.034  0.00  0.00    -0.382 N 
ATOM     19  H8  <0> d           3.462  -1.760  -0.038  0.00  0.00     0.157 HD
ATOM     20  H9  <0> d           4.341  -0.328  -0.040  0.00  0.00     0.157 HD
ENDBRANCH   2  18
TORSDOF 5
