REMARK  0 active torsions:
REMARK  status: ('A' for Active; 'I' for Inactive)
ROOT
ATOM      1  C1  <0> d          -0.017   1.380   0.010  0.00  0.00    -0.063 A 
ATOM      2  C2  <0> d           1.181   2.079   0.002  0.00  0.00    -0.045 A 
ATOM      3  C3  <0> d           2.363   1.355  -0.013  0.00  0.00     0.127 A 
ATOM      4  C4  <0> d           2.310  -0.049  -0.020  0.00  0.00     0.188 A 
ATOM      5  N1  <0> d           1.137  -0.673  -0.013  0.00  0.00    -0.239 NA
ATOM      6  C5  <0> d           0.002  -0.004   0.002  0.00  0.00     0.005 A 
ATOM      7  N2  <0> d           3.599  -0.481  -0.035  0.00  0.00    -0.177 NA
ATOM      8  C6  <0> d           4.393   0.558  -0.037  0.00  0.00     0.325 A 
ATOM      9  O1  <0> d           3.672   1.691  -0.024  0.00  0.00    -0.267 OA
ATOM     10  O2  <0> d           5.743   0.500  -0.049  0.00  0.00    -0.141 OA
ATOM     11  H1  <0> d          -0.957   1.911   0.026  0.00  0.00     0.085 H 
ATOM     12  H2  <0> d           1.192   3.159   0.007  0.00  0.00     0.088 H 
ATOM     13  H3  <0> d          -0.932  -0.546   0.008  0.00  0.00     0.114 H 
ENDROOT
TORSDOF 0
