REMARK  5 active torsions:
REMARK  status: ('A' for Active; 'I' for Inactive)
REMARK    1  A    between atoms: C1_1  and  C2_2 
REMARK    2  A    between atoms: C2_2  and  C3_3 
REMARK    3  A    between atoms: C3_3  and  C4_4 
REMARK    4  A    between atoms: C4_4  and  C5_5 
REMARK    5  A    between atoms: C6_7  and  N4_11 
ROOT
ATOM      1  C4  <0> d          -1.256   2.187   0.020  0.00  0.00    -0.006 C 
ATOM      2  H9  <0> d          -1.051   3.128  -0.490  0.00  0.00     0.044 H 
ATOM      3  H10 <0> d          -2.063   1.664  -0.493  0.00  0.00     0.044 H 
ENDROOT
BRANCH   1   4
ATOM      4  C3  <0> d          -1.668   2.469   1.466  0.00  0.00    -0.059 C 
ATOM      5  H7  <0> d          -1.873   1.527   1.976  0.00  0.00     0.033 H 
ATOM      6  H8  <0> d          -0.860   2.991   1.979  0.00  0.00     0.033 H 
BRANCH   4   7
ATOM      7  C2  <0> d          -2.926   3.339   1.477  0.00  0.00    -0.068 C 
ATOM      8  H5  <0> d          -2.721   4.280   0.967  0.00  0.00     0.032 H 
ATOM      9  H6  <0> d          -3.734   2.817   0.965  0.00  0.00     0.032 H 
BRANCH   7  10
ATOM     10  C1  <0> d          -3.338   3.621   2.923  0.00  0.00    -0.077 C 
ATOM     11  H2  <0> d          -3.543   2.680   3.433  0.00  0.00     0.027 H 
ATOM     12  H3  <0> d          -2.531   4.144   3.436  0.00  0.00     0.027 H 
ATOM     13  H4  <0> d          -4.235   4.241   2.931  0.00  0.00     0.027 H 
ENDBRANCH   7  10
ENDBRANCH   4   7
ENDBRANCH   1   4
BRANCH   1  14
ATOM     14  C5  <0> d          -0.016   1.329   0.009  0.00  0.00     0.165 A 
ATOM     15  N3  <0> d           1.212   1.774   0.000  0.00  0.00    -0.144 NA
ATOM     16  N2  <0> d           2.055   0.651  -0.014  0.00  0.00    -0.106 N 
ATOM     17  C6  <0> d           1.247  -0.431  -0.012  0.00  0.00     0.716 A 
ATOM     18  H1  <0> d           3.025   0.652  -0.024  0.00  0.00     0.208 HD
ATOM     19  N1  <0> d           0.002  -0.004   0.002  0.00  0.00    -0.046 NA
BRANCH  17  20
ATOM     20  N4  <0> d           1.655  -1.752  -0.023  0.00  0.00    -0.231 N 
ATOM     21  H11 <0> d           0.995  -2.463  -0.020  0.00  0.00     0.174 HD
ATOM     22  H12 <0> d           2.600  -1.968  -0.033  0.00  0.00     0.174 HD
ENDBRANCH  17  20
ENDBRANCH   1  14
TORSDOF 5
