REMARK  1 active torsions:
REMARK  status: ('A' for Active; 'I' for Inactive)
REMARK    1  A    between atoms: C4_5  and  O2_11 
ROOT
ATOM      1  C1  <0> d           3.712   2.675   0.051  0.00  0.00    -0.013 A 
ATOM      2  C2  <0> d           3.090   2.406  -1.191  0.00  0.00     0.177 A 
ATOM      3  O1  <0> d           3.651   2.679  -2.243  0.00  0.00    -0.288 OA
ATOM      4  C3  <0> d           1.812   1.816  -1.189  0.00  0.00     0.014 A 
ATOM      5  C4  <0> d           1.216   1.530  -0.001  0.00  0.00     0.146 A 
ATOM      6  N1  <0> d           1.835   1.810   1.184  0.00  0.00    -0.331 N 
ATOM      7  C5  <0> d           3.075   2.369   1.203  0.00  0.00     0.017 A 
ATOM      8  C6  <0> d           3.534   2.557   2.636  0.00  0.00    -0.025 C 
ATOM      9  C7  <0> d           2.597   1.648   3.460  0.00  0.00    -0.045 C 
ATOM     10  C8  <0> d           1.349   1.577   2.556  0.00  0.00     0.002 C 
ATOM     11  H1  <0> d           4.694   3.125   0.079  0.00  0.00     0.092 H 
ATOM     12  H2  <0> d           1.310   1.594  -2.119  0.00  0.00     0.096 H 
ATOM     13  H3  <0> d           4.571   2.239   2.749  0.00  0.00     0.042 H 
ATOM     14  H4  <0> d           3.421   3.598   2.939  0.00  0.00     0.042 H 
ATOM     15  H5  <0> d           3.035   0.659   3.598  0.00  0.00     0.035 H 
ATOM     16  H6  <0> d           2.357   2.103   4.421  0.00  0.00     0.035 H 
ATOM     17  H7  <0> d           0.885   0.594   2.632  0.00  0.00     0.065 H 
ATOM     18  H8  <0> d           0.636   2.352   2.837  0.00  0.00     0.065 H 
ENDROOT
BRANCH   5  19
ATOM     19  O2  <0> d          -0.011   0.963   0.007  0.00  0.00    -0.346 OA
ATOM     20  H9  <0> d           0.002  -0.004   0.002  0.00  0.00     0.219 HD
ENDBRANCH   5  19
TORSDOF 1
