REMARK  0 active torsions:
REMARK  status: ('A' for Active; 'I' for Inactive)
ROOT
ATOM      1  C1  <0> d          -0.019   1.540   0.011  0.00  0.00    -0.056 C 
ATOM      2  C2  <0> d           1.488   1.879  -0.002  0.00  0.00    -0.034 C 
ATOM      3  C3  <0> d           2.165   0.677   0.619  0.00  0.00     0.033 A 
ATOM      4  C4  <0> d           1.330  -0.382   0.621  0.00  0.00     0.025 A 
ATOM      5  N1  <0> d           1.758  -1.576   1.144  0.00  0.00    -0.312 N 
ATOM      6  H1  <0> d           1.159  -2.339   1.147  0.00  0.00     0.170 HD
ATOM      7  C5  <0> d           2.995  -1.701   1.653  0.00  0.00     0.327 A 
ATOM      8  O1  <0> d           3.350  -2.770   2.111  0.00  0.00    -0.247 OA
ATOM      9  N2  <0> d           3.848  -0.659   1.662  0.00  0.00    -0.275 N 
ATOM     10  H2  <0> d           4.738  -0.766   2.033  0.00  0.00     0.173 HD
ATOM     11  C6  <0> d           3.467   0.531   1.159  0.00  0.00     0.257 A 
ATOM     12  O2  <0> d           4.238   1.474   1.166  0.00  0.00    -0.267 OA
ATOM     13  C7  <0> d           0.002  -0.004   0.002  0.00  0.00    -0.026 C 
ATOM     14  H3  <0> d          -0.496   1.918   0.915  0.00  0.00     0.034 H 
ATOM     15  H4  <0> d          -0.513   1.928  -0.880  0.00  0.00     0.034 H 
ATOM     16  H5  <0> d           1.835   2.023  -1.025  0.00  0.00     0.040 H 
ATOM     17  H6  <0> d           1.680   2.772   0.593  0.00  0.00     0.040 H 
ATOM     18  H7  <0> d          -0.820  -0.397   0.600  0.00  0.00     0.042 H 
ATOM     19  H8  <0> d          -0.059  -0.378  -1.020  0.00  0.00     0.042 H 
ENDROOT
TORSDOF 0
