REMARK  2 active torsions:
REMARK  status: ('A' for Active; 'I' for Inactive)
REMARK    1  A    between atoms: C1_1  and  C2_2 
REMARK    2  A    between atoms: C6_7  and  C7_8 
ROOT
ATOM      1  C2  <0> d           1.172   1.794   0.001  0.00  0.00    -0.050 A 
ATOM      2  C3  <0> d          -0.013   1.076   0.008  0.00  0.00    -0.021 A 
ATOM      3  C4  <0> d          -1.216   1.761   0.017  0.00  0.00     0.210 A 
ATOM      4  N1  <0> d          -1.240   3.081   0.030  0.00  0.00    -0.232 NA
ATOM      5  C5  <0> d          -0.131   3.795   0.024  0.00  0.00     0.011 A 
ATOM      6  C6  <0> d           1.106   3.179   0.009  0.00  0.00    -0.038 A 
ATOM      7  F1  <0> d          -2.378   1.071   0.019  0.00  0.00    -0.184 F 
ATOM      8  H4  <0> d           0.002  -0.004   0.002  0.00  0.00     0.091 H 
ATOM      9  H5  <0> d          -0.190   4.873   0.030  0.00  0.00     0.115 H 
ENDROOT
BRANCH   1  10
ATOM     10  C1  <0> d           2.503   1.086  -0.016  0.00  0.00    -0.051 C 
ATOM     11  H1  <0> d           2.339  -0.002  -0.020  0.00  0.00     0.033 H 
ATOM     12  H2  <0> d           3.078   1.367   0.879  0.00  0.00     0.033 H 
ATOM     13  H3  <0> d           3.062   1.376  -0.917  0.00  0.00     0.033 H 
ENDBRANCH   1  10
BRANCH   6  14
ATOM     14  C7  <0> d           2.367   4.003   0.002  0.00  0.00    -0.049 C 
ATOM     15  H6  <0> d           2.107   5.072   0.010  0.00  0.00     0.033 H 
ATOM     16  H7  <0> d           2.950   3.774  -0.903  0.00  0.00     0.033 H 
ATOM     17  H8  <0> d           2.966   3.765   0.893  0.00  0.00     0.033 H 
ENDBRANCH   6  14
TORSDOF 2
