REMARK  3 active torsions:
REMARK  status: ('A' for Active; 'I' for Inactive)
REMARK    1  A    between atoms: C4_6  and  C5_8 
REMARK    2  A    between atoms: C5_8  and  C6_9 
REMARK    3  A    between atoms: C6_9  and  C7_10 
ROOT
ATOM      1  C1  <0> d           4.222   5.554   0.087  0.00  0.00    -0.038 C 
ATOM      2  C2  <0> d           4.189   6.825  -0.796  0.00  0.00     0.011 C 
ATOM      3  C3  <0> d           3.022   6.599  -1.731  0.00  0.00     0.217 C 
ATOM      4  O1  <0> d           2.822   7.217  -2.755  0.00  0.00    -0.274 OA
ATOM      5  N1  <0> d           2.239   5.612  -1.263  0.00  0.00    -0.356 N 
ATOM      6  C4  <0> d           2.755   5.077   0.003  0.00  0.00     0.013 C 
ATOM      7  H1  <0> d           2.182   5.472   0.841  0.00  0.00     0.072 H 
ATOM      8  H2  <0> d           4.495   5.798   1.114  0.00  0.00     0.036 H 
ATOM      9  H3  <0> d           4.900   4.809  -0.329  0.00  0.00     0.036 H 
ATOM     10  H4  <0> d           5.117   6.923  -1.360  0.00  0.00     0.047 H 
ATOM     11  H5  <0> d           4.020   7.710  -0.182  0.00  0.00     0.047 H 
ATOM     12  H6  <0> d           1.437   5.293  -1.704  0.00  0.00     0.162 HD
ENDROOT
BRANCH   6  13
ATOM     13  C5  <0> d           2.696   3.548  -0.005  0.00  0.00    -0.037 C 
ATOM     14  H7  <0> d           3.204   3.160   0.878  0.00  0.00     0.036 H 
ATOM     15  H8  <0> d           3.187   3.170  -0.901  0.00  0.00     0.036 H 
BRANCH  13  16
ATOM     16  C6  <0> d           1.235   3.094   0.007  0.00  0.00     0.018 C 
ATOM     17  H9  <0> d           0.727   3.482  -0.876  0.00  0.00     0.049 H 
ATOM     18  H10 <0> d           0.744   3.473   0.904  0.00  0.00     0.049 H 
BRANCH  16  19
ATOM     19  C7  <0> d           1.177   1.588  -0.001  0.00  0.00     0.172 C 
ATOM     20  O2  <0> d           2.199   0.944  -0.014  0.00  0.00    -0.648 OA
ATOM     21  O3  <0> d          -0.011   0.963   0.007  0.00  0.00    -0.648 OA
ENDBRANCH  16  19
ENDBRANCH  13  16
ENDBRANCH   6  13
TORSDOF 3
