REMARK  3 active torsions:
REMARK  status: ('A' for Active; 'I' for Inactive)
REMARK    1  A    between atoms: N1_3  and  C5_8 
REMARK    2  A    between atoms: C3_4  and  C4_6 
REMARK    3  A    between atoms: C4_6  and  O1_7 
ROOT
ATOM      1  C1  <0> d          -0.013   1.076   0.008  0.00  0.00     0.019 A 
ATOM      2  C2  <0> d           1.066   1.882   0.002  0.00  0.00     0.003 A 
ATOM      3  N1  <0> d           0.599   3.169   0.013  0.00  0.00    -0.285 N 
ATOM      4  C3  <0> d          -0.750   3.104   0.025  0.00  0.00     0.133 A 
ATOM      5  N2  <0> d          -1.108   1.849   0.017  0.00  0.00    -0.244 NA
ATOM      6  H1  <0> d           0.002  -0.004   0.002  0.00  0.00     0.117 H 
ATOM      7  H2  <0> d           2.101   1.573  -0.009  0.00  0.00     0.114 H 
ENDROOT
BRANCH   4   8
ATOM      8  C4  <0> d          -1.686   4.285   0.039  0.00  0.00     0.071 C 
ATOM      9  H3  <0> d          -2.604   4.014   0.560  0.00  0.00     0.086 H 
ATOM     10  H4  <0> d          -1.209   5.120   0.552  0.00  0.00     0.086 H 
BRANCH   8  11
ATOM     11  O1  <0> d          -1.994   4.665  -1.304  0.00  0.00    -0.393 OA
ATOM     12  H5  <0> d          -2.593   5.421  -1.371  0.00  0.00     0.209 HD
ENDBRANCH   8  11
ENDBRANCH   4   8
BRANCH   3  13
ATOM     13  C5  <0> d           1.411   4.388   0.011  0.00  0.00     0.283 C 
ATOM     14  F1  <0> d           2.614   4.147  -0.661  0.00  0.00    -0.191 F 
ATOM     15  F2  <0> d           0.712   5.413  -0.637  0.00  0.00    -0.191 F 
ATOM     16  H6  <0> d           1.622   4.685   1.038  0.00  0.00     0.183 H 
ENDBRANCH   3  13
TORSDOF 3
