REMARK  5 active torsions:
REMARK  status: ('A' for Active; 'I' for Inactive)
REMARK    1  A    between atoms: C1_1  and  C2_2 
REMARK    2  A    between atoms: C3_5  and  N3_7 
REMARK    3  A    between atoms: N3_7  and  C4_8 
REMARK    4  A    between atoms: C4_8  and  C5_9 
REMARK    5  A    between atoms: C4_8  and  C6_10 
ROOT
ATOM      1  N3  <0> d           0.060  -3.977   0.736  0.00  0.00    -0.364 N 
ATOM      2  H4  <0> d           0.066  -4.217   1.676  0.00  0.00     0.162 HD
ENDROOT
BRANCH   1   3
ATOM      3  C3  <0> d           0.040  -2.642   0.360  0.00  0.00     0.190 A 
ATOM      4  N2  <0> d           0.028  -2.095  -0.848  0.00  0.00    -0.124 NA
ATOM      5  N1  <0> d           0.010  -0.845  -1.012  0.00  0.00    -0.145 NA
ATOM      6  C2  <0> d           0.002  -0.004   0.002  0.00  0.00     0.097 A 
ATOM      7  S1  <0> d           0.031  -1.162   1.367  0.00  0.00    -0.034 SA
BRANCH   6   8
ATOM      8  C1  <0> d          -0.018   1.503   0.010  0.00  0.00    -0.028 C 
ATOM      9  H1  <0> d           1.004   1.880   0.003  0.00  0.00     0.036 H 
ATOM     10  H2  <0> d          -0.545   1.864  -0.873  0.00  0.00     0.036 H 
ATOM     11  H3  <0> d          -0.529   1.854   0.907  0.00  0.00     0.036 H 
ENDBRANCH   6   8
ENDBRANCH   1   3
BRANCH   1  12
ATOM     12  C4  <0> d           0.070  -5.026  -0.287  0.00  0.00     0.004 C 
ATOM     13  H5  <0> d          -0.527  -4.706  -1.141  0.00  0.00     0.071 H 
BRANCH  12  14
ATOM     14  C5  <0> d           1.509  -5.284  -0.739  0.00  0.00    -0.058 C 
ATOM     15  H6  <0> d           2.106  -5.603   0.115  0.00  0.00     0.030 H 
ATOM     16  H7  <0> d           1.517  -6.064  -1.500  0.00  0.00     0.030 H 
ATOM     17  H8  <0> d           1.930  -4.367  -1.153  0.00  0.00     0.030 H 
ENDBRANCH  12  14
BRANCH  12  18
ATOM     18  C6  <0> d          -0.520  -6.312   0.294  0.00  0.00    -0.058 C 
ATOM     19  H9  <0> d          -1.545  -6.128   0.616  0.00  0.00     0.030 H 
ATOM     20  H10 <0> d          -0.512  -7.092  -0.467  0.00  0.00     0.030 H 
ATOM     21  H11 <0> d           0.077  -6.632   1.149  0.00  0.00     0.030 H 
ENDBRANCH  12  18
ENDBRANCH   1  12
TORSDOF 5
