REMARK  5 active torsions:
REMARK  status: ('A' for Active; 'I' for Inactive)
REMARK    1  A    between atoms: C1_1  and  C2_2 
REMARK    2  A    between atoms: C2_2  and  O2_4 
REMARK    3  A    between atoms: O2_4  and  C3_5 
REMARK    4  A    between atoms: C3_5  and  C4_6 
REMARK    5  A    between atoms: N2_9  and  C7_11 
ROOT
ATOM      1  C4  <0> d          -2.442  -2.712   0.011  0.00  0.00     0.002 A 
ATOM      2  C5  <0> d          -3.189  -3.037   1.147  0.00  0.00     0.031 A 
ATOM      3  N1  <0> d          -4.337  -3.528   0.755  0.00  0.00    -0.185 NA
ATOM      4  N2  <0> d          -4.356  -3.531  -0.646  0.00  0.00    -0.285 N 
ATOM      5  C6  <0> d          -3.183  -3.020  -1.078  0.00  0.00     0.007 A 
ATOM      6  H6  <0> d          -2.874  -2.906   2.172  0.00  0.00     0.118 H 
ATOM      7  H7  <0> d          -2.889  -2.884  -2.108  0.00  0.00     0.115 H 
ENDROOT
BRANCH   1   8
ATOM      8  C3  <0> d          -1.057  -2.117   0.001  0.00  0.00     0.055 C 
ATOM      9  H4  <0> d          -0.529  -2.441  -0.896  0.00  0.00     0.082 H 
ATOM     10  H5  <0> d          -0.512  -2.450   0.884  0.00  0.00     0.082 H 
BRANCH   8  11
ATOM     11  O2  <0> d          -1.151  -0.691   0.009  0.00  0.00    -0.317 OA
BRANCH  11  12
ATOM     12  C2  <0> d           0.002  -0.004   0.002  0.00  0.00     0.255 C 
ATOM     13  O1  <0> d           1.056  -0.594  -0.011  0.00  0.00    -0.266 OA
BRANCH  12  14
ATOM     14  C1  <0> d          -0.018   1.503   0.010  0.00  0.00     0.004 C 
ATOM     15  H1  <0> d           1.004   1.880   0.003  0.00  0.00     0.041 H 
ATOM     16  H2  <0> d          -0.545   1.864  -0.873  0.00  0.00     0.041 H 
ATOM     17  H3  <0> d          -0.529   1.854   0.907  0.00  0.00     0.041 H 
ENDBRANCH  12  14
ENDBRANCH  11  12
ENDBRANCH   8  11
ENDBRANCH   1   8
BRANCH   4  18
ATOM     18  C7  <0> d          -5.455  -4.000  -1.492  0.00  0.00     0.002 C 
ATOM     19  H8  <0> d          -6.133  -3.172  -1.699  0.00  0.00     0.059 H 
ATOM     20  H9  <0> d          -5.054  -4.383  -2.430  0.00  0.00     0.059 H 
ATOM     21  H10 <0> d          -5.997  -4.793  -0.977  0.00  0.00     0.059 H 
ENDBRANCH   4  18
TORSDOF 5
