REMARK  1 active torsions:
REMARK  status: ('A' for Active; 'I' for Inactive)
REMARK    1  A    between atoms: C4_4  and  C7_7 
ROOT
ATOM      1  C1  <0> d           2.396   0.034  -0.021  0.00  0.00    -0.083 A 
ATOM      2  C2  <0> d           1.208  -0.674  -0.013  0.00  0.00    -0.082 A 
ATOM      3  C3  <0> d           0.002  -0.004   0.002  0.00  0.00    -0.070 A 
ATOM      4  C4  <0> d          -0.017   1.392   0.010  0.00  0.00    -0.002 A 
ATOM      5  C5  <0> d           1.186   2.100   0.002  0.00  0.00    -0.070 A 
ATOM      6  C6  <0> d           2.385   1.417  -0.013  0.00  0.00    -0.082 A 
ATOM      7  H1  <0> d           3.337  -0.496  -0.033  0.00  0.00     0.083 H 
ATOM      8  H2  <0> d           1.224  -1.754  -0.019  0.00  0.00     0.083 H 
ATOM      9  H3  <0> d          -0.925  -0.558   0.008  0.00  0.00     0.084 H 
ATOM     10  H4  <0> d           1.178   3.180   0.007  0.00  0.00     0.084 H 
ATOM     11  H5  <0> d           3.316   1.964  -0.019  0.00  0.00     0.083 H 
ENDROOT
BRANCH   4  12
ATOM     12  C7  <0> d          -1.305   2.116   0.020  0.00  0.00     0.085 A 
ATOM     13  O1  <0> d          -2.528   1.554   0.023  0.00  0.00    -0.322 OA
ATOM     14  C10 <0> d          -3.463   2.518   0.033  0.00  0.00     0.019 A 
ATOM     15  C9  <0> d          -2.847   3.716   0.037  0.00  0.00    -0.059 A 
ATOM     16  H8  <0> d          -4.532   2.359   0.038  0.00  0.00     0.123 H 
ATOM     17  C8  <0> d          -1.460   3.467   0.033  0.00  0.00    -0.048 A 
ATOM     18  H7  <0> d          -3.326   4.684   0.045  0.00  0.00     0.086 H 
ATOM     19  H6  <0> d          -0.673   4.206   0.039  0.00  0.00     0.087 H 
ENDBRANCH   4  12
TORSDOF 1
