REMARK  3 active torsions:
REMARK  status: ('A' for Active; 'I' for Inactive)
REMARK    1  A    between atoms: C1_1  and  N1_2 
REMARK    2  A    between atoms: C3_4  and  N4_8 
REMARK    3  A    between atoms: C4_5  and  N3_7 
ROOT
ATOM      1  N1  <0> d           0.002  -0.004   0.002  0.00  0.00    -0.281 N 
ATOM      2  C2  <0> d           0.008  -0.798  -1.103  0.00  0.00     0.027 A 
ATOM      3  C3  <0> d           0.028  -2.087  -0.683  0.00  0.00     0.090 A 
ATOM      4  C4  <0> d           0.035  -2.081   0.725  0.00  0.00     0.169 A 
ATOM      5  N2  <0> d           0.025  -0.834   1.130  0.00  0.00    -0.153 NA
ATOM      6  H4  <0> d          -0.002  -0.462  -2.129  0.00  0.00     0.117 H 
ENDROOT
BRANCH   1   7
ATOM      7  C1  <0> d          -0.018   1.461   0.010  0.00  0.00     0.002 C 
ATOM      8  H1  <0> d           1.005   1.838   0.002  0.00  0.00     0.059 H 
ATOM      9  H2  <0> d          -0.545   1.822  -0.873  0.00  0.00     0.059 H 
ATOM     10  H3  <0> d          -0.528   1.812   0.907  0.00  0.00     0.059 H 
ENDBRANCH   1   7
BRANCH   4  11
ATOM     11  N3  <0> d           0.054  -3.213   1.551  0.00  0.00    -0.381 N 
ATOM     12  H5  <0> d           0.065  -4.100   1.158  0.00  0.00     0.157 HD
ATOM     13  H6  <0> d           0.058  -3.110   2.515  0.00  0.00     0.157 HD
ENDBRANCH   4  11
BRANCH   3  14
ATOM     14  N4  <0> d           0.040  -3.229  -1.509  0.00  0.00    -0.395 N 
ATOM     15  H7  <0> d           0.034  -3.130  -2.474  0.00  0.00     0.156 HD
ATOM     16  H8  <0> d           0.054  -4.114  -1.112  0.00  0.00     0.156 HD
ENDBRANCH   3  14
TORSDOF 3
