REMARK  0 active torsions:
REMARK  status: ('A' for Active; 'I' for Inactive)
ROOT
ATOM      1  C1  <0> d          -0.755   1.594  -1.231  0.00  0.00    -0.061 C 
ATOM      2  C2  <0> d          -0.013   1.086   0.008  0.00  0.00    -0.040 C 
ATOM      3  C3  <0> d          -0.731   1.580   1.266  0.00  0.00     0.113 C 
ATOM      4  N1  <0> d          -2.115   1.088   1.265  0.00  0.00     0.101 N 
ATOM      5  C4  <0> d          -2.861   1.601   0.109  0.00  0.00     0.214 C 
ATOM      6  H1  <0> d          -2.870   2.700   0.165  0.00  0.00     0.112 H 
ATOM      7  C5  <0> d          -2.206   1.108  -1.183  0.00  0.00    -0.024 C 
ATOM      8  C6  <0> d          -4.251   1.120   0.170  0.00  0.00     0.095 C 
ATOM      9  N2  <0> d          -5.323   0.748   0.216  0.00  0.00    -0.195 NA
ATOM     10  H2  <0> d          -0.268   1.206  -2.138  0.00  0.00     0.033 H 
ATOM     11  H3  <0> d          -0.737   2.693  -1.248  0.00  0.00     0.033 H 
ATOM     12  H4  <0> d           0.003  -0.014   0.001  0.00  0.00     0.035 H 
ATOM     13  H5  <0> d           1.019   1.467  -0.001  0.00  0.00     0.035 H 
ATOM     14  H6  <0> d          -0.208   1.204   2.158  0.00  0.00     0.079 H 
ATOM     15  H7  <0> d          -0.733   2.680   1.279  0.00  0.00     0.079 H 
ATOM     16  H8  <0> d          -2.113  -0.011   1.222  0.00  0.00     0.317 HD
ATOM     17  H9  <0> d          -2.755   1.505  -2.049  0.00  0.00     0.037 H 
ATOM     18  H10 <0> d          -2.225   0.008  -1.209  0.00  0.00     0.037 H 
ENDROOT
TORSDOF 0
