REMARK  0 active torsions:
REMARK  status: ('A' for Active; 'I' for Inactive)
ROOT
ATOM      1  C1  <0> d           2.159   0.038  -1.258  0.00  0.00    -0.065 C 
ATOM      2  C2  <0> d           0.726  -0.497  -1.253  0.00  0.00    -0.060 C 
ATOM      3  C3  <0> d           0.002  -0.004   0.002  0.00  0.00    -0.013 C 
ATOM      4  C4  <0> d          -0.019   1.525   0.010  0.00  0.00     0.164 C 
ATOM      5  C5  <0> d           1.413   2.063  -0.000  0.00  0.00    -0.013 C 
ATOM      6  C6  <0> d           2.134   1.567  -1.255  0.00  0.00    -0.060 C 
ATOM      7  O1  <0> d          -0.695   1.988   1.191  0.00  0.00    -0.353 OA
ATOM      8  C7  <0> d          -1.410   3.174   0.766  0.00  0.00     0.043 C 
ATOM      9  C8  <0> d          -1.837   2.786  -0.671  0.00  0.00     0.043 C 
ATOM     10  O2  <0> d          -0.721   2.004  -1.143  0.00  0.00    -0.353 OA
ATOM     11  H1  <0> d           2.683  -0.318  -0.371  0.00  0.00     0.033 H 
ATOM     12  H2  <0> d           2.676  -0.316  -2.150  0.00  0.00     0.033 H 
ATOM     13  H3  <0> d           0.744  -1.587  -1.257  0.00  0.00     0.033 H 
ATOM     14  H4  <0> d           0.201  -0.139  -2.139  0.00  0.00     0.033 H 
ATOM     15  H5  <0> d           0.524  -0.365   0.888  0.00  0.00     0.041 H 
ATOM     16  H6  <0> d          -1.020  -0.381   0.004  0.00  0.00     0.041 H 
ATOM     17  H7  <0> d           1.392   3.153  -0.000  0.00  0.00     0.041 H 
ATOM     18  H8  <0> d           1.941   1.710   0.886  0.00  0.00     0.041 H 
ATOM     19  H9  <0> d           3.156   1.948  -1.262  0.00  0.00     0.033 H 
ATOM     20  H10 <0> d           1.609   1.924  -2.141  0.00  0.00     0.033 H 
ATOM     21  H11 <0> d          -0.753   4.043   0.757  0.00  0.00     0.077 H 
ATOM     22  H12 <0> d          -2.281   3.351   1.398  0.00  0.00     0.077 H 
ATOM     23  H13 <0> d          -1.972   3.676  -1.286  0.00  0.00     0.077 H 
ATOM     24  H14 <0> d          -2.748   2.187  -0.654  0.00  0.00     0.077 H 
ENDROOT
TORSDOF 0
