REMARK  3 active torsions:
REMARK  status: ('A' for Active; 'I' for Inactive)
REMARK    1  A    between atoms: C3_3  and  N2_11 
REMARK    2  A    between atoms: C5_5  and  N1_7 
REMARK    3  A    between atoms: N1_7  and  C7_8 
ROOT
ATOM      1  C1  <0> d          -0.017   1.377   0.010  0.00  0.00    -0.079 A 
ATOM      2  C2  <0> d           1.169   2.087   0.002  0.00  0.00    -0.058 A 
ATOM      3  C3  <0> d           2.384   1.414  -0.013  0.00  0.00     0.027 A 
ATOM      4  C4  <0> d           2.406   0.026  -0.021  0.00  0.00    -0.032 A 
ATOM      5  C5  <0> d           1.214  -0.684  -0.013  0.00  0.00     0.030 A 
ATOM      6  C6  <0> d           0.002  -0.004   0.002  0.00  0.00    -0.057 A 
ATOM      7  H1  <0> d          -0.960   1.903   0.026  0.00  0.00     0.083 H 
ATOM      8  H2  <0> d           1.151   3.167   0.008  0.00  0.00     0.086 H 
ATOM      9  H3  <0> d           3.349  -0.500  -0.033  0.00  0.00     0.090 H 
ATOM     10  H4  <0> d          -0.926  -0.556   0.008  0.00  0.00     0.086 H 
ENDROOT
BRANCH   5  11
ATOM     11  N1  <0> d           1.232  -2.081  -0.021  0.00  0.00    -0.385 N 
ATOM     12  H5  <0> d           2.079  -2.555  -0.032  0.00  0.00     0.160 HD
BRANCH  11  13
ATOM     13  C7  <0> d          -0.027  -2.830  -0.013  0.00  0.00     0.010 A 
ATOM     14  C9  <0> d          -0.011  -4.245  -0.595  0.00  0.00    -0.044 A 
ATOM     15  C8  <0> d          -0.123  -4.040   0.917  0.00  0.00    -0.044 A 
ATOM     16  H9  <0> d          -0.902  -4.581  -1.125  0.00  0.00     0.036 H 
ATOM     17  H10 <0> d           0.936  -4.618  -0.984  0.00  0.00     0.036 H 
ATOM     18  H7  <0> d           0.751  -4.280   1.523  0.00  0.00     0.036 H 
ATOM     19  H8  <0> d          -1.088  -4.242   1.382  0.00  0.00     0.036 H 
ATOM     20  H6  <0> d          -0.928  -2.235  -0.161  0.00  0.00     0.072 H 
ENDBRANCH  11  13
ENDBRANCH   5  11
BRANCH   3  21
ATOM     21  N2  <0> d           3.582   2.132  -0.021  0.00  0.00    -0.399 N 
ATOM     22  H11 <0> d           3.565   3.102  -0.016  0.00  0.00     0.156 HD
ATOM     23  H12 <0> d           4.429   1.661  -0.032  0.00  0.00     0.156 HD
ENDBRANCH   3  21
TORSDOF 3
