REMARK  0 active torsions:
REMARK  status: ('A' for Active; 'I' for Inactive)
ROOT
ATOM      1  C1  <0> d          -0.017   1.392   0.010  0.00  0.00    -0.046 A 
ATOM      2  C2  <0> d           1.207   2.063   0.002  0.00  0.00     0.063 A 
ATOM      3  C3  <0> d           2.394   1.318  -0.014  0.00  0.00     0.025 A 
ATOM      4  N1  <0> d           2.377   0.006  -0.021  0.00  0.00    -0.240 NA
ATOM      5  C4  <0> d           1.240  -0.681  -0.014  0.00  0.00     0.155 A 
ATOM      6  C5  <0> d           0.002  -0.004   0.002  0.00  0.00     0.032 A 
ATOM      7  C6  <0> d          -1.032  -1.034   0.006  0.00  0.00     0.035 A 
ATOM      8  N2  <0> d          -0.435  -2.191  -0.005  0.00  0.00    -0.185 NA
ATOM      9  N3  <0> d           0.952  -2.017  -0.018  0.00  0.00    -0.261 N 
ATOM     10  H1  <0> d           1.607  -2.732  -0.029  0.00  0.00     0.191 HD
ATOM     11  C7  <0> d           1.249   3.494   0.008  0.00  0.00     0.101 C 
ATOM     12  N4  <0> d           1.283   4.630   0.014  0.00  0.00    -0.191 NA
ATOM     13  H2  <0> d          -0.950   1.936   0.026  0.00  0.00     0.087 H 
ATOM     14  H3  <0> d           3.343   1.835  -0.020  0.00  0.00     0.117 H 
ATOM     15  H4  <0> d          -2.099  -0.867   0.018  0.00  0.00     0.118 H 
ENDROOT
TORSDOF 0
