REMARK  2 active torsions:
REMARK  status: ('A' for Active; 'I' for Inactive)
REMARK    1  A    between atoms: C1_1  and  C2_2 
REMARK    2  A    between atoms: C3_3  and  C5_10 
ROOT
ATOM      1  C2  <0> d           0.002  -0.004   0.002  0.00  0.00     0.043 A 
ATOM      2  C3  <0> d          -1.082  -0.816   0.003  0.00  0.00     0.136 A 
ATOM      3  N1  <0> d          -0.611  -2.134  -0.007  0.00  0.00    -0.301 N 
ATOM      4  H1  <0> d          -1.155  -2.937  -0.009  0.00  0.00     0.171 HD
ATOM      5  C4  <0> d           0.736  -2.084  -0.013  0.00  0.00     0.325 A 
ATOM      6  O1  <0> d           1.482  -3.046  -0.021  0.00  0.00    -0.247 OA
ATOM      7  N2  <0> d           1.118  -0.794  -0.013  0.00  0.00    -0.310 N 
ATOM      8  H2  <0> d           2.034  -0.476  -0.021  0.00  0.00     0.170 HD
ENDROOT
BRANCH   1   9
ATOM      9  C1  <0> d          -0.018   1.503   0.010  0.00  0.00    -0.035 C 
ATOM     10  H3  <0> d           1.004   1.880   0.003  0.00  0.00     0.035 H 
ATOM     11  H4  <0> d          -0.545   1.864  -0.873  0.00  0.00     0.035 H 
ATOM     12  H5  <0> d          -0.529   1.854   0.907  0.00  0.00     0.035 H 
ENDBRANCH   1   9
BRANCH   2  13
ATOM     13  C5  <0> d          -2.482  -0.396   0.012  0.00  0.00     0.229 C 
ATOM     14  O2  <0> d          -2.763   0.797   0.020  0.00  0.00    -0.643 OA
ATOM     15  O3  <0> d          -3.374  -1.235   0.011  0.00  0.00    -0.643 OA
ENDBRANCH   2  13
TORSDOF 2
