REMARK  2 active torsions:
REMARK  status: ('A' for Active; 'I' for Inactive)
REMARK    1  A    between atoms: C1_1  and  C2_2 
REMARK    2  A    between atoms: C8_11  and  O1_12 
ROOT
ATOM      1  C2  <0> d           1.550   4.620   0.012  0.00  0.00    -0.033 A 
ATOM      2  C3  <0> d           2.896   4.380  -0.002  0.00  0.00    -0.075 A 
ATOM      3  C4  <0> d           3.387   3.080  -0.014  0.00  0.00    -0.081 A 
ATOM      4  C5  <0> d           2.533   2.015  -0.011  0.00  0.00    -0.067 A 
ATOM      5  C6  <0> d           1.153   2.234   0.003  0.00  0.00     0.047 A 
ATOM      6  C7  <0> d           0.656   3.552   0.015  0.00  0.00     0.070 A 
ATOM      7  N1  <0> d          -0.711   3.460   0.027  0.00  0.00    -0.274 N 
ATOM      8  H1  <0> d          -1.344   4.234   0.041  0.00  0.00     0.189 HD
ATOM      9  N2  <0> d          -1.081   2.111   0.018  0.00  0.00    -0.148 NA
ATOM     10  C8  <0> d          -0.016   1.355   0.009  0.00  0.00     0.194 A 
ATOM     11  H5  <0> d           3.585   5.211  -0.004  0.00  0.00     0.084 H 
ATOM     12  H6  <0> d           4.453   2.912  -0.025  0.00  0.00     0.083 H 
ATOM     13  H7  <0> d           2.923   1.007  -0.020  0.00  0.00     0.085 H 
ENDROOT
BRANCH   1  14
ATOM     14  C1  <0> d           1.036   6.036   0.025  0.00  0.00    -0.049 C 
ATOM     15  H2  <0> d           0.902   6.383  -0.999  0.00  0.00     0.033 H 
ATOM     16  H3  <0> d           0.080   6.070   0.548  0.00  0.00     0.033 H 
ATOM     17  H4  <0> d           1.753   6.678   0.536  0.00  0.00     0.033 H 
ENDBRANCH   1  14
BRANCH  10  18
ATOM     18  O1  <0> d           0.002  -0.004   0.002  0.00  0.00    -0.343 OA
ATOM     19  H8  <0> d          -0.936  -0.350   0.009  0.00  0.00     0.219 HD
ENDBRANCH  10  18
TORSDOF 2
