REMARK  1 active torsions:
REMARK  status: ('A' for Active; 'I' for Inactive)
REMARK    1  A    between atoms: C7_9  and  N3_11 
ROOT
ATOM      1  C1  <0> d          -1.252   5.807   0.046  0.00  0.00    -0.080 A 
ATOM      2  C2  <0> d          -0.052   5.160   0.031  0.00  0.00    -0.069 A 
ATOM      3  C3  <0> d          -0.017   3.758   0.022  0.00  0.00     0.013 A 
ATOM      4  C4  <0> d           1.194   3.042   0.007  0.00  0.00     0.016 A 
ATOM      5  N1  <0> d           1.142   1.726   0.000  0.00  0.00    -0.253 NA
ATOM      6  C5  <0> d          -0.013   1.076   0.008  0.00  0.00     0.087 A 
ATOM      7  N2  <0> d          -1.173   1.688   0.017  0.00  0.00    -0.239 NA
ATOM      8  C6  <0> d          -1.230   3.024   0.030  0.00  0.00     0.096 A 
ATOM      9  C7  <0> d          -2.455   3.719   0.046  0.00  0.00     0.055 A 
ATOM     10  C8  <0> d          -2.450   5.098   0.054  0.00  0.00    -0.055 A 
ATOM     11  H1  <0> d          -1.273   6.887   0.052  0.00  0.00     0.083 H 
ATOM     12  H2  <0> d           0.868   5.726   0.025  0.00  0.00     0.085 H 
ATOM     13  H3  <0> d           2.143   3.559   0.001  0.00  0.00     0.116 H 
ATOM     14  H4  <0> d           0.002  -0.004   0.002  0.00  0.00     0.146 H 
ATOM     15  H5  <0> d          -3.386   5.635   0.066  0.00  0.00     0.087 H 
ENDROOT
BRANCH   9  16
ATOM     16  N3  <0> d          -3.662   3.020   0.053  0.00  0.00    -0.397 N 
ATOM     17  H6  <0> d          -4.615   3.568   0.066  0.00  0.00     0.156 HD
ATOM     18  H7  <0> d          -3.660   1.920   0.047  0.00  0.00     0.156 HD
ENDBRANCH   9  16
TORSDOF 1
