REMARK  4 active torsions:
REMARK  status: ('A' for Active; 'I' for Inactive)
REMARK    1  A    between atoms: C1_1  and  C2_2 
REMARK    2  A    between atoms: C2_2  and  C3_3 
REMARK       I    between atoms: N1_8  and  C7_9 
REMARK    3  A    between atoms: C7_9  and  O2_11 
REMARK    4  A    between atoms: O2_11  and  C8_12 
ROOT
ATOM      1  C3  <0> d           0.734  -0.608  -1.196  0.00  0.00     0.016 C 
ATOM      2  H1  <0> d           0.347  -0.175  -2.119  0.00  0.00     0.072 H 
ATOM      3  C4  <0> d           0.541  -2.139  -1.213  0.00  0.00    -0.044 C 
ATOM      4  C5  <0> d           1.926  -2.658  -1.681  0.00  0.00    -0.048 C 
ATOM      5  C6  <0> d           2.883  -1.643  -1.008  0.00  0.00     0.000 C 
ATOM      6  N1  <0> d           2.176  -0.347  -1.087  0.00  0.00    -0.323 N 
ATOM      7  C7  <0> d           2.755   0.869  -1.065  0.00  0.00     0.362 C 
ATOM      8  O1  <0> d           2.066   1.870  -1.047  0.00  0.00    -0.238 OA
ATOM      9  H7  <0> d           0.307  -2.509  -0.215  0.00  0.00     0.036 H 
ATOM     10  H8  <0> d          -0.237  -2.422  -1.923  0.00  0.00     0.036 H 
ATOM     11  H9  <0> d           2.108  -3.669  -1.315  0.00  0.00     0.035 H 
ATOM     12  H10 <0> d           2.013  -2.616  -2.767  0.00  0.00     0.035 H 
ATOM     13  H11 <0> d           3.057  -1.918   0.033  0.00  0.00     0.064 H 
ATOM     14  H12 <0> d           3.826  -1.593  -1.551  0.00  0.00     0.064 H 
ENDROOT
BRANCH   1  15
ATOM     15  C2  <0> d           0.004  -0.005   0.006  0.00  0.00    -0.049 C 
ATOM     16  H5  <0> d           0.254   1.053   0.089  0.00  0.00     0.035 H 
ATOM     17  H6  <0> d           0.310  -0.523   0.914  0.00  0.00     0.035 H 
BRANCH  15  18
ATOM     18  C1  <0> d          -1.506  -0.159  -0.185  0.00  0.00    -0.075 C 
ATOM     19  H2  <0> d          -1.826   0.429  -1.045  0.00  0.00     0.027 H 
ATOM     20  H3  <0> d          -1.746  -1.209  -0.353  0.00  0.00     0.027 H 
ATOM     21  H4  <0> d          -2.023   0.194   0.708  0.00  0.00     0.027 H 
ENDBRANCH  15  18
ENDBRANCH   1  15
BRANCH   7  22
ATOM     22  O2  <0> d           4.098   0.976  -1.061  0.00  0.00    -0.309 OA
BRANCH  22  23
ATOM     23  C8  <0> d           4.643   2.297  -1.036  0.00  0.00     0.015 C 
ATOM     24  H13 <0> d           4.308   2.845  -1.916  0.00  0.00     0.067 H 
ATOM     25  H14 <0> d           4.306   2.812  -0.137  0.00  0.00     0.067 H 
ATOM     26  H15 <0> d           5.732   2.240  -1.035  0.00  0.00     0.067 H 
ENDBRANCH  22  23
ENDBRANCH   7  22
TORSDOF 4
