REMARK  1 active torsions:
REMARK  status: ('A' for Active; 'I' for Inactive)
REMARK    1  A    between atoms: C1_1  and  C2_2 
ROOT
ATOM      1  C2  <0> d          -0.718   1.572   1.248  0.00  0.00    -0.043 A 
ATOM      2  C3  <0> d          -0.005   1.809   2.413  0.00  0.00    -0.053 A 
ATOM      3  C4  <0> d          -0.697   2.256   3.530  0.00  0.00     0.052 A 
ATOM      4  C5  <0> d          -2.064   2.448   3.444  0.00  0.00     0.023 A 
ATOM      5  N1  <0> d          -2.708   2.212   2.318  0.00  0.00    -0.271 NA
ATOM      6  C6  <0> d          -2.082   1.792   1.236  0.00  0.00     0.008 A 
ATOM      7 Cl1  <0> d           0.143   2.570   5.017  0.00  0.00    -0.083 Cl
ATOM      8  H4  <0> d           1.062   1.650   2.451  0.00  0.00     0.087 H 
ATOM      9  H5  <0> d          -2.610   2.795   4.309  0.00  0.00     0.117 H 
ATOM     10  H6  <0> d          -2.643   1.614   0.330  0.00  0.00     0.115 H 
ENDROOT
BRANCH   1  11
ATOM     11  C1  <0> d          -0.013   1.086   0.008  0.00  0.00    -0.050 C 
ATOM     12  H1  <0> d           0.002  -0.004   0.002  0.00  0.00     0.033 H 
ATOM     13  H2  <0> d           1.010   1.463   0.000  0.00  0.00     0.033 H 
ATOM     14  H3  <0> d          -0.540   1.447  -0.875  0.00  0.00     0.033 H 
ENDBRANCH   1  11
TORSDOF 1
