REMARK  2 active torsions:
REMARK  status: ('A' for Active; 'I' for Inactive)
REMARK    1  A    between atoms: C1_1  and  C2_2 
REMARK       I    between atoms: C2_2  and  N1_4 
REMARK    2  A    between atoms: N1_4  and  C3_5 
ROOT
ATOM      1  C2  <0> d           1.178  -0.662  -0.012  0.00  0.00     0.219 C 
ATOM      2  O1  <0> d           2.220  -0.041  -0.018  0.00  0.00    -0.274 OA
ATOM      3  N1  <0> d           0.002  -0.004   0.002  0.00  0.00    -0.305 N 
ATOM      4  H4  <0> d          -0.831  -0.500   0.007  0.00  0.00     0.171 HD
ENDROOT
BRANCH   3   5
ATOM      5  C3  <0> d          -0.017   1.387   0.010  0.00  0.00     0.195 A 
ATOM      6  S1  <0> d          -1.372   2.477   0.021  0.00  0.00    -0.041 SA
ATOM      7  C4  <0> d          -0.416   3.989   0.028  0.00  0.00     0.065 A 
ATOM      8  N3  <0> d           0.804   3.491   0.013  0.00  0.00    -0.153 NA
ATOM      9  H5  <0> d          -0.746   5.017   0.036  0.00  0.00     0.129 H 
ATOM     10  N2  <0> d           0.991   2.243   0.005  0.00  0.00    -0.124 NA
ENDBRANCH   3   5
BRANCH   1  11
ATOM     11  C1  <0> d           1.199  -2.169  -0.021  0.00  0.00    -0.002 C 
ATOM     12  H1  <0> d           0.176  -2.546  -0.013  0.00  0.00     0.040 H 
ATOM     13  H2  <0> d           1.709  -2.520  -0.917  0.00  0.00     0.040 H 
ATOM     14  H3  <0> d           1.726  -2.530   0.863  0.00  0.00     0.040 H 
ENDBRANCH   1  11
TORSDOF 2
