REMARK  2 active torsions:
REMARK  status: ('A' for Active; 'I' for Inactive)
REMARK    1  A    between atoms: C1_1  and  C2_2 
REMARK    2  A    between atoms: C4_4  and  O1_12 
ROOT
ATOM      1  C2  <0> d          -0.742   1.585  -1.213  0.00  0.00     0.032 C 
ATOM      2  C3  <0> d          -0.877   3.067  -1.413  0.00  0.00     0.015 C 
ATOM      3  C4  <0> d          -2.188   3.414  -2.128  0.00  0.00     0.145 C 
ATOM      4  H1  <0> d          -2.124   4.418  -2.547  0.00  0.00     0.122 H 
ATOM      5  N1  <0> d          -2.388   2.442  -3.202  0.00  0.00    -0.066 N 
ATOM      6  C5  <0> d          -1.912   1.168  -3.135  0.00  0.00     0.748 A 
ATOM      7  N2  <0> d          -2.247   0.560  -4.243  0.00  0.00    -0.052 NA
ATOM      8  C6  <0> d          -2.929   1.399  -5.026  0.00  0.00     0.125 A 
ATOM      9  N3  <0> d          -3.039   2.561  -4.425  0.00  0.00    -0.147 NA
ATOM     10  N4  <0> d          -1.219   0.718  -2.047  0.00  0.00    -0.070 NA
ATOM     11  H5  <0> d          -0.859   3.562  -0.441  0.00  0.00     0.048 H 
ATOM     12  H6  <0> d          -3.328   1.159  -6.000  0.00  0.00     0.150 H 
ATOM     13  H7  <0> d          -0.039   3.425  -2.010  0.00  0.00     0.048 H 
ENDROOT
BRANCH   1  14
ATOM     14  C1  <0> d          -0.013   1.086   0.008  0.00  0.00    -0.038 C 
ATOM     15  H2  <0> d           0.002  -0.004   0.002  0.00  0.00     0.035 H 
ATOM     16  H3  <0> d           1.010   1.463   0.000  0.00  0.00     0.035 H 
ATOM     17  H4  <0> d          -0.523   1.437   0.905  0.00  0.00     0.035 H 
ENDBRANCH   1  14
BRANCH   3  18
ATOM     18  O1  <0> d          -3.276   3.344  -1.204  0.00  0.00    -0.374 OA
ATOM     19  H8  <0> d          -4.136   3.553  -1.592  0.00  0.00     0.212 HD
ENDBRANCH   3  18
TORSDOF 2
