REMARK  0 active torsions:
REMARK  status: ('A' for Active; 'I' for Inactive)
ROOT
ATOM      1  C1  <0> d          -1.238   1.756   0.018  0.00  0.00    -0.050 A 
ATOM      2  C2  <0> d          -0.013   1.076   0.008  0.00  0.00     0.022 A 
ATOM      3  N1  <0> d           1.117   1.744   0.001  0.00  0.00    -0.075 NA
ATOM      4  C3  <0> d           1.125   3.084   0.007  0.00  0.00     0.732 A 
ATOM      5  N2  <0> d           2.115   3.965   0.003  0.00  0.00    -0.073 NA
ATOM      6  C4  <0> d           1.607   5.200   0.014  0.00  0.00     0.037 A 
ATOM      7  C5  <0> d           0.260   5.112   0.026  0.00  0.00     0.019 A 
ATOM      8  N3  <0> d          -0.056   3.781   0.022  0.00  0.00    -0.164 N 
ATOM      9  C6  <0> d          -1.245   3.112   0.029  0.00  0.00     0.003 A 
ATOM     10  H1  <0> d          -2.168   1.206   0.019  0.00  0.00     0.087 H 
ATOM     11  H2  <0> d           0.002  -0.004   0.002  0.00  0.00     0.115 H 
ATOM     12  H3  <0> d           2.179   6.117   0.014  0.00  0.00     0.117 H 
ATOM     13  H4  <0> d          -0.437   5.938   0.037  0.00  0.00     0.115 H 
ATOM     14  H5  <0> d          -2.179   3.655   0.041  0.00  0.00     0.113 H 
ENDROOT
TORSDOF 0
