REMARK  1 active torsions:
REMARK  status: ('A' for Active; 'I' for Inactive)
REMARK    1  A    between atoms: C2_2  and  N1_9 
ROOT
ATOM      1  C1  <0> d          -0.017   1.385   0.010  0.00  0.00    -0.020 A 
ATOM      2  C2  <0> d           0.002  -0.004   0.002  0.00  0.00     0.030 A 
ATOM      3  C3  <0> d           1.215  -0.680  -0.013  0.00  0.00    -0.037 A 
ATOM      4  C4  <0> d           2.401   0.031  -0.021  0.00  0.00     0.039 A 
ATOM      5  C5  <0> d           2.381   1.414  -0.013  0.00  0.00    -0.025 A 
ATOM      6  C6  <0> d           1.172   2.091   0.002  0.00  0.00     0.120 A 
ATOM      7  F1  <0> d           1.155   3.442   0.009  0.00  0.00    -0.206 F 
ATOM      8 Cl1  <0> d           3.918  -0.814  -0.040  0.00  0.00    -0.084 Cl
ATOM      9  H1  <0> d          -0.959   1.913   0.017  0.00  0.00     0.091 H 
ATOM     10  H2  <0> d           1.232  -1.760  -0.019  0.00  0.00     0.089 H 
ATOM     11  H3  <0> d           3.308   1.967  -0.018  0.00  0.00     0.090 H 
ENDROOT
BRANCH   2  12
ATOM     12  N1  <0> d          -1.197  -0.720   0.010  0.00  0.00    -0.399 N 
ATOM     13  H4  <0> d          -2.044  -0.247   0.021  0.00  0.00     0.156 HD
ATOM     14  H5  <0> d          -1.183  -1.690   0.005  0.00  0.00     0.156 HD
ENDBRANCH   2  12
TORSDOF 1
