REMARK  7 active torsions:
REMARK  status: ('A' for Active; 'I' for Inactive)
REMARK    1  A    between atoms: C1_1  and  C2_2 
REMARK    2  A    between atoms: C2_2  and  C3_3 
REMARK    3  A    between atoms: C3_3  and  C4_4 
REMARK    4  A    between atoms: C4_4  and  C5_5 
REMARK    5  A    between atoms: C4_4  and  C6_6 
REMARK    6  A    between atoms: C4_4  and  O2_9 
REMARK    7  A    between atoms: C6_6  and  C7_7 
ROOT
ATOM      1  C4  <0> d           0.001  -0.006  -0.017  0.00  0.00     0.064 C 
ENDROOT
BRANCH   1   2
ATOM      2  C3  <0> d           0.632  -0.606  -1.275  0.00  0.00    -0.036 C 
ATOM      3  H6  <0> d           0.655  -1.692  -1.188  0.00  0.00     0.037 H 
ATOM      4  H7  <0> d           0.043  -0.323  -2.148  0.00  0.00     0.037 H 
BRANCH   2   5
ATOM      5  C2  <0> d           2.059  -0.077  -1.431  0.00  0.00    -0.066 C 
ATOM      6  H4  <0> d           2.037   1.009  -1.518  0.00  0.00     0.032 H 
ATOM      7  H5  <0> d           2.649  -0.359  -0.558  0.00  0.00     0.032 H 
BRANCH   5   8
ATOM      8  C1  <0> d           2.691  -0.677  -2.689  0.00  0.00    -0.076 C 
ATOM      9  H1  <0> d           3.708  -0.300  -2.800  0.00  0.00     0.027 H 
ATOM     10  H2  <0> d           2.714  -1.763  -2.601  0.00  0.00     0.027 H 
ATOM     11  H3  <0> d           2.102  -0.395  -3.561  0.00  0.00     0.027 H 
ENDBRANCH   5   8
ENDBRANCH   2   5
ENDBRANCH   1   2
BRANCH   1  12
ATOM     12  C5  <0> d          -0.031   1.519  -0.140  0.00  0.00    -0.047 C 
ATOM     13  H8  <0> d           0.989   1.905  -0.140  0.00  0.00     0.031 H 
ATOM     14  H9  <0> d          -0.525   1.799  -1.071  0.00  0.00     0.031 H 
ATOM     15  H10 <0> d          -0.579   1.940   0.703  0.00  0.00     0.031 H 
ENDBRANCH   1  12
BRANCH   1  16
ATOM     16  C6  <0> d          -1.427  -0.534   0.139  0.00  0.00     0.044 C 
ATOM     17  H11 <0> d          -1.875  -0.110   1.037  0.00  0.00     0.053 H 
ATOM     18  H12 <0> d          -2.017  -0.248  -0.732  0.00  0.00     0.053 H 
BRANCH  16  19
ATOM     19  C7  <0> d          -1.396  -2.037   0.254  0.00  0.00     0.175 C 
ATOM     20  O1  <0> d          -0.338  -2.616   0.320  0.00  0.00    -0.648 OA
ATOM     21  O3  <0> d          -2.544  -2.731   0.282  0.00  0.00    -0.648 OA
ENDBRANCH  16  19
ENDBRANCH   1  16
BRANCH   1  22
ATOM     22  O2  <0> d           0.773  -0.376   1.127  0.00  0.00    -0.390 OA
ATOM     23  H13 <0> d           0.836  -1.330   1.267  0.00  0.00     0.210 HD
ENDBRANCH   1  22
TORSDOF 7
