REMARK  1 active torsions:
REMARK  status: ('A' for Active; 'I' for Inactive)
REMARK    1  A    between atoms: C1_1  and  C2_2 
ROOT
ATOM      1  C2  <0> d           2.565   3.819  -0.037  0.00  0.00    -0.022 C 
ATOM      2  H1  <0> d           2.756   4.107  -1.082  0.00  0.00     0.048 H 
ATOM      3  C3  <0> d           3.672   2.846   0.427  0.00  0.00    -0.012 C 
ATOM      4  S1  <0> d           2.870   1.245   0.001  0.00  0.00    -0.129 SA
ATOM      5  C4  <0> d           1.174   1.784   0.000  0.00  0.00     0.007 A 
ATOM      6  C5  <0> d           1.201   3.176   0.000  0.00  0.00    -0.037 A 
ATOM      7  C6  <0> d          -0.030   3.836   0.025  0.00  0.00    -0.075 A 
ATOM      8  C7  <0> d          -1.214   3.134   0.036  0.00  0.00    -0.082 A 
ATOM      9  C8  <0> d          -1.219   1.751   0.017  0.00  0.00    -0.082 A 
ATOM     10  C9  <0> d          -0.013   1.076   0.008  0.00  0.00    -0.066 A 
ATOM     11  H5  <0> d           4.597   3.049  -0.133  0.00  0.00     0.050 H 
ATOM     12  H6  <0> d           3.856   2.985   1.502  0.00  0.00     0.050 H 
ATOM     13  H7  <0> d          -0.053   4.916   0.037  0.00  0.00     0.084 H 
ATOM     14  H8  <0> d          -2.152   3.670   0.054  0.00  0.00     0.083 H 
ATOM     15  H9  <0> d          -2.151   1.207   0.015  0.00  0.00     0.083 H 
ATOM     16  H10 <0> d           0.002  -0.004   0.002  0.00  0.00     0.085 H 
ENDROOT
BRANCH   1  17
ATOM     17  C1  <0> d           2.564   5.045   0.878  0.00  0.00    -0.068 C 
ATOM     18  H2  <0> d           3.556   5.520   0.856  0.00  0.00     0.028 H 
ATOM     19  H3  <0> d           2.329   4.735   1.907  0.00  0.00     0.028 H 
ATOM     20  H4  <0> d           1.807   5.763   0.529  0.00  0.00     0.028 H 
ENDBRANCH   1  17
TORSDOF 1
