REMARK  9 active torsions:
REMARK  status: ('A' for Active; 'I' for Inactive)
REMARK    1  A    between atoms: C1_1  and  C2_2 
REMARK    2  A    between atoms: C2_2  and  C3_3 
REMARK    3  A    between atoms: C2_2  and  C4_4 
REMARK    4  A    between atoms: C4_4  and  C5_5 
REMARK    5  A    between atoms: C5_5  and  C6_6 
REMARK    6  A    between atoms: C5_5  and  O1_10 
REMARK    7  A    between atoms: C6_6  and  C7_7 
REMARK    8  A    between atoms: C7_7  and  C8_8 
REMARK    9  A    between atoms: C7_7  and  C9_9 
ROOT
ATOM      1  C5  <0> d          -0.066   1.044   0.003  0.00  0.00     0.036 C 
ATOM      2  H10 <0> d           0.068  -0.037  -0.036  0.00  0.00     0.082 H 
ENDROOT
BRANCH   1   3
ATOM      3  C4  <0> d          -0.826   1.509  -1.242  0.00  0.00    -0.038 C 
ATOM      4  H8  <0> d          -1.833   1.093  -1.229  0.00  0.00     0.037 H 
ATOM      5  H9  <0> d          -0.882   2.597  -1.247  0.00  0.00     0.037 H 
BRANCH   3   6
ATOM      6  C2  <0> d          -0.092   1.029  -2.496  0.00  0.00    -0.059 C 
ATOM      7  H4  <0> d           0.942   1.372  -2.465  0.00  0.00     0.039 H 
BRANCH   6   8
ATOM      8  C1  <0> d          -0.122  -0.499  -2.551  0.00  0.00    -0.073 C 
ATOM      9  H1  <0> d          -1.156  -0.842  -2.582  0.00  0.00     0.028 H 
ATOM     10  H2  <0> d           0.401  -0.841  -3.444  0.00  0.00     0.028 H 
ATOM     11  H3  <0> d           0.369  -0.904  -1.666  0.00  0.00     0.028 H 
ENDBRANCH   6   8
BRANCH   6  12
ATOM     12  C3  <0> d          -0.781   1.598  -3.738  0.00  0.00    -0.073 C 
ATOM     13  H5  <0> d          -0.760   2.687  -3.699  0.00  0.00     0.028 H 
ATOM     14  H6  <0> d          -0.258   1.256  -4.631  0.00  0.00     0.028 H 
ATOM     15  H7  <0> d          -1.815   1.256  -3.769  0.00  0.00     0.028 H 
ENDBRANCH   6  12
ENDBRANCH   3   6
ENDBRANCH   1   3
BRANCH   1  16
ATOM     16  C6  <0> d          -0.863   1.415   1.255  0.00  0.00    -0.038 C 
ATOM     17  H11 <0> d          -0.945   2.499   1.325  0.00  0.00     0.037 H 
ATOM     18  H12 <0> d          -1.860   0.978   1.194  0.00  0.00     0.037 H 
BRANCH  16  19
ATOM     19  C7  <0> d          -0.145   0.876   2.494  0.00  0.00    -0.059 C 
ATOM     20  H13 <0> d           0.885   1.231   2.500  0.00  0.00     0.039 H 
BRANCH  19  21
ATOM     21  C8  <0> d          -0.862   1.369   3.753  0.00  0.00    -0.073 C 
ATOM     22  H14 <0> d          -0.799   2.457   3.804  0.00  0.00     0.028 H 
ATOM     23  H15 <0> d          -1.908   1.067   3.718  0.00  0.00     0.028 H 
ATOM     24  H16 <0> d          -0.388   0.936   4.634  0.00  0.00     0.028 H 
ENDBRANCH  19  21
BRANCH  19  25
ATOM     25  C9  <0> d          -0.159  -0.654   2.466  0.00  0.00    -0.073 C 
ATOM     26  H17 <0> d           0.351  -1.005   1.570  0.00  0.00     0.028 H 
ATOM     27  H18 <0> d           0.352  -1.037   3.349  0.00  0.00     0.028 H 
ATOM     28  H19 <0> d          -1.189  -1.008   2.461  0.00  0.00     0.028 H 
ENDBRANCH  19  25
ENDBRANCH  16  19
ENDBRANCH   1  16
BRANCH   1  29
ATOM     29  O1  <0> d           1.212   1.681   0.046  0.00  0.00    -0.396 OA
ATOM     30  H20 <0> d           1.170   2.647   0.081  0.00  0.00     0.210 HD
ENDBRANCH   1  29
TORSDOF 9
