REMARK  0 active torsions:
REMARK  status: ('A' for Active; 'I' for Inactive)
ROOT
ATOM      1  C1  <0> d          -2.949   1.310   2.375  0.00  0.00    -0.070 A 
ATOM      2  C2  <0> d          -4.283   1.047   2.362  0.00  0.00    -0.017 A 
ATOM      3  C3  <0> d          -4.904   0.737   1.139  0.00  0.00     0.245 A 
ATOM      4  O1  <0> d          -6.101   0.500   1.103  0.00  0.00    -0.268 OA
ATOM      5  N1  <0> d          -4.175   0.701   0.012  0.00  0.00    -0.327 N 
ATOM      6  H1  <0> d          -4.657   0.461  -0.947  0.00  0.00     0.169 HD
ATOM      7  C4  <0> d          -2.833   0.958   0.020  0.00  0.00     0.018 A 
ATOM      8  C5  <0> d          -2.211   1.267   1.175  0.00  0.00    -0.035 A 
ATOM      9  C6  <0> d          -0.740   1.584   1.255  0.00  0.00    -0.039 C 
ATOM     10  C7  <0> d          -0.013   1.086   0.008  0.00  0.00    -0.061 C 
ATOM     11  C8  <0> d          -0.766   1.600  -1.225  0.00  0.00    -0.060 C 
ATOM     12  C9  <0> d          -2.110   0.878  -1.300  0.00  0.00    -0.026 C 
ATOM     13  H2  <0> d          -2.455   1.552   3.305  0.00  0.00     0.084 H 
ATOM     14  H3  <0> d          -4.857   1.075   3.276  0.00  0.00     0.092 H 
ATOM     15  H4  <0> d          -0.603   2.673   1.335  0.00  0.00     0.040 H 
ATOM     16  H5  <0> d          -0.306   1.094   2.139  0.00  0.00     0.040 H 
ATOM     17  H6  <0> d           1.018   1.469   0.007  0.00  0.00     0.033 H 
ATOM     18  H7  <0> d           0.005  -0.014   0.009  0.00  0.00     0.033 H 
ATOM     19  H8  <0> d          -0.926   2.684  -1.131  0.00  0.00     0.033 H 
ATOM     20  H9  <0> d          -0.175   1.393  -2.129  0.00  0.00     0.033 H 
ATOM     21  H10 <0> d          -1.932  -0.177  -1.557  0.00  0.00     0.042 H 
ATOM     22  H11 <0> d          -2.722   1.348  -2.083  0.00  0.00     0.042 H 
ENDROOT
TORSDOF 0
