REMARK  3 active torsions:
REMARK  status: ('A' for Active; 'I' for Inactive)
REMARK    1  A    between atoms: C1_1  and  C2_2 
REMARK    2  A    between atoms: C2_2  and  O1_3 
REMARK    3  A    between atoms: O1_3  and  C3_4 
REMARK       I    between atoms: C3_4  and  N1_6 
ROOT
ATOM      1  C3  <0> d          -0.016   1.342   0.009  0.00  0.00     0.362 C 
ATOM      2  O2  <0> d           1.028   1.964   0.003  0.00  0.00    -0.238 OA
ATOM      3  N1  <0> d          -1.192   2.000   0.019  0.00  0.00    -0.328 N 
ATOM      4  C4  <0> d          -2.523   1.376   0.015  0.00  0.00    -0.000 C 
ATOM      5  C5  <0> d          -3.564   2.515   0.004  0.00  0.00    -0.049 C 
ATOM      6  C6  <0> d          -2.762   3.709  -0.578  0.00  0.00    -0.049 C 
ATOM      7  C7  <0> d          -1.357   3.465   0.027  0.00  0.00    -0.000 C 
ATOM      8  H6  <0> d          -2.640   0.756  -0.874  0.00  0.00     0.064 H 
ATOM      9  H7  <0> d          -2.651   0.769   0.912  0.00  0.00     0.064 H 
ATOM     10  H8  <0> d          -3.909   2.737   1.014  0.00  0.00     0.035 H 
ATOM     11  H9  <0> d          -4.403   2.262  -0.644  0.00  0.00     0.035 H 
ATOM     12  H10 <0> d          -3.174   4.660  -0.237  0.00  0.00     0.035 H 
ATOM     13  H11 <0> d          -2.732   3.666  -1.666  0.00  0.00     0.035 H 
ATOM     14  H12 <0> d          -1.312   3.846   1.048  0.00  0.00     0.064 H 
ATOM     15  H13 <0> d          -0.592   3.937  -0.589  0.00  0.00     0.064 H 
ENDROOT
BRANCH   1  16
ATOM     16  O1  <0> d           0.002  -0.004   0.002  0.00  0.00    -0.304 OA
BRANCH  16  17
ATOM     17  C2  <0> d           1.305  -0.646  -0.014  0.00  0.00     0.027 C 
ATOM     18  H4  <0> d           1.849  -0.340  -0.907  0.00  0.00     0.074 H 
ATOM     19  H5  <0> d           1.866  -0.350   0.872  0.00  0.00     0.074 H 
BRANCH  17  20
ATOM     20  C1  <0> d           1.125  -2.165  -0.020  0.00  0.00    -0.056 C 
ATOM     21  H1  <0> d           2.103  -2.647  -0.032  0.00  0.00     0.030 H 
ATOM     22  H2  <0> d           0.580  -2.470   0.873  0.00  0.00     0.030 H 
ATOM     23  H3  <0> d           0.563  -2.461  -0.907  0.00  0.00     0.030 H 
ENDBRANCH  17  20
ENDBRANCH  16  17
ENDBRANCH   1  16
TORSDOF 3
