REMARK  3 active torsions:
REMARK  status: ('A' for Active; 'I' for Inactive)
REMARK    1  A    between atoms: C1_1  and  O1_2 
REMARK    2  A    between atoms: O1_2  and  C2_3 
REMARK    3  A    between atoms: C2_3  and  C3_5 
ROOT
ATOM      1  C3  <0> d          -1.244  -2.135   0.003  0.00  0.00     0.122 C 
ATOM      2  H1  <0> d          -0.689  -2.523  -0.852  0.00  0.00     0.099 H 
ATOM      3  C4  <0> d          -0.647  -2.690   1.310  0.00  0.00    -0.030 C 
ATOM      4  C5  <0> d          -1.799  -3.514   1.934  0.00  0.00    -0.042 C 
ATOM      5  C6  <0> d          -2.702  -3.792   0.705  0.00  0.00     0.021 C 
ATOM      6  O3  <0> d          -2.612  -2.571  -0.064  0.00  0.00    -0.376 OA
ATOM      7  H5  <0> d           0.209  -3.330   1.098  0.00  0.00     0.037 H 
ATOM      8  H6  <0> d          -0.359  -1.874   1.974  0.00  0.00     0.037 H 
ATOM      9  H7  <0> d          -1.425  -4.445   2.360  0.00  0.00     0.036 H 
ATOM     10  H8  <0> d          -2.332  -2.931   2.685  0.00  0.00     0.036 H 
ATOM     11  H9  <0> d          -2.319  -4.635   0.130  0.00  0.00     0.074 H 
ATOM     12  H10 <0> d          -3.729  -3.977   1.018  0.00  0.00     0.074 H 
ENDROOT
BRANCH   1  13
ATOM     13  C2  <0> d          -1.185  -0.630   0.010  0.00  0.00     0.287 C 
ATOM     14  O2  <0> d          -2.208   0.015   0.023  0.00  0.00    -0.262 OA
BRANCH  13  15
ATOM     15  O1  <0> d           0.002  -0.004   0.002  0.00  0.00    -0.324 OA
BRANCH  15  16
ATOM     16  C1  <0> d          -0.018   1.448   0.010  0.00  0.00     0.013 C 
ATOM     17  H2  <0> d           1.005   1.825   0.002  0.00  0.00     0.067 H 
ATOM     18  H3  <0> d          -0.545   1.809  -0.873  0.00  0.00     0.067 H 
ATOM     19  H4  <0> d          -0.528   1.799   0.907  0.00  0.00     0.067 H 
ENDBRANCH  15  16
ENDBRANCH  13  15
ENDBRANCH   1  13
TORSDOF 3
