REMARK  3 active torsions:
REMARK  status: ('A' for Active; 'I' for Inactive)
REMARK    1  A    between atoms: C2_2  and  C5_9 
REMARK    2  A    between atoms: C3_4  and  N4_8 
REMARK    3  A    between atoms: C4_6  and  N3_7 
ROOT
ATOM      1  C1  <0> d          -1.341   3.457   0.033  0.00  0.00    -0.003 A 
ATOM      2  C2  <0> d          -1.311   2.067   0.019  0.00  0.00     0.155 A 
ATOM      3  N1  <0> d          -2.462   1.394   0.021  0.00  0.00    -0.056 NA
ATOM      4  C3  <0> d          -3.620   2.032   0.031  0.00  0.00     0.722 A 
ATOM      5  N2  <0> d          -3.689   3.355   0.039  0.00  0.00    -0.046 NA
ATOM      6  C4  <0> d          -2.587   4.094   0.037  0.00  0.00     0.142 A 
ATOM      7  H1  <0> d          -0.426   4.030   0.036  0.00  0.00     0.093 H 
ENDROOT
BRANCH   2   8
ATOM      8  C5  <0> d          -0.016   1.342   0.009  0.00  0.00     0.229 C 
ATOM      9  O1  <0> d           1.027   1.963   0.003  0.00  0.00    -0.643 OA
ATOM     10  O2  <0> d           0.002  -0.004   0.002  0.00  0.00    -0.643 OA
ENDBRANCH   2   8
BRANCH   6  11
ATOM     11  N3  <0> d          -2.668   5.477   0.045  0.00  0.00    -0.383 N 
ATOM     12  H2  <0> d          -3.535   5.912   0.052  0.00  0.00     0.157 HD
ATOM     13  H3  <0> d          -1.858   6.010   0.044  0.00  0.00     0.157 HD
ENDBRANCH   6  11
BRANCH   4  14
ATOM     14  N4  <0> d          -4.793   1.297   0.032  0.00  0.00    -0.231 N 
ATOM     15  H4  <0> d          -4.758   0.327   0.026  0.00  0.00     0.174 HD
ATOM     16  H5  <0> d          -5.650   1.751   0.039  0.00  0.00     0.174 HD
ENDBRANCH   4  14
TORSDOF 3
