REMARK  5 active torsions:
REMARK  status: ('A' for Active; 'I' for Inactive)
REMARK    1  A    between atoms: C1_1  and  C2_2 
REMARK    2  A    between atoms: C2_2  and  O1_3 
REMARK    3  A    between atoms: O1_3  and  C3_4 
REMARK    4  A    between atoms: C3_4  and  C4_6 
REMARK    5  A    between atoms: C4_6  and  C9_11 
ROOT
ATOM      1  C4  <0> d          -2.881  -2.427   0.017  0.00  0.00     0.044 C 
ATOM      2  C5  <0> d          -3.638  -2.021  -1.260  0.00  0.00    -0.050 C 
ATOM      3  C6  <0> d          -3.985  -3.329  -2.001  0.00  0.00    -0.064 C 
ATOM      4  C7  <0> d          -3.977  -4.408  -0.890  0.00  0.00    -0.064 C 
ATOM      5  C8  <0> d          -2.794  -3.967   0.007  0.00  0.00    -0.050 C 
ATOM      6  H6  <0> d          -4.551  -1.486  -0.999  0.00  0.00     0.034 H 
ATOM      7  H7  <0> d          -3.004  -1.394  -1.887  0.00  0.00     0.034 H 
ATOM      8  H8  <0> d          -4.972  -3.259  -2.457  0.00  0.00     0.033 H 
ATOM      9  H9  <0> d          -3.230  -3.553  -2.755  0.00  0.00     0.033 H 
ATOM     10  H10 <0> d          -4.913  -4.394  -0.330  0.00  0.00     0.033 H 
ATOM     11  H11 <0> d          -3.794  -5.396  -1.312  0.00  0.00     0.033 H 
ATOM     12  H12 <0> d          -1.847  -4.293  -0.422  0.00  0.00     0.034 H 
ATOM     13  H13 <0> d          -2.913  -4.362   1.016  0.00  0.00     0.034 H 
ENDROOT
BRANCH   1  14
ATOM     14  C3  <0> d          -1.496  -1.832   0.006  0.00  0.00     0.267 C 
ATOM     15  O2  <0> d          -0.528  -2.555  -0.007  0.00  0.00    -0.264 OA
BRANCH  14  16
ATOM     16  O1  <0> d          -1.339  -0.499   0.012  0.00  0.00    -0.321 OA
BRANCH  16  17
ATOM     17  C2  <0> d           0.002  -0.004   0.002  0.00  0.00     0.025 C 
ATOM     18  H4  <0> d           0.512  -0.356  -0.895  0.00  0.00     0.074 H 
ATOM     19  H5  <0> d           0.529  -0.365   0.885  0.00  0.00     0.074 H 
BRANCH  17  20
ATOM     20  C1  <0> d          -0.019   1.526   0.010  0.00  0.00    -0.056 C 
ATOM     21  H1  <0> d           1.004   1.903   0.003  0.00  0.00     0.030 H 
ATOM     22  H2  <0> d          -0.546   1.887  -0.873  0.00  0.00     0.030 H 
ATOM     23  H3  <0> d          -0.529   1.877   0.907  0.00  0.00     0.030 H 
ENDBRANCH  17  20
ENDBRANCH  16  17
ENDBRANCH  14  16
ENDBRANCH   1  14
BRANCH   1  24
ATOM     24  C9  <0> d          -3.646  -1.952   1.254  0.00  0.00    -0.060 C 
ATOM     25  H14 <0> d          -3.712  -0.864   1.245  0.00  0.00     0.029 H 
ATOM     26  H15 <0> d          -4.649  -2.377   1.246  0.00  0.00     0.029 H 
ATOM     27  H16 <0> d          -3.121  -2.276   2.152  0.00  0.00     0.029 H 
ENDBRANCH   1  24
TORSDOF 5
