REMARK  6 active torsions:
REMARK  status: ('A' for Active; 'I' for Inactive)
REMARK    1  A    between atoms: C1_1  and  C2_2 
REMARK    2  A    between atoms: C2_2  and  C3_4 
REMARK    3  A    between atoms: C2_2  and  O2_14 
REMARK    4  A    between atoms: C4_8  and  C5_10 
REMARK    5  A    between atoms: C5_10  and  C6_12 
REMARK    6  A    between atoms: C5_10  and  O1_13 
ROOT
ATOM      1  C3  <0> d          -0.018   1.503   0.010  0.00  0.00     0.150 A 
ATOM      2  N1  <0> d          -1.117   2.277   0.019  0.00  0.00    -0.261 N 
ATOM      3  H2  <0> d          -2.040   1.978   0.021  0.00  0.00     0.190 HD
ATOM      4  N2  <0> d          -0.664   3.607   0.028  0.00  0.00    -0.155 NA
ATOM      5  C4  <0> d           0.642   3.560   0.015  0.00  0.00     0.176 A 
ATOM      6  N3  <0> d           1.030   2.285   0.004  0.00  0.00    -0.211 NA
ENDROOT
BRANCH   1   7
ATOM      7  C2  <0> d           0.002  -0.004   0.002  0.00  0.00     0.090 C 
ATOM      8  H1  <0> d          -1.017  -0.381  -0.080  0.00  0.00     0.094 H 
BRANCH   7   9
ATOM      9  C1  <0> d           0.826  -0.496  -1.190  0.00  0.00    -0.046 C 
ATOM     10  H4  <0> d           0.378  -0.134  -2.115  0.00  0.00     0.031 H 
ATOM     11  H5  <0> d           1.845  -0.120  -1.107  0.00  0.00     0.031 H 
ATOM     12  H6  <0> d           0.840  -1.586  -1.196  0.00  0.00     0.031 H 
ENDBRANCH   7   9
BRANCH   7  13
ATOM     13  O2  <0> d           0.589  -0.479   1.215  0.00  0.00    -0.388 OA
ATOM     14  H11 <0> d           0.635  -1.443   1.279  0.00  0.00     0.210 HD
ENDBRANCH   7  13
ENDBRANCH   1   7
BRANCH   5  15
ATOM     15  C5  <0> d           1.561   4.755   0.013  0.00  0.00     0.092 C 
ATOM     16  H3  <0> d           2.567   4.439  -0.263  0.00  0.00     0.094 H 
BRANCH  15  17
ATOM     17  C6  <0> d           1.589   5.379   1.410  0.00  0.00    -0.046 C 
ATOM     18  H7  <0> d           1.950   4.644   2.130  0.00  0.00     0.031 H 
ATOM     19  H8  <0> d           2.253   6.243   1.409  0.00  0.00     0.031 H 
ATOM     20  H9  <0> d           0.583   5.694   1.687  0.00  0.00     0.031 H 
ENDBRANCH  15  17
BRANCH  15  21
ATOM     21  O1  <0> d           1.088   5.718  -0.930  0.00  0.00    -0.388 OA
ATOM     22  H10 <0> d           0.196   6.044  -0.745  0.00  0.00     0.210 HD
ENDBRANCH  15  21
ENDBRANCH   5  15
TORSDOF 6
