REMARK  2 active torsions:
REMARK  status: ('A' for Active; 'I' for Inactive)
REMARK       I    between atoms: N1_3  and  C7_9 
REMARK    1  A    between atoms: C5_6  and  C6_7 
REMARK    2  A    between atoms: C6_7  and  O1_8 
REMARK       I    between atoms: C7_9  and  N2_11 
ROOT
ATOM      1  C1  <0> d          -0.017   1.530   0.015  0.00  0.00    -0.045 C 
ATOM      2  C2  <0> d           1.424   2.052   0.002  0.00  0.00    -0.000 C 
ATOM      3  N1  <0> d           2.129   1.465  -1.145  0.00  0.00    -0.334 N 
ATOM      4  C3  <0> d           2.129   0.004  -1.302  0.00  0.00    -0.000 C 
ATOM      5  C4  <0> d           0.681  -0.495  -1.275  0.00  0.00    -0.045 C 
ATOM      6  C5  <0> d          -0.000  -0.000   0.003  0.00  0.00    -0.031 C 
ATOM      7  C7  <0> d           2.764   2.251  -2.037  0.00  0.00     0.316 C 
ATOM      8  O2  <0> d           2.677   3.461  -1.951  0.00  0.00    -0.247 OA
ATOM      9  N2  <0> d           3.495   1.697  -3.024  0.00  0.00    -0.352 N 
ATOM     10  H1  <0> d          -0.523   1.882   0.914  0.00  0.00     0.036 H 
ATOM     11  H2  <0> d          -0.544   1.895  -0.867  0.00  0.00     0.036 H 
ATOM     12  H3  <0> d           1.418   3.138  -0.090  0.00  0.00     0.064 H 
ATOM     13  H4  <0> d           1.925   1.764   0.926  0.00  0.00     0.064 H 
ATOM     14  H5  <0> d           2.589  -0.261  -2.254  0.00  0.00     0.064 H 
ATOM     15  H6  <0> d           2.688  -0.451  -0.484  0.00  0.00     0.064 H 
ATOM     16  H7  <0> d           0.148  -0.111  -2.144  0.00  0.00     0.036 H 
ATOM     17  H8  <0> d           0.672  -1.585  -1.294  0.00  0.00     0.036 H 
ATOM     18  H9  <0> d           0.548  -0.364   0.872  0.00  0.00     0.043 H 
ATOM     19  H13 <0> d           3.506   0.734  -3.137  0.00  0.00     0.160 HD
ATOM     20  H14 <0> d           4.010   2.261  -3.622  0.00  0.00     0.160 HD
ENDROOT
BRANCH   6  21
ATOM     21  C6  <0> d          -1.437  -0.525   0.051  0.00  0.00     0.020 C 
ATOM     22  H10 <0> d          -1.950  -0.103   0.914  0.00  0.00     0.074 H 
ATOM     23  H11 <0> d          -1.960  -0.235  -0.860  0.00  0.00     0.074 H 
BRANCH  21  24
ATOM     24  O1  <0> d          -1.419  -1.950   0.157  0.00  0.00    -0.400 OA
ATOM     25  H12 <0> d          -2.298  -2.353   0.192  0.00  0.00     0.209 HD
ENDBRANCH  21  24
ENDBRANCH   6  21
TORSDOF 2
