REMARK  0 active torsions:
REMARK  status: ('A' for Active; 'I' for Inactive)
ROOT
ATOM      1  C1  <0> d          -3.378  -1.634   0.084  0.00  0.00    -0.061 C 
ATOM      2  C2  <0> d          -2.420  -2.712   0.651  0.00  0.00    -0.061 C 
ATOM      3  C3  <0> d          -1.064  -2.318   0.015  0.00  0.00    -0.044 C 
ATOM      4  C4  <0> d          -1.069  -0.799   0.023  0.00  0.00    -0.070 C 
ATOM      5  C5  <0> d           0.002  -0.004   0.002  0.00  0.00    -0.010 C 
ATOM      6  C6  <0> d          -0.018   1.508   0.010  0.00  0.00    -0.037 C 
ATOM      7  C7  <0> d           1.450   1.969  -0.001  0.00  0.00    -0.055 C 
ATOM      8  C8  <0> d           2.250   0.721   0.423  0.00  0.00    -0.005 C 
ATOM      9  C9  <0> d           1.399  -0.448  -0.033  0.00  0.00     0.155 C 
ATOM     10  O1  <0> d           1.798  -1.545  -0.364  0.00  0.00    -0.293 OA
ATOM     11  C10 <0> d          -2.517  -0.354   0.067  0.00  0.00    -0.044 C 
ATOM     12  H1  <0> d          -4.256  -1.477   0.727  0.00  0.00     0.033 H 
ATOM     13  H2  <0> d          -3.709  -1.867  -0.939  0.00  0.00     0.033 H 
ATOM     14  H3  <0> d          -2.411  -2.654   1.750  0.00  0.00     0.033 H 
ATOM     15  H4  <0> d          -2.764  -3.710   0.340  0.00  0.00     0.033 H 
ATOM     16  H5  <0> d          -0.242  -2.728   0.620  0.00  0.00     0.039 H 
ATOM     17  H6  <0> d          -1.006  -2.723  -1.006  0.00  0.00     0.039 H 
ATOM     18  H7  <0> d          -0.550   1.872  -0.881  0.00  0.00     0.040 H 
ATOM     19  H8  <0> d          -0.533   1.862   0.915  0.00  0.00     0.040 H 
ATOM     20  H9  <0> d           1.721   2.306  -1.013  0.00  0.00     0.034 H 
ATOM     21  H10 <0> d           1.579   2.800   0.708  0.00  0.00     0.034 H 
ATOM     22  H11 <0> d           3.233   0.730  -0.070  0.00  0.00     0.044 H 
ATOM     23  H12 <0> d           2.387   0.727   1.515  0.00  0.00     0.044 H 
ATOM     24  H13 <0> d          -2.767   0.244  -0.822  0.00  0.00     0.039 H 
ATOM     25  H14 <0> d          -2.716   0.234   0.974  0.00  0.00     0.039 H 
ENDROOT
TORSDOF 0
