REMARK  2 active torsions:
REMARK  status: ('A' for Active; 'I' for Inactive)
REMARK    1  A    between atoms: C4_4  and  C5_6 
REMARK    2  A    between atoms: C5_6  and  O1_7 
ROOT
ATOM      1  C1  <0> d          -0.016   1.306   0.009  0.00  0.00    -0.119 C 
ATOM      2  C2  <0> d           0.002  -0.004   0.002  0.00  0.00    -0.082 A 
ATOM      3  C3  <0> d          -0.745  -1.313  -0.004  0.00  0.00    -0.036 A 
ATOM      4  C4  <0> d           0.785  -1.292  -0.012  0.00  0.00    -0.009 A 
ATOM      5  H1  <0> d           1.284  -1.568  -0.941  0.00  0.00     0.050 H 
ATOM      6  H2  <0> d           0.912   1.859   0.003  0.00  0.00     0.067 H 
ATOM      7  H3  <0> d          -0.958   1.833   0.017  0.00  0.00     0.067 H 
ATOM      8  H4  <0> d          -1.244  -1.613   0.917  0.00  0.00     0.040 H 
ATOM      9  H5  <0> d          -1.247  -1.603  -0.928  0.00  0.00     0.040 H 
ENDROOT
BRANCH   4  10
ATOM     10  C5  <0> d           1.510  -1.694   1.274  0.00  0.00     0.024 C 
ATOM     11  H6  <0> d           1.283  -0.973   2.059  0.00  0.00     0.075 H 
ATOM     12  H7  <0> d           1.179  -2.685   1.583  0.00  0.00     0.075 H 
BRANCH  10  13
ATOM     13  O1  <0> d           2.919  -1.714   1.039  0.00  0.00    -0.400 OA
ATOM     14  H8  <0> d           3.444  -1.961   1.813  0.00  0.00     0.209 HD
ENDBRANCH  10  13
ENDBRANCH   4  10
TORSDOF 2
