REMARK  5 active torsions:
REMARK  status: ('A' for Active; 'I' for Inactive)
REMARK    1  A    between atoms: C1_1  and  C2_2 
REMARK    2  A    between atoms: C2_2  and  C3_3 
REMARK    3  A    between atoms: C3_3  and  C4_5 
REMARK    4  A    between atoms: C6_8  and  C7_9 
REMARK    5  A    between atoms: C6_8  and  C8_10 
ROOT
ATOM      1  C4  <0> d          -0.856   3.092   1.460  0.00  0.00     0.011 A 
ATOM      2  H1  <0> d          -0.605   3.804   2.260  0.00  0.00     0.052 H 
ATOM      3  C5  <0> d          -2.086   2.261   1.086  0.00  0.00    -0.048 A 
ATOM      4  C6  <0> d          -0.729   1.579   1.267  0.00  0.00    -0.037 A 
ATOM      5  H7  <0> d          -2.851   2.365   1.869  0.00  0.00     0.035 H 
ATOM      6  H8  <0> d          -2.492   2.618   0.128  0.00  0.00     0.035 H 
ENDROOT
BRANCH   1   7
ATOM      7  C3  <0> d          -0.267   3.981   0.396  0.00  0.00     0.131 C 
ATOM      8  O1  <0> d          -0.216   3.601  -0.749  0.00  0.00    -0.298 OA
BRANCH   7   9
ATOM      9  C2  <0> d           0.260   5.345   0.761  0.00  0.00    -0.013 C 
ATOM     10  H5  <0> d           1.070   5.240   1.498  0.00  0.00     0.043 H 
ATOM     11  H6  <0> d          -0.552   5.949   1.192  0.00  0.00     0.043 H 
BRANCH   9  12
ATOM     12  C1  <0> d           0.799   6.036  -0.493  0.00  0.00    -0.070 C 
ATOM     13  H2  <0> d           1.183   7.032  -0.227  0.00  0.00     0.028 H 
ATOM     14  H3  <0> d          -0.011   6.141  -1.230  0.00  0.00     0.028 H 
ATOM     15  H4  <0> d           1.611   5.433  -0.924  0.00  0.00     0.028 H 
ENDBRANCH   9  12
ENDBRANCH   7   9
ENDBRANCH   1   7
BRANCH   4  16
ATOM     16  C7  <0> d          -0.013   1.086   0.008  0.00  0.00    -0.069 C 
ATOM     17  H9  <0> d           0.004  -0.014   0.003  0.00  0.00     0.028 H 
ATOM     18  H10 <0> d           1.019   1.468  -0.001  0.00  0.00     0.028 H 
ATOM     19  H11 <0> d          -0.546   1.449  -0.883  0.00  0.00     0.028 H 
ENDBRANCH   4  16
BRANCH   4  20
ATOM     20  C8  <0> d          -0.530   0.721   2.518  0.00  0.00    -0.069 C 
ATOM     21  H12 <0> d          -0.456  -0.337   2.229  0.00  0.00     0.028 H 
ATOM     22  H13 <0> d          -1.387   0.857   3.195  0.00  0.00     0.028 H 
ATOM     23  H14 <0> d           0.394   1.028   3.030  0.00  0.00     0.028 H 
ENDBRANCH   4  20
TORSDOF 5
