REMARK  4 active torsions:
REMARK  status: ('A' for Active; 'I' for Inactive)
REMARK    1  A    between atoms: C1_1  and  C2_2 
REMARK    2  A    between atoms: C2_2  and  C3_4 
REMARK    3  A    between atoms: C2_2  and  C4_6 
REMARK    4  A    between atoms: C3_4  and  O1_5 
ROOT
ATOM      1  C2  <0> d           1.145   3.085   0.008  0.00  0.00     0.047 C 
ATOM      2  H1  <0> d           0.532   3.388   0.857  0.00  0.00     0.059 H 
ENDROOT
BRANCH   1   3
ATOM      3  C1  <0> d           0.478   3.544  -1.291  0.00  0.00    -0.062 C 
ATOM      4  H2  <0> d          -0.508   3.088  -1.373  0.00  0.00     0.028 H 
ATOM      5  H3  <0> d           0.378   4.629  -1.284  0.00  0.00     0.028 H 
ATOM      6  H4  <0> d           1.091   3.241  -2.140  0.00  0.00     0.028 H 
ENDBRANCH   1   3
BRANCH   1   7
ATOM      7  C3  <0> d           1.286   1.562  -0.002  0.00  0.00     0.029 C 
ATOM      8  H5  <0> d           1.840   1.243   0.881  0.00  0.00     0.075 H 
ATOM      9  H6  <0> d           1.823   1.252  -0.899  0.00  0.00     0.075 H 
BRANCH   7  10
ATOM     10  O1  <0> d          -0.011   0.963   0.007  0.00  0.00    -0.400 OA
ATOM     11  H7  <0> d           0.002  -0.004   0.002  0.00  0.00     0.209 HD
ENDBRANCH   7  10
ENDBRANCH   1   7
BRANCH   1  12
ATOM     12  C4  <0> d           2.509   3.716   0.122  0.00  0.00     0.178 C 
ATOM     13  O2  <0> d           3.493   3.018   0.189  0.00  0.00    -0.648 OA
ATOM     14  O3  <0> d           2.630   5.052   0.149  0.00  0.00    -0.648 OA
ENDBRANCH   1  12
TORSDOF 4
