REMARK  7 active torsions:
REMARK  status: ('A' for Active; 'I' for Inactive)
REMARK    1  A    between atoms: C1_1  and  C2_2 
REMARK    2  A    between atoms: C2_2  and  C3_4 
REMARK    3  A    between atoms: C2_2  and  C6_7 
REMARK    4  A    between atoms: C3_4  and  C4_5 
REMARK    5  A    between atoms: C7_8  and  C8_9 
REMARK    6  A    between atoms: C7_8  and  C9_10 
REMARK    7  A    between atoms: C9_10  and  O1_11 
ROOT
ATOM      1  C2  <0> d          -0.216  -0.422  -0.029  0.00  0.00    -0.038 C 
ATOM      2  H1  <0> d           0.226  -0.960   0.810  0.00  0.00     0.046 H 
ENDROOT
BRANCH   1   3
ATOM      3  C1  <0> d          -0.347   1.060   0.327  0.00  0.00    -0.069 C 
ATOM      4  H2  <0> d           0.640   1.470   0.541  0.00  0.00     0.028 H 
ATOM      5  H3  <0> d          -0.789   1.597  -0.512  0.00  0.00     0.028 H 
ATOM      6  H4  <0> d          -0.983   1.169   1.204  0.00  0.00     0.028 H 
ENDBRANCH   1   3
BRANCH   1   7
ATOM      7  C3  <0> d          -1.602  -0.998  -0.330  0.00  0.00    -0.044 C 
ATOM      8  H5  <0> d          -2.081  -0.405  -1.109  0.00  0.00     0.039 H 
ATOM      9  H6  <0> d          -1.501  -2.029  -0.669  0.00  0.00     0.039 H 
BRANCH   7  10
ATOM     10  C4  <0> d          -2.443  -0.960   0.920  0.00  0.00    -0.111 C 
ATOM     11  C5  <0> d          -3.608  -0.361   0.907  0.00  0.00    -0.125 C 
ATOM     12  H8  <0> d          -4.212  -0.334   1.802  0.00  0.00     0.066 H 
ATOM     13  H9  <0> d          -3.966   0.105   0.001  0.00  0.00     0.066 H 
ATOM     14  H7  <0> d          -2.086  -1.427   1.826  0.00  0.00     0.075 H 
ENDBRANCH   7  10
ENDBRANCH   1   7
BRANCH   1  15
ATOM     15  C6  <0> d           0.664  -0.572  -1.243  0.00  0.00    -0.095 C 
ATOM     16  C7  <0> d           1.837  -1.146  -1.135  0.00  0.00    -0.064 C 
ATOM     17  H10 <0> d           0.328  -0.207  -2.202  0.00  0.00     0.077 H 
BRANCH  16  18
ATOM     18  C8  <0> d           2.649  -1.439  -2.369  0.00  0.00    -0.053 C 
ATOM     19  H11 <0> d           3.290  -0.586  -2.594  0.00  0.00     0.033 H 
ATOM     20  H12 <0> d           3.266  -2.321  -2.198  0.00  0.00     0.033 H 
ATOM     21  H13 <0> d           1.980  -1.621  -3.210  0.00  0.00     0.033 H 
ENDBRANCH  16  18
BRANCH  16  22
ATOM     22  C9  <0> d           2.373  -1.512   0.225  0.00  0.00     0.036 C 
ATOM     23  H14 <0> d           1.649  -1.231   0.990  0.00  0.00     0.081 H 
ATOM     24  H15 <0> d           2.548  -2.587   0.269  0.00  0.00     0.081 H 
BRANCH  22  25
ATOM     25  O1  <0> d           3.602  -0.821   0.455  0.00  0.00    -0.397 OA
ATOM     26  H16 <0> d           4.006  -1.009   1.313  0.00  0.00     0.209 HD
ENDBRANCH  22  25
ENDBRANCH  16  22
ENDBRANCH   1  15
TORSDOF 7
