REMARK  0 active torsions:
REMARK  status: ('A' for Active; 'I' for Inactive)
ROOT
ATOM      1  C1  <0> d          -0.018   1.489   0.010  0.00  0.00    -0.046 C 
ATOM      2  C2  <0> d           1.342   2.111   0.001  0.00  0.00    -0.106 C 
ATOM      3  C3  <0> d           2.425   1.442  -0.221  0.00  0.00    -0.105 C 
ATOM      4  C4  <0> d           2.486  -0.029  -0.445  0.00  0.00    -0.043 C 
ATOM      5  C5  <0> d           1.134  -0.646  -0.815  0.00  0.00    -0.031 C 
ATOM      6  H1  <0> d           0.950  -0.635  -1.889  0.00  0.00     0.046 H 
ATOM      7  C6  <0> d           0.002  -0.004   0.002  0.00  0.00    -0.041 C 
ATOM      8  H2  <0> d          -0.945  -0.352  -0.411  0.00  0.00     0.041 H 
ATOM      9  C7  <0> d           0.173  -0.688   1.362  0.00  0.00    -0.046 C 
ATOM     10  C8  <0> d           0.665  -2.072   0.973  0.00  0.00    -0.105 C 
ATOM     11  C9  <0> d           1.177  -2.062  -0.232  0.00  0.00    -0.102 C 
ATOM     12  H3  <0> d          -0.548   1.825   0.901  0.00  0.00     0.039 H 
ATOM     13  H4  <0> d          -0.565   1.834  -0.867  0.00  0.00     0.039 H 
ATOM     14  H5  <0> d           1.423   3.171   0.188  0.00  0.00     0.076 H 
ATOM     15  H6  <0> d           3.354   1.991  -0.246  0.00  0.00     0.076 H 
ATOM     16  H7  <0> d           3.194  -0.230  -1.249  0.00  0.00     0.039 H 
ATOM     17  H8  <0> d           2.850  -0.505   0.465  0.00  0.00     0.039 H 
ATOM     18  H9  <0> d           0.917  -0.169   1.966  0.00  0.00     0.039 H 
ATOM     19  H10 <0> d          -0.780  -0.750   1.887  0.00  0.00     0.039 H 
ATOM     20  H11 <0> d           0.602  -2.946   1.605  0.00  0.00     0.076 H 
ATOM     21  H12 <0> d           1.571  -2.929  -0.743  0.00  0.00     0.076 H 
ENDROOT
TORSDOF 0
