REMARK  1 active torsions:
REMARK  status: ('A' for Active; 'I' for Inactive)
REMARK    1  A    between atoms: C1_1  and  C2_2 
ROOT
ATOM      1  C2  <0> d           2.159   0.730  -0.445  0.00  0.00     0.270 C 
ATOM      2  C3  <0> d           2.998   1.004  -1.704  0.00  0.00    -0.004 C 
ATOM      3  C4  <0> d           2.922  -0.370  -2.417  0.00  0.00     0.013 C 
ATOM      4  C5  <0> d           1.641  -0.993  -1.898  0.00  0.00     0.222 C 
ATOM      5  O1  <0> d           1.128  -1.998  -2.341  0.00  0.00    -0.273 OA
ATOM      6  N1  <0> d           1.160  -0.272  -0.879  0.00  0.00    -0.313 N 
ATOM      7  C6  <0> d           0.002  -0.004   0.002  0.00  0.00     0.028 C 
ATOM      8  C7  <0> d          -0.019   1.549   0.011  0.00  0.00     0.165 C 
ATOM      9  N2  <0> d           1.419   1.919  -0.001  0.00  0.00     0.337 N 
ATOM     10  H4  <0> d           2.540   1.822  -2.279  0.00  0.00     0.040 H 
ATOM     11  H5  <0> d           4.019   1.289  -1.410  0.00  0.00     0.040 H 
ATOM     12  H6  <0> d           2.893  -0.218  -3.506  0.00  0.00     0.047 H 
ATOM     13  H7  <0> d           3.806  -0.969  -2.154  0.00  0.00     0.047 H 
ATOM     14  H8  <0> d          -0.903  -0.451  -0.436  0.00  0.00     0.067 H 
ATOM     15  H9  <0> d           0.186  -0.444   0.993  0.00  0.00     0.067 H 
ATOM     16  H10 <0> d          -0.551   1.913  -0.880  0.00  0.00     0.086 H 
ATOM     17  H11 <0> d          -0.534   1.904   0.916  0.00  0.00     0.086 H 
ENDROOT
BRANCH   1  18
ATOM     18  C1  <0> d           3.034   0.171   0.678  0.00  0.00    -0.023 C 
ATOM     19  H1  <0> d           3.768   0.932   0.984  0.00  0.00     0.033 H 
ATOM     20  H2  <0> d           3.563  -0.725   0.320  0.00  0.00     0.033 H 
ATOM     21  H3  <0> d           2.402  -0.096   1.538  0.00  0.00     0.033 H 
ENDBRANCH   1  18
TORSDOF 1
