REMARK  1 active torsions:
REMARK  status: ('A' for Active; 'I' for Inactive)
REMARK    1  A    between atoms: C1_1  and  N1_2 
ROOT
ATOM      1  N1  <0> d           0.584   3.842   0.017  0.00  0.00    -0.284 N 
ATOM      2  C2  <0> d          -0.765   3.830   0.030  0.00  0.00     0.001 A 
ATOM      3  C3  <0> d          -1.166   2.537   0.021  0.00  0.00    -0.026 A 
ATOM      4  C4  <0> d          -0.021   1.732   0.012  0.00  0.00     0.147 A 
ATOM      5  N2  <0> d           1.028   2.514   0.006  0.00  0.00    -0.161 NA
ATOM      6 Cl1  <0> d           0.002  -0.004   0.002  0.00  0.00    -0.061 Cl
ATOM      7  H4  <0> d          -1.410   4.696   0.041  0.00  0.00     0.114 H 
ATOM      8  H5  <0> d          -2.188   2.189   0.023  0.00  0.00     0.090 H 
ENDROOT
BRANCH   1   9
ATOM      9  C1  <0> d           1.434   5.035   0.015  0.00  0.00     0.002 C 
ATOM     10  H1  <0> d           1.635   5.336  -1.014  0.00  0.00     0.059 H 
ATOM     11  H2  <0> d           0.926   5.845   0.537  0.00  0.00     0.059 H 
ATOM     12  H3  <0> d           2.375   4.812   0.518  0.00  0.00     0.059 H 
ENDBRANCH   1   9
TORSDOF 1
