REMARK  4 active torsions:
REMARK  status: ('A' for Active; 'I' for Inactive)
REMARK    1  A    between atoms: C1_1  and  C2_2 
REMARK    2  A    between atoms: C3_3  and  C6_7 
REMARK    3  A    between atoms: C6_7  and  O3_9 
REMARK    4  A    between atoms: O3_9  and  C7_10 
ROOT
ATOM      1  C2  <0> d           0.718   3.158   0.011  0.00  0.00     0.065 A 
ATOM      2  C3  <0> d          -0.645   3.232   0.024  0.00  0.00     0.070 A 
ATOM      3  C4  <0> d          -1.116   1.839   0.017  0.00  0.00    -0.043 A 
ATOM      4  C5  <0> d          -0.013   1.076   0.008  0.00  0.00     0.020 A 
ATOM      5  O1  <0> d           1.070   1.869   0.002  0.00  0.00    -0.326 OA
ATOM      6  H4  <0> d          -2.141   1.499   0.020  0.00  0.00     0.088 H 
ATOM      7  H5  <0> d           0.002  -0.004   0.002  0.00  0.00     0.123 H 
ENDROOT
BRANCH   2   8
ATOM      8  C6  <0> d          -1.470   4.451   0.038  0.00  0.00     0.295 C 
ATOM      9  O2  <0> d          -0.939   5.544   0.038  0.00  0.00    -0.259 OA
BRANCH   8  10
ATOM     10  O3  <0> d          -2.814   4.354   0.050  0.00  0.00    -0.322 OA
BRANCH  10  11
ATOM     11  C7  <0> d          -3.564   5.598   0.062  0.00  0.00     0.013 C 
ATOM     12  H6  <0> d          -3.304   6.170   0.953  0.00  0.00     0.067 H 
ATOM     13  H7  <0> d          -3.320   6.178  -0.827  0.00  0.00     0.067 H 
ATOM     14  H8  <0> d          -4.632   5.378   0.071  0.00  0.00     0.067 H 
ENDBRANCH  10  11
ENDBRANCH   8  10
ENDBRANCH   2   8
BRANCH   1  15
ATOM     15  C1  <0> d           1.665   4.330   0.008  0.00  0.00    -0.030 C 
ATOM     16  H1  <0> d           2.693   3.968  -0.003  0.00  0.00     0.036 H 
ATOM     17  H2  <0> d           1.485   4.940  -0.878  0.00  0.00     0.036 H 
ATOM     18  H3  <0> d           1.501   4.932   0.902  0.00  0.00     0.036 H 
ENDBRANCH   1  15
TORSDOF 4
