REMARK  4 active torsions:
REMARK  status: ('A' for Active; 'I' for Inactive)
REMARK    1  A    between atoms: C1_1  and  C2_2 
REMARK    2  A    between atoms: C2_2  and  C3_3 
REMARK    3  A    between atoms: C4_4  and  C6_9 
REMARK    4  A    between atoms: C5_6  and  N2_8 
ROOT
ATOM      1  C3  <0> d           0.731  -0.503   1.223  0.00  0.00     0.092 A 
ATOM      2  C4  <0> d           0.178  -0.792   2.433  0.00  0.00     0.167 A 
ATOM      3  N1  <0> d           1.190  -1.210   3.248  0.00  0.00    -0.199 NA
ATOM      4  C5  <0> d           2.306  -1.178   2.568  0.00  0.00     0.245 A 
ATOM      5  O1  <0> d           2.048  -0.753   1.320  0.00  0.00    -0.280 OA
ENDROOT
BRANCH   1   6
ATOM      6  C2  <0> d           0.002  -0.004   0.002  0.00  0.00    -0.021 C 
ATOM      7  H4  <0> d          -1.020  -0.381   0.010  0.00  0.00     0.042 H 
ATOM      8  H5  <0> d           0.512  -0.356  -0.895  0.00  0.00     0.042 H 
BRANCH   6   9
ATOM      9  C1  <0> d          -0.019   1.526   0.010  0.00  0.00    -0.071 C 
ATOM     10  H1  <0> d           1.004   1.903   0.003  0.00  0.00     0.028 H 
ATOM     11  H2  <0> d          -0.546   1.887  -0.873  0.00  0.00     0.028 H 
ATOM     12  H3  <0> d          -0.529   1.877   0.907  0.00  0.00     0.028 H 
ENDBRANCH   6   9
ENDBRANCH   1   6
BRANCH   2  13
ATOM     13  C6  <0> d          -1.241  -0.676   2.794  0.00  0.00     0.231 C 
ATOM     14  O2  <0> d          -2.053  -0.286   1.966  0.00  0.00    -0.643 OA
ATOM     15  O3  <0> d          -1.612  -0.969   3.923  0.00  0.00    -0.643 OA
ENDBRANCH   2  13
BRANCH   4  16
ATOM     16  N2  <0> d           3.550  -1.530   3.053  0.00  0.00    -0.363 N 
ATOM     17  H6  <0> d           3.645  -1.832   3.970  0.00  0.00     0.159 HD
ATOM     18  H7  <0> d           4.328  -1.475   2.477  0.00  0.00     0.159 HD
ENDBRANCH   4  16
TORSDOF 4
