REMARK  3 active torsions:
REMARK  status: ('A' for Active; 'I' for Inactive)
REMARK    1  A    between atoms: C1_1  and  C2_2 
REMARK    2  A    between atoms: C4_4  and  C10_11 
REMARK    3  A    between atoms: C6_6  and  C8_8 
ROOT
ATOM      1  C8  <0> d           3.672   2.182  -0.024  0.00  0.00     0.038 C 
ATOM      2  C9  <0> d           4.080   2.439  -1.414  0.00  0.00     0.063 C 
ATOM      3  N1  <0> d           4.396   2.638  -2.487  0.00  0.00    -0.197 NA
ATOM      4  H7  <0> d           3.534   3.130   0.495  0.00  0.00     0.062 H 
ATOM      5  H8  <0> d           4.444   1.601   0.480  0.00  0.00     0.062 H 
ENDROOT
BRANCH   1   6
ATOM      6  C6  <0> d           2.377   1.411  -0.015  0.00  0.00    -0.044 A 
ATOM      7  C5  <0> d           2.396   0.029  -0.021  0.00  0.00    -0.070 A 
ATOM      8  C4  <0> d           1.208  -0.679  -0.013  0.00  0.00    -0.061 A 
ATOM      9  H5  <0> d           3.339  -0.499  -0.033  0.00  0.00     0.085 H 
ATOM     10  C3  <0> d           0.002  -0.004   0.002  0.00  0.00    -0.071 A 
ATOM     11  C2  <0> d          -0.017   1.378   0.010  0.00  0.00    -0.061 A 
ATOM     12  H4  <0> d          -0.926  -0.557   0.008  0.00  0.00     0.085 H 
ATOM     13  C7  <0> d           1.171   2.086   0.002  0.00  0.00    -0.070 A 
ATOM     14  H6  <0> d           1.156   3.165   0.008  0.00  0.00     0.085 H 
BRANCH   8  15
ATOM     15  C10 <0> d           1.229  -2.186  -0.021  0.00  0.00    -0.051 C 
ATOM     16  H9  <0> d           1.224  -2.544  -1.050  0.00  0.00     0.033 H 
ATOM     17  H10 <0> d           2.129  -2.539   0.483  0.00  0.00     0.033 H 
ATOM     18  H11 <0> d           0.349  -2.563   0.500  0.00  0.00     0.033 H 
ENDBRANCH   8  15
BRANCH  11  19
ATOM     19  C1  <0> d          -1.332   2.114   0.020  0.00  0.00    -0.051 C 
ATOM     20  H1  <0> d          -1.644   2.286   1.050  0.00  0.00     0.033 H 
ATOM     21  H2  <0> d          -1.217   3.071  -0.489  0.00  0.00     0.033 H 
ATOM     22  H3  <0> d          -2.086   1.517  -0.494  0.00  0.00     0.033 H 
ENDBRANCH  11  19
ENDBRANCH   1   6
TORSDOF 3
