REMARK  3 active torsions:
REMARK  status: ('A' for Active; 'I' for Inactive)
REMARK    1  A    between atoms: C1_1  and  C2_2 
REMARK    2  A    between atoms: C5_5  and  C7_8 
REMARK    3  A    between atoms: C7_8  and  C8_9 
ROOT
ATOM      1  C2  <0> d          -3.655   0.582  -3.288  0.00  0.00     0.030 A 
ATOM      2  C3  <0> d          -3.791  -0.109  -2.099  0.00  0.00    -0.059 A 
ATOM      3  C4  <0> d          -3.037   0.279  -1.002  0.00  0.00    -0.073 A 
ATOM      4  C5  <0> d          -2.170   1.352  -1.144  0.00  0.00    -0.037 A 
ATOM      5  C6  <0> d          -2.091   1.998  -2.363  0.00  0.00     0.009 A 
ATOM      6  N1  <0> d          -2.820   1.597  -3.387  0.00  0.00    -0.265 NA
ATOM      7  H4  <0> d          -4.477  -0.940  -2.024  0.00  0.00     0.086 H 
ATOM      8  H5  <0> d          -3.122  -0.242  -0.060  0.00  0.00     0.084 H 
ATOM      9  H6  <0> d          -1.422   2.837  -2.481  0.00  0.00     0.115 H 
ENDROOT
BRANCH   4  10
ATOM     10  C7  <0> d          -1.328   1.812   0.018  0.00  0.00    -0.025 C 
ATOM     11  H7  <0> d          -1.853   1.605   0.951  0.00  0.00     0.046 H 
ATOM     12  H8  <0> d          -1.145   2.883  -0.066  0.00  0.00     0.046 H 
BRANCH  10  13
ATOM     13  C8  <0> d          -0.013   1.076   0.008  0.00  0.00    -0.108 C 
ATOM     14  C9  <0> d           1.113   1.746   0.001  0.00  0.00    -0.124 C 
ATOM     15  H10 <0> d           2.055   1.219  -0.011  0.00  0.00     0.066 H 
ATOM     16  H11 <0> d           1.098   2.826   0.007  0.00  0.00     0.066 H 
ATOM     17  H9  <0> d           0.002  -0.004   0.002  0.00  0.00     0.076 H 
ENDBRANCH  10  13
ENDBRANCH   4  10
BRANCH   1  18
ATOM     18  C1  <0> d          -4.470   0.168  -4.487  0.00  0.00    -0.035 C 
ATOM     19  H1  <0> d          -5.415   0.711  -4.488  0.00  0.00     0.035 H 
ATOM     20  H2  <0> d          -3.918   0.398  -5.398  0.00  0.00     0.035 H 
ATOM     21  H3  <0> d          -4.667  -0.903  -4.441  0.00  0.00     0.035 H 
ENDBRANCH   1  18
TORSDOF 3
