REMARK  3 active torsions:
REMARK  status: ('A' for Active; 'I' for Inactive)
REMARK    1  A    between atoms: C1_1  and  C2_2 
REMARK    2  A    between atoms: C2_2  and  C3_4 
REMARK    3  A    between atoms: C2_2  and  O1_12 
ROOT
ATOM      1  C3  <0> d           2.379   1.414  -0.013  0.00  0.00     0.011 A 
ATOM      2  C4  <0> d           1.173   2.089   0.002  0.00  0.00    -0.034 A 
ATOM      3  C5  <0> d          -0.017   1.381   0.010  0.00  0.00     0.117 A 
ATOM      4  C6  <0> d           0.002  -0.004   0.002  0.00  0.00    -0.043 A 
ATOM      5  C7  <0> d           1.208  -0.678  -0.014  0.00  0.00    -0.042 A 
ATOM      6  C8  <0> d           2.397   0.030  -0.021  0.00  0.00     0.125 A 
ATOM      7  F1  <0> d           3.576  -0.629  -0.037  0.00  0.00    -0.205 F 
ATOM      8  F2  <0> d          -1.196   2.040   0.019  0.00  0.00    -0.206 F 
ATOM      9  H5  <0> d           1.158   3.169   0.008  0.00  0.00     0.089 H 
ATOM     10  H6  <0> d          -0.926  -0.557   0.008  0.00  0.00     0.088 H 
ATOM     11  H7  <0> d           1.222  -1.758  -0.020  0.00  0.00     0.088 H 
ENDROOT
BRANCH   1  12
ATOM     12  C2  <0> d           3.673   2.185  -0.021  0.00  0.00     0.060 C 
ATOM     13  H1  <0> d           4.411   1.651  -0.620  0.00  0.00     0.090 H 
BRANCH  12  14
ATOM     14  C1  <0> d           4.189   2.330   1.412  0.00  0.00    -0.049 C 
ATOM     15  H2  <0> d           4.358   1.342   1.839  0.00  0.00     0.031 H 
ATOM     16  H3  <0> d           5.126   2.888   1.407  0.00  0.00     0.031 H 
ATOM     17  H4  <0> d           3.452   2.864   2.012  0.00  0.00     0.031 H 
ENDBRANCH  12  14
BRANCH  12  18
ATOM     18  O1  <0> d           3.453   3.481  -0.581  0.00  0.00    -0.391 OA
ATOM     19  H8  <0> d           2.806   4.014  -0.097  0.00  0.00     0.210 HD
ENDBRANCH  12  18
ENDBRANCH   1  12
TORSDOF 3
