REMARK  2 active torsions:
REMARK  status: ('A' for Active; 'I' for Inactive)
REMARK    1  A    between atoms: C5_5  and  C7_7 
REMARK    2  A    between atoms: C7_7  and  C8_8 
ROOT
ATOM      1  C1  <0> d          -4.094  -0.339  -1.173  0.00  0.00    -0.082 A 
ATOM      2  C2  <0> d          -4.540  -0.881   0.018  0.00  0.00    -0.080 A 
ATOM      3  C3  <0> d          -3.947  -0.511   1.211  0.00  0.00    -0.045 A 
ATOM      4  C4  <0> d          -2.907   0.403   1.212  0.00  0.00     0.123 A 
ATOM      5  C5  <0> d          -2.462   0.945   0.019  0.00  0.00    -0.010 A 
ATOM      6  C6  <0> d          -3.059   0.578  -1.172  0.00  0.00    -0.073 A 
ATOM      7  F1  <0> d          -2.328   0.766   2.377  0.00  0.00    -0.206 F 
ATOM      8  H1  <0> d          -4.557  -0.629  -2.104  0.00  0.00     0.083 H 
ATOM      9  H2  <0> d          -5.351  -1.594   0.017  0.00  0.00     0.083 H 
ATOM     10  H3  <0> d          -4.296  -0.934   2.141  0.00  0.00     0.088 H 
ATOM     11  H4  <0> d          -2.715   1.004  -2.103  0.00  0.00     0.084 H 
ENDROOT
BRANCH   5  12
ATOM     12  C7  <0> d          -1.329   1.940   0.019  0.00  0.00     0.042 C 
ATOM     13  H5  <0> d          -1.391   2.561   0.913  0.00  0.00     0.056 H 
ATOM     14  H6  <0> d          -1.400   2.570  -0.867  0.00  0.00     0.056 H 
BRANCH  12  15
ATOM     15  C8  <0> d          -0.014   1.204   0.009  0.00  0.00     0.177 C 
ATOM     16  O1  <0> d           0.002  -0.004   0.002  0.00  0.00    -0.648 OA
ATOM     17  O2  <0> d           1.139   1.891   0.001  0.00  0.00    -0.648 OA
ENDBRANCH  12  15
ENDBRANCH   5  12
TORSDOF 2
