REMARK  2 active torsions:
REMARK  status: ('A' for Active; 'I' for Inactive)
REMARK    1  A    between atoms: C1_1  and  N1_2 
REMARK    2  A    between atoms: C1_1  and  N3_6 
REMARK       I    between atoms: N1_2  and  C2_3 
REMARK       I    between atoms: C2_3  and  N2_5 
REMARK       I    between atoms: N3_6  and  C3_7 
REMARK       I    between atoms: C3_7  and  N4_9 
ROOT
ATOM      1  C1  <0> d          -1.295   2.059   0.019  0.00  0.00     0.059 C 
ATOM      2  H1  <0> d          -1.204   2.974  -0.566  0.00  0.00     0.097 H 
ATOM      3  H2  <0> d          -2.069   1.426  -0.415  0.00  0.00     0.097 H 
ENDROOT
BRANCH   1   4
ATOM      4  N1  <0> d          -0.016   1.344   0.009  0.00  0.00    -0.327 N 
ATOM      5  C2  <0> d           0.002  -0.004   0.002  0.00  0.00     0.315 C 
ATOM      6  O1  <0> d          -1.042  -0.626   0.009  0.00  0.00    -0.248 OA
ATOM      7  N2  <0> d           1.178  -0.662  -0.013  0.00  0.00    -0.352 N 
ATOM      8  H4  <0> d           2.012  -0.166  -0.018  0.00  0.00     0.160 HD
ATOM      9  H5  <0> d           1.191  -1.632  -0.018  0.00  0.00     0.160 HD
ATOM     10  H3  <0> d           0.817   1.840   0.004  0.00  0.00     0.165 HD
ENDBRANCH   1   4
BRANCH   1  11
ATOM     11  N3  <0> d          -1.656   2.395   1.399  0.00  0.00    -0.327 N 
ATOM     12  C3  <0> d          -1.342   3.605   1.902  0.00  0.00     0.315 C 
ATOM     13  O2  <0> d          -0.759   4.418   1.211  0.00  0.00    -0.248 OA
ATOM     14  N4  <0> d          -1.674   3.914   3.171  0.00  0.00    -0.352 N 
ATOM     15  H7  <0> d          -2.139   3.265   3.722  0.00  0.00     0.160 HD
ATOM     16  H8  <0> d          -1.448   4.785   3.533  0.00  0.00     0.160 HD
ATOM     17  H6  <0> d          -2.120   1.746   1.950  0.00  0.00     0.165 HD
ENDBRANCH   1  11
TORSDOF 2
