REMARK  1 active torsions:
REMARK  status: ('A' for Active; 'I' for Inactive)
REMARK    1  A    between atoms: C1_1  and  C2_2 
ROOT
ATOM      1  C2  <0> d          -0.718   1.572   1.248  0.00  0.00     0.051 A 
ATOM      2  C3  <0> d          -2.102   1.789   1.214  0.00  0.00    -0.054 A 
ATOM      3  C4  <0> d          -2.755   2.221   2.328  0.00  0.00    -0.033 A 
ATOM      4  C5  <0> d          -2.017   2.458   3.502  0.00  0.00     0.173 A 
ATOM      5  N1  <0> d          -2.334   2.875   4.717  0.00  0.00    -0.129 NA
ATOM      6  N2  <0> d          -1.270   2.923   5.441  0.00  0.00    -0.141 NA
ATOM      7  C6  <0> d          -0.229   2.546   4.741  0.00  0.00     0.111 A 
ATOM      8  N3  <0> d          -0.660   2.240   3.498  0.00  0.00    -0.206 N 
ATOM      9  N4  <0> d          -0.029   1.790   2.337  0.00  0.00    -0.170 NA
ATOM     10  H4  <0> d          -2.653   1.607   0.303  0.00  0.00     0.086 H 
ATOM     11  H5  <0> d          -3.822   2.386   2.309  0.00  0.00     0.089 H 
ATOM     12  H6  <0> d           0.790   2.489   5.095  0.00  0.00     0.149 H 
ENDROOT
BRANCH   1  13
ATOM     13  C1  <0> d          -0.013   1.086   0.008  0.00  0.00    -0.034 C 
ATOM     14  H1  <0> d           0.002  -0.004   0.002  0.00  0.00     0.035 H 
ATOM     15  H2  <0> d           1.010   1.463   0.000  0.00  0.00     0.035 H 
ATOM     16  H3  <0> d          -0.540   1.447  -0.875  0.00  0.00     0.035 H 
ENDBRANCH   1  13
TORSDOF 1
