REMARK  3 active torsions:
REMARK  status: ('A' for Active; 'I' for Inactive)
REMARK    1  A    between atoms: C2_3  and  N4_10 
REMARK    2  A    between atoms: N3_5  and  C3_6 
REMARK    3  A    between atoms: C3_6  and  C4_7 
ROOT
ATOM      1  C1  <0> d          -2.571   0.268   2.360  0.00  0.00     0.102 A 
ATOM      2  N1  <0> d          -3.787  -0.097   2.040  0.00  0.00    -0.055 NA
ATOM      3  C2  <0> d          -4.090   0.361   0.821  0.00  0.00     0.738 A 
ATOM      4  N2  <0> d          -3.063   1.031   0.354  0.00  0.00     0.022 NA
ATOM      5  N3  <0> d          -2.062   0.977   1.338  0.00  0.00    -0.242 N 
ATOM      6  H1  <0> d          -2.064   0.038   3.285  0.00  0.00     0.147 H 
ENDROOT
BRANCH   5   7
ATOM      7  C3  <0> d          -0.729   1.579   1.267  0.00  0.00     0.073 C 
ATOM      8  H2  <0> d          -0.154   1.294   2.148  0.00  0.00     0.075 H 
ATOM      9  H3  <0> d          -0.822   2.665   1.230  0.00  0.00     0.075 H 
BRANCH   7  10
ATOM     10  C4  <0> d          -0.013   1.086   0.008  0.00  0.00     0.225 C 
ATOM     11  F1  <0> d           1.300   1.570  -0.002  0.00  0.00    -0.213 F 
ATOM     12  F2  <0> d          -0.689   1.549  -1.125  0.00  0.00    -0.213 F 
ATOM     13  H4  <0> d           0.002  -0.004   0.002  0.00  0.00     0.147 H 
ENDBRANCH   7  10
ENDBRANCH   5   7
BRANCH   3  14
ATOM     14  N4  <0> d          -5.302   0.164   0.157  0.00  0.00    -0.230 N 
ATOM     15  H5  <0> d          -6.011  -0.343   0.583  0.00  0.00     0.174 HD
ATOM     16  H6  <0> d          -5.435   0.534  -0.729  0.00  0.00     0.174 HD
ENDBRANCH   3  14
TORSDOF 3
