REMARK  2 active torsions:
REMARK  status: ('A' for Active; 'I' for Inactive)
REMARK    1  A    between atoms: C1_1  and  C2_2 
REMARK    2  A    between atoms: C2_2  and  C3_4 
ROOT
ATOM      1  C3  <0> d          -1.444   3.691   0.136  0.00  0.00     0.061 C 
ATOM      2  H1  <0> d          -2.516   3.460   0.212  0.00  0.00     0.063 H 
ATOM      3  C4  <0> d          -0.677   3.107   1.327  0.00  0.00    -0.049 C 
ATOM      4  C5  <0> d          -0.729   1.579   1.266  0.00  0.00    -0.064 C 
ATOM      5  C6  <0> d          -0.013   1.086   0.008  0.00  0.00    -0.059 C 
ATOM      6  C7  <0> d          -0.754   1.594  -1.233  0.00  0.00    -0.009 C 
ATOM      7  C8  <0> d          -0.879   3.098  -1.136  0.00  0.00     0.138 C 
ATOM      8  O2  <0> d          -0.537   3.808  -2.051  0.00  0.00    -0.297 OA
ATOM      9  H5  <0> d           0.371   3.440   1.288  0.00  0.00     0.034 H 
ATOM     10  H6  <0> d          -1.137   3.453   2.264  0.00  0.00     0.034 H 
ATOM     11  H7  <0> d          -0.234   1.160   2.155  0.00  0.00     0.033 H 
ATOM     12  H8  <0> d          -1.778   1.249   1.240  0.00  0.00     0.033 H 
ATOM     13  H9  <0> d           1.019   1.467   0.001  0.00  0.00     0.033 H 
ATOM     14  H10 <0> d           0.002  -0.014   0.002  0.00  0.00     0.033 H 
ATOM     15  H11 <0> d          -0.188   1.321  -2.136  0.00  0.00     0.044 H 
ATOM     16  H12 <0> d          -1.754   1.136  -1.276  0.00  0.00     0.044 H 
ENDROOT
BRANCH   1  17
ATOM     17  C2  <0> d          -1.283   5.189   0.111  0.00  0.00     0.134 C 
ATOM     18  O1  <0> d          -0.283   5.697   0.559  0.00  0.00    -0.298 OA
BRANCH  17  19
ATOM     19  C1  <0> d          -2.370   6.054  -0.473  0.00  0.00    -0.020 C 
ATOM     20  H2  <0> d          -3.195   5.417  -0.828  0.00  0.00     0.037 H 
ATOM     21  H3  <0> d          -1.966   6.632  -1.317  0.00  0.00     0.037 H 
ATOM     22  H4  <0> d          -2.745   6.743   0.298  0.00  0.00     0.037 H 
ENDBRANCH  17  19
ENDBRANCH   1  17
TORSDOF 2
