REMARK  0 active torsions:
REMARK  status: ('A' for Active; 'I' for Inactive)
ROOT
ATOM      1  C1  <0> d          -0.756   1.595  -1.231  0.00  0.00    -0.035 C 
ATOM      2  C2  <0> d          -0.013   1.086   0.008  0.00  0.00    -0.002 C 
ATOM      3  N1  <0> d          -0.700   1.559   1.210  0.00  0.00    -0.343 N 
ATOM      4  C3  <0> d          -1.394   2.708   1.210  0.00  0.00     0.316 C 
ATOM      5  O1  <0> d          -1.939   3.061   2.238  0.00  0.00    -0.247 OA
ATOM      6  N2  <0> d          -1.508   3.483   0.121  0.00  0.00    -0.343 N 
ATOM      7  C4  <0> d          -0.865   3.121  -1.143  0.00  0.00    -0.002 C 
ATOM      8  H1  <0> d          -0.203   1.319  -2.129  0.00  0.00     0.037 H 
ATOM      9  H2  <0> d          -1.754   1.158  -1.264  0.00  0.00     0.037 H 
ATOM     10  H3  <0> d           0.002  -0.004   0.002  0.00  0.00     0.064 H 
ATOM     11  H4  <0> d           1.010   1.464   0.000  0.00  0.00     0.064 H 
ATOM     12  H5  <0> d          -0.655   1.031   2.023  0.00  0.00     0.164 HD
ATOM     13  H6  <0> d          -2.027   4.301   0.173  0.00  0.00     0.164 HD
ATOM     14  H7  <0> d           0.131   3.560  -1.184  0.00  0.00     0.064 H 
ATOM     15  H8  <0> d          -1.462   3.492  -1.976  0.00  0.00     0.064 H 
ENDROOT
TORSDOF 0
