REMARK  5 active torsions:
REMARK  status: ('A' for Active; 'I' for Inactive)
REMARK    1  A    between atoms: C1_1  and  C2_2 
REMARK    2  A    between atoms: C2_2  and  C3_3 
REMARK    3  A    between atoms: C3_3  and  C4_5 
REMARK    4  A    between atoms: C5_6  and  C9_12 
REMARK    5  A    between atoms: C7_8  and  C8_11 
ROOT
ATOM      1  C4  <0> d          -1.651  -1.919   0.007  0.00  0.00     0.084 A 
ATOM      2  C5  <0> d          -2.889  -2.538   0.011  0.00  0.00    -0.030 A 
ATOM      3  C6  <0> d          -2.656  -3.914   0.003  0.00  0.00    -0.054 A 
ATOM      4  C7  <0> d          -1.314  -4.109  -0.004  0.00  0.00     0.006 A 
ATOM      5  N1  <0> d          -0.694  -2.911  -0.007  0.00  0.00    -0.357 N 
ATOM      6  H1  <0> d           0.265  -2.771  -0.016  0.00  0.00     0.166 HD
ATOM      7  H7  <0> d          -3.411  -4.686   0.003  0.00  0.00     0.087 H 
ENDROOT
BRANCH   1   8
ATOM      8  C3  <0> d          -1.412  -0.526   0.013  0.00  0.00     0.176 C 
ATOM      9  O1  <0> d          -2.345   0.251   0.026  0.00  0.00    -0.291 OA
BRANCH   8  10
ATOM     10  C2  <0> d           0.002  -0.004   0.002  0.00  0.00    -0.007 C 
ATOM     11  H5  <0> d           0.512  -0.356  -0.895  0.00  0.00     0.044 H 
ATOM     12  H6  <0> d           0.529  -0.365   0.885  0.00  0.00     0.044 H 
BRANCH  10  13
ATOM     13  C1  <0> d          -0.019   1.526   0.010  0.00  0.00    -0.070 C 
ATOM     14  H2  <0> d           1.004   1.903   0.003  0.00  0.00     0.028 H 
ATOM     15  H3  <0> d          -0.546   1.887  -0.873  0.00  0.00     0.028 H 
ATOM     16  H4  <0> d          -0.529   1.877   0.907  0.00  0.00     0.028 H 
ENDBRANCH  10  13
ENDBRANCH   8  10
ENDBRANCH   1   8
BRANCH   2  17
ATOM     17  C9  <0> d          -4.233  -1.855   0.020  0.00  0.00    -0.049 C 
ATOM     18  H11 <0> d          -4.562  -1.686  -1.005  0.00  0.00     0.033 H 
ATOM     19  H12 <0> d          -4.957  -2.487   0.534  0.00  0.00     0.033 H 
ATOM     20  H13 <0> d          -4.152  -0.900   0.538  0.00  0.00     0.033 H 
ENDBRANCH   2  17
BRANCH   4  21
ATOM     21  C8  <0> d          -0.626  -5.450  -0.013  0.00  0.00    -0.037 C 
ATOM     22  H8  <0> d          -0.464  -5.769  -1.042  0.00  0.00     0.035 H 
ATOM     23  H9  <0> d           0.334  -5.369   0.497  0.00  0.00     0.035 H 
ATOM     24  H10 <0> d          -1.249  -6.182   0.501  0.00  0.00     0.035 H 
ENDBRANCH   4  21
TORSDOF 5
