REMARK  6 active torsions:
REMARK  status: ('A' for Active; 'I' for Inactive)
REMARK    1  A    between atoms: C1_1  and  C2_2 
REMARK    2  A    between atoms: C2_2  and  C3_4 
REMARK    3  A    between atoms: C2_2  and  O1_8 
REMARK    4  A    between atoms: C3_4  and  C4_5 
REMARK    5  A    between atoms: C4_5  and  C5_6 
REMARK    6  A    between atoms: C4_5  and  C6_7 
ROOT
ATOM      1  C3  <0> d           0.905  -0.475  -1.159  0.00  0.00    -0.039 C 
ATOM      2  H5  <0> d           0.455  -0.134  -2.091  0.00  0.00     0.037 H 
ATOM      3  H6  <0> d           1.916  -0.075  -1.076  0.00  0.00     0.037 H 
ENDROOT
BRANCH   1   4
ATOM      4  C2  <0> d           0.065   0.013   0.022  0.00  0.00     0.032 C 
ATOM      5  H1  <0> d           0.481  -0.378   0.951  0.00  0.00     0.082 H 
BRANCH   4   6
ATOM      6  C1  <0> d           0.079   1.542   0.061  0.00  0.00    -0.052 C 
ATOM      7  H2  <0> d           1.105   1.893   0.175  0.00  0.00     0.030 H 
ATOM      8  H3  <0> d          -0.337   1.933  -0.868  0.00  0.00     0.030 H 
ATOM      9  H4  <0> d          -0.520   1.891   0.902  0.00  0.00     0.030 H 
ENDBRANCH   4   6
BRANCH   4  10
ATOM     10  O1  <0> d          -1.280  -0.447  -0.128  0.00  0.00    -0.396 OA
ATOM     11  H14 <0> d          -1.871  -0.174   0.587  0.00  0.00     0.210 HD
ENDBRANCH   4  10
ENDBRANCH   1   4
BRANCH   1  12
ATOM     12  C4  <0> d           0.960  -2.004  -1.148  0.00  0.00    -0.059 C 
ATOM     13  H7  <0> d          -0.053  -2.404  -1.127  0.00  0.00     0.039 H 
BRANCH  12  14
ATOM     14  C5  <0> d           1.677  -2.498  -2.407  0.00  0.00    -0.073 C 
ATOM     15  H8  <0> d           1.770  -3.583  -2.370  0.00  0.00     0.028 H 
ATOM     16  H9  <0> d           1.101  -2.212  -3.288  0.00  0.00     0.028 H 
ATOM     17  H10 <0> d           2.669  -2.049  -2.460  0.00  0.00     0.028 H 
ENDBRANCH  12  14
BRANCH  12  18
ATOM     18  C6  <0> d           1.722  -2.479   0.091  0.00  0.00    -0.073 C 
ATOM     19  H11 <0> d           1.212  -2.127   0.988  0.00  0.00     0.028 H 
ATOM     20  H12 <0> d           1.761  -3.568   0.099  0.00  0.00     0.028 H 
ATOM     21  H13 <0> d           2.736  -2.079   0.069  0.00  0.00     0.028 H 
ENDBRANCH  12  18
ENDBRANCH   1  12
TORSDOF 6
