REMARK  1 active torsions:
REMARK  status: ('A' for Active; 'I' for Inactive)
REMARK    1  A    between atoms: C7_7  and  N1_10 
ROOT
ATOM      1  C1  <0> d           1.183   2.077   0.002  0.00  0.00    -0.082 A 
ATOM      2  C2  <0> d          -0.017   1.376   0.010  0.00  0.00    -0.082 A 
ATOM      3  C3  <0> d           0.002  -0.004   0.002  0.00  0.00    -0.066 A 
ATOM      4  C4  <0> d           1.211  -0.667  -0.013  0.00  0.00     0.017 A 
ATOM      5  C5  <0> d           2.444   0.021  -0.021  0.00  0.00     0.008 A 
ATOM      6  C6  <0> d           2.381   1.435  -0.013  0.00  0.00    -0.070 A 
ATOM      7  C7  <0> d           3.620  -0.840  -0.037  0.00  0.00     0.044 A 
ATOM      8  C8  <0> d           3.457  -2.174  -0.043  0.00  0.00    -0.018 A 
ATOM      9  S1  <0> d           1.686  -2.376  -0.027  0.00  0.00    -0.099 SA
ATOM     10  H1  <0> d           1.163   3.156   0.008  0.00  0.00     0.083 H 
ATOM     11  H2  <0> d          -0.957   1.907   0.017  0.00  0.00     0.083 H 
ATOM     12  H3  <0> d          -0.923  -0.561   0.007  0.00  0.00     0.085 H 
ATOM     13  H4  <0> d           3.295   2.010  -0.018  0.00  0.00     0.085 H 
ATOM     14  H5  <0> d           4.217  -2.940  -0.054  0.00  0.00     0.098 H 
ENDROOT
BRANCH   7  15
ATOM     15  N1  <0> d           4.912  -0.281  -0.046  0.00  0.00    -0.398 N 
ATOM     16  H6  <0> d           5.795  -0.936  -0.058  0.00  0.00     0.156 HD
ATOM     17  H7  <0> d           5.038   0.812  -0.041  0.00  0.00     0.156 HD
ENDBRANCH   7  15
TORSDOF 1
