REMARK  3 active torsions:
REMARK  status: ('A' for Active; 'I' for Inactive)
REMARK    1  A    between atoms: C1_1  and  C2_2 
REMARK    2  A    between atoms: C6_6  and  O1_8 
REMARK    3  A    between atoms: O1_8  and  C8_9 
ROOT
ATOM      1  C2  <0> d          -1.536   4.775   2.637  0.00  0.00    -0.058 A 
ATOM      2  C3  <0> d          -1.012   5.637   1.696  0.00  0.00    -0.057 A 
ATOM      3  C4  <0> d          -0.369   5.128   0.566  0.00  0.00     0.047 A 
ATOM      4  C5  <0> d          -0.254   3.747   0.398  0.00  0.00    -0.031 A 
ATOM      5  C6  <0> d          -0.787   2.892   1.346  0.00  0.00     0.070 A 
ATOM      6  C7  <0> d          -1.426   3.407   2.466  0.00  0.00    -0.045 A 
ATOM      7  C9  <0> d           0.176   6.020  -0.413  0.00  0.00     0.099 C 
ATOM      8  N1  <0> d           0.608   6.727  -1.190  0.00  0.00    -0.191 NA
ATOM      9  H4  <0> d          -1.101   6.705   1.832  0.00  0.00     0.086 H 
ATOM     10  H5  <0> d           0.247   3.348  -0.472  0.00  0.00     0.090 H 
ATOM     11  H6  <0> d          -1.837   2.738   3.207  0.00  0.00     0.088 H 
ENDROOT
BRANCH   1  12
ATOM     12  C1  <0> d          -2.231   5.326   3.856  0.00  0.00    -0.051 C 
ATOM     13  H1  <0> d          -2.221   6.425   3.818  0.00  0.00     0.033 H 
ATOM     14  H2  <0> d          -1.708   4.985   4.762  0.00  0.00     0.033 H 
ATOM     15  H3  <0> d          -3.271   4.969   3.878  0.00  0.00     0.033 H 
ENDBRANCH   1  12
BRANCH   5  16
ATOM     16  O1  <0> d          -0.682   1.547   1.184  0.00  0.00    -0.356 OA
BRANCH  16  17
ATOM     17  C8  <0> d          -0.013   1.086   0.008  0.00  0.00     0.010 C 
ATOM     18  H7  <0> d           0.002  -0.014   0.002  0.00  0.00     0.066 H 
ATOM     19  H8  <0> d           1.019   1.466   0.000  0.00  0.00     0.066 H 
ATOM     20  H9  <0> d          -0.545   1.450  -0.883  0.00  0.00     0.066 H 
ENDBRANCH  16  17
ENDBRANCH   5  16
TORSDOF 3
