REMARK  3 active torsions:
REMARK  status: ('A' for Active; 'I' for Inactive)
REMARK    1  A    between atoms: C1_1  and  C2_2 
REMARK    2  A    between atoms: C4_7  and  C5_9 
REMARK    3  A    between atoms: C4_7  and  C6_10 
ROOT
ATOM      1  C2  <0> d          -0.738   1.424   1.326  0.00  0.00     0.115 C 
ATOM      2  H1  <0> d          -1.786   1.124   1.324  0.00  0.00     0.098 H 
ATOM      3  C3  <0> d          -0.621   2.932   1.370  0.00  0.00     0.248 C 
ATOM      4  O1  <0> d          -1.271   3.722   0.719  0.00  0.00    -0.271 OA
ATOM      5  N1  <0> d           0.342   3.238   2.268  0.00  0.00    -0.328 N 
ATOM      6  C4  <0> d           0.878   1.986   2.819  0.00  0.00     0.130 C 
ATOM      7  O2  <0> d          -0.089   0.962   2.527  0.00  0.00    -0.347 OA
ATOM      8  H5  <0> d           0.630   4.132   2.509  0.00  0.00     0.165 HD
ENDROOT
BRANCH   6   9
ATOM      9  C5  <0> d           1.064   2.116   4.332  0.00  0.00    -0.031 C 
ATOM     10  H6  <0> d           1.438   1.175   4.734  0.00  0.00     0.034 H 
ATOM     11  H7  <0> d           1.779   2.911   4.543  0.00  0.00     0.034 H 
ATOM     12  H8  <0> d           0.107   2.355   4.796  0.00  0.00     0.034 H 
ENDBRANCH   6   9
BRANCH   6  13
ATOM     13  C6  <0> d           2.215   1.650   2.154  0.00  0.00    -0.031 C 
ATOM     14  H9  <0> d           2.111   1.723   1.071  0.00  0.00     0.034 H 
ATOM     15  H10 <0> d           2.976   2.352   2.494  0.00  0.00     0.034 H 
ATOM     16  H11 <0> d           2.510   0.636   2.423  0.00  0.00     0.034 H 
ENDBRANCH   6  13
BRANCH   1  17
ATOM     17  C1  <0> d          -0.026   0.871   0.090  0.00  0.00    -0.044 C 
ATOM     18  H2  <0> d           0.072  -0.211   0.181  0.00  0.00     0.031 H 
ATOM     19  H3  <0> d           0.965   1.319   0.011  0.00  0.00     0.031 H 
ATOM     20  H4  <0> d          -0.606   1.110  -0.801  0.00  0.00     0.031 H 
ENDBRANCH   1  17
TORSDOF 3
