REMARK  2 active torsions:
REMARK  status: ('A' for Active; 'I' for Inactive)
REMARK    1  A    between atoms: C2_2  and  C3_3 
REMARK    2  A    between atoms: C6_6  and  N1_9 
ROOT
ATOM      1  C3  <0> d           1.221  -0.684  -0.013  0.00  0.00    -0.037 A 
ATOM      2  C4  <0> d           0.002  -0.004   0.002  0.00  0.00    -0.071 A 
ATOM      3  C5  <0> d          -0.017   1.374   0.010  0.00  0.00    -0.057 A 
ATOM      4  C6  <0> d           1.177   2.087   0.002  0.00  0.00     0.025 A 
ATOM      5  C7  <0> d           2.393   1.412  -0.013  0.00  0.00    -0.057 A 
ATOM      6  C8  <0> d           2.418   0.035  -0.021  0.00  0.00    -0.071 A 
ATOM      7  H4  <0> d          -0.925  -0.557   0.008  0.00  0.00     0.084 H 
ATOM      8  H5  <0> d          -0.960   1.901   0.017  0.00  0.00     0.086 H 
ATOM      9  H6  <0> d           3.319   1.969  -0.019  0.00  0.00     0.086 H 
ATOM     10  H7  <0> d           3.363  -0.489  -0.032  0.00  0.00     0.084 H 
ENDROOT
BRANCH   1  11
ATOM     11  C2  <0> d           1.245  -2.161  -0.021  0.00  0.00    -0.082 C 
ATOM     12  C1  <0> d           2.404  -2.806  -0.035  0.00  0.00    -0.120 C 
ATOM     13  H1  <0> d           3.330  -2.251  -0.042  0.00  0.00     0.066 H 
ATOM     14  H2  <0> d           2.421  -3.886  -0.041  0.00  0.00     0.066 H 
ATOM     15  H3  <0> d           0.318  -2.716  -0.015  0.00  0.00     0.083 H 
ENDBRANCH   1  11
BRANCH   4  16
ATOM     16  N1  <0> d           1.155   3.482   0.010  0.00  0.00    -0.399 N 
ATOM     17  H8  <0> d           0.307   3.953   0.020  0.00  0.00     0.156 HD
ATOM     18  H9  <0> d           1.987   3.980   0.004  0.00  0.00     0.156 HD
ENDBRANCH   4  16
TORSDOF 2
