REMARK  2 active torsions:
REMARK  status: ('A' for Active; 'I' for Inactive)
REMARK    1  A    between atoms: C3_3  and  C6_7 
REMARK    2  A    between atoms: C6_7  and  C7_8 
ROOT
ATOM      1  C6  <0> d           2.495   1.040  -0.015  0.00  0.00    -0.000 C 
ATOM      2  H6  <0> d           3.251   1.638   0.495  0.00  0.00     0.049 H 
ATOM      3  H7  <0> d           2.383   0.084   0.495  0.00  0.00     0.049 H 
ENDROOT
BRANCH   1   4
ATOM      4  C3  <0> d           1.180   1.775   0.000  0.00  0.00    -0.035 A 
ATOM      5  C2  <0> d           1.150   3.161   0.008  0.00  0.00    -0.074 A 
ATOM      6  C1  <0> d          -0.084   3.795   0.022  0.00  0.00    -0.066 A 
ATOM      7  H3  <0> d           2.065   3.734   0.002  0.00  0.00     0.084 H 
ATOM      8  C5  <0> d          -1.234   3.029   0.029  0.00  0.00     0.002 A 
ATOM      9  H2  <0> d          -0.145   4.873   0.028  0.00  0.00     0.085 H 
ATOM     10  N1  <0> d          -1.167   1.712   0.017  0.00  0.00    -0.273 NA
ATOM     11  H5  <0> d          -2.198   3.515   0.041  0.00  0.00     0.114 H 
ATOM     12  C4  <0> d          -0.013   1.076   0.008  0.00  0.00     0.008 A 
ATOM     13  H4  <0> d           0.002  -0.004   0.002  0.00  0.00     0.115 H 
ENDBRANCH   1   4
BRANCH   1  14
ATOM     14  C7  <0> d           2.921   0.802  -1.441  0.00  0.00     0.032 A 
ATOM     15  N3  <0> d           2.701  -0.329  -2.180  0.00  0.00    -0.353 N 
ATOM     16  C9  <0> d           3.243  -0.121  -3.400  0.00  0.00     0.064 A 
ATOM     17  H1  <0> d           2.228  -1.155  -1.874  0.00  0.00     0.166 HD
ATOM     18  N2  <0> d           3.778   1.069  -3.422  0.00  0.00    -0.254 NA
ATOM     19  H9  <0> d           3.236  -0.824  -4.219  0.00  0.00     0.143 H 
ATOM     20  C8  <0> d           3.595   1.659  -2.231  0.00  0.00     0.025 A 
ATOM     21  H8  <0> d           3.930   2.648  -1.955  0.00  0.00     0.117 H 
ENDBRANCH   1  14
TORSDOF 2
