REMARK  2 active torsions:
REMARK  status: ('A' for Active; 'I' for Inactive)
REMARK    1  A    between atoms: C1_1  and  C2_2 
REMARK    2  A    between atoms: C2_2  and  C3_4 
ROOT
ATOM      1  C3  <0> d          -1.266  -0.759   0.010  0.00  0.00     0.103 A 
ATOM      2  C4  <0> d          -1.240  -2.154   0.008  0.00  0.00    -0.031 A 
ATOM      3  C5  <0> d          -2.441  -2.849   0.016  0.00  0.00     0.037 A 
ATOM      4  C6  <0> d          -3.624  -2.125   0.026  0.00  0.00    -0.045 A 
ATOM      5  C7  <0> d          -3.574  -0.740   0.027  0.00  0.00     0.004 A 
ATOM      6  N1  <0> d          -2.422  -0.105   0.025  0.00  0.00    -0.257 NA
ATOM      7 Cl1  <0> d          -2.462  -4.585   0.014  0.00  0.00    -0.084 Cl
ATOM      8  H4  <0> d          -0.300  -2.685   0.000  0.00  0.00     0.089 H 
ATOM      9  H5  <0> d          -4.576  -2.635   0.032  0.00  0.00     0.088 H 
ATOM     10  H6  <0> d          -4.494  -0.173   0.035  0.00  0.00     0.114 H 
ENDROOT
BRANCH   1  11
ATOM     11  C2  <0> d           0.002  -0.004   0.002  0.00  0.00     0.174 C 
ATOM     12  O1  <0> d           1.060  -0.596  -0.011  0.00  0.00    -0.291 OA
BRANCH  11  13
ATOM     13  C1  <0> d          -0.018   1.503   0.010  0.00  0.00    -0.015 C 
ATOM     14  H1  <0> d           1.004   1.880   0.003  0.00  0.00     0.038 H 
ATOM     15  H2  <0> d          -0.545   1.864  -0.873  0.00  0.00     0.038 H 
ATOM     16  H3  <0> d          -0.529   1.854   0.907  0.00  0.00     0.038 H 
ENDBRANCH  11  13
ENDBRANCH   1  11
TORSDOF 2
