REMARK  2 active torsions:
REMARK  status: ('A' for Active; 'I' for Inactive)
REMARK    1  A    between atoms: C1_1  and  C2_2 
REMARK    2  A    between atoms: C5_5  and  C11_11 
ROOT
ATOM      1  C2  <0> d           0.002  -0.004   0.002  0.00  0.00    -0.055 A 
ATOM      2  C3  <0> d           0.006  -0.691  -1.201  0.00  0.00    -0.076 A 
ATOM      3  C4  <0> d           0.024  -2.074  -1.211  0.00  0.00    -0.076 A 
ATOM      4  C5  <0> d           0.039  -2.779  -0.025  0.00  0.00    -0.051 A 
ATOM      5  C6  <0> d           0.035  -2.095   1.192  0.00  0.00    -0.023 A 
ATOM      6  C7  <0> d           0.023  -0.698   1.189  0.00  0.00    -0.038 A 
ATOM      7  C8  <0> d           0.031  -0.271   2.636  0.00  0.00    -0.025 A 
ATOM      8  C9  <0> d           0.056  -1.553   3.435  0.00  0.00    -0.098 A 
ATOM      9  C10 <0> d           0.048  -2.569   2.589  0.00  0.00    -0.075 A 
ATOM     10  H4  <0> d          -0.006  -0.145  -2.133  0.00  0.00     0.084 H 
ATOM     11  H5  <0> d           0.027  -2.604  -2.151  0.00  0.00     0.084 H 
ATOM     12  H6  <0> d           0.919   0.324   2.849  0.00  0.00     0.046 H 
ATOM     13  H7  <0> d          -0.869   0.299   2.866  0.00  0.00     0.046 H 
ATOM     14  H8  <0> d           0.067  -1.627   4.512  0.00  0.00     0.077 H 
ATOM     15  H9  <0> d           0.062  -3.608   2.881  0.00  0.00     0.084 H 
ENDROOT
BRANCH   1  16
ATOM     16  C1  <0> d          -0.018   1.503   0.010  0.00  0.00    -0.051 C 
ATOM     17  H1  <0> d           1.004   1.880   0.003  0.00  0.00     0.033 H 
ATOM     18  H2  <0> d          -0.545   1.864  -0.873  0.00  0.00     0.033 H 
ATOM     19  H3  <0> d          -0.529   1.854   0.907  0.00  0.00     0.033 H 
ENDBRANCH   1  16
BRANCH   4  20
ATOM     20  C11 <0> d           0.058  -4.286  -0.044  0.00  0.00    -0.050 C 
ATOM     21  H10 <0> d           1.091  -4.636  -0.054  0.00  0.00     0.033 H 
ATOM     22  H11 <0> d          -0.446  -4.667   0.844  0.00  0.00     0.033 H 
ATOM     23  H12 <0> d          -0.455  -4.645  -0.936  0.00  0.00     0.033 H 
ENDBRANCH   4  20
TORSDOF 2
