REMARK  0 active torsions:
REMARK  status: ('A' for Active; 'I' for Inactive)
ROOT
ATOM      1  C1  <0> d           1.573   4.161   0.009  0.00  0.00    -0.069 A 
ATOM      2  C2  <0> d           2.910   3.898  -0.005  0.00  0.00    -0.062 A 
ATOM      3  C3  <0> d           3.372   2.574  -0.016  0.00  0.00     0.046 A 
ATOM      4  C4  <0> d           2.468   1.514  -0.013  0.00  0.00    -0.036 A 
ATOM      5  C5  <0> d           1.106   1.773   0.001  0.00  0.00     0.043 A 
ATOM      6  C6  <0> d           0.654   3.107   0.013  0.00  0.00    -0.008 A 
ATOM      7  C7  <0> d          -0.807   3.038   0.026  0.00  0.00    -0.056 A 
ATOM      8  C8  <0> d          -1.140   1.736   0.016  0.00  0.00    -0.022 A 
ATOM      9  N1  <0> d          -0.011   0.966   0.007  0.00  0.00    -0.365 N 
ATOM     10  H1  <0> d           0.002  -0.004   0.002  0.00  0.00     0.165 HD
ATOM     11  C9  <0> d           4.779   2.311  -0.032  0.00  0.00     0.099 C 
ATOM     12  N2  <0> d           5.896   2.102  -0.044  0.00  0.00    -0.191 NA
ATOM     13  H2  <0> d           1.224   5.183   0.018  0.00  0.00     0.085 H 
ATOM     14  H3  <0> d           3.618   4.714  -0.007  0.00  0.00     0.085 H 
ATOM     15  H4  <0> d           2.827   0.495  -0.022  0.00  0.00     0.089 H 
ATOM     16  H5  <0> d          -1.490   3.875   0.037  0.00  0.00     0.086 H 
ATOM     17  H6  <0> d          -2.150   1.354   0.018  0.00  0.00     0.111 H 
ENDROOT
TORSDOF 0
