REMARK  4 active torsions:
REMARK  status: ('A' for Active; 'I' for Inactive)
REMARK    1  A    between atoms: C1_1  and  C2_2 
REMARK    2  A    between atoms: C4_5  and  C5_7 
REMARK    3  A    between atoms: C5_7  and  O3_9 
REMARK    4  A    between atoms: O3_9  and  C6_10 
ROOT
ATOM      1  C2  <0> d           2.044   0.674  -0.014  0.00  0.00     0.142 A 
ATOM      2  N1  <0> d           1.282  -0.387  -0.012  0.00  0.00    -0.238 NA
ATOM      3  C3  <0> d           0.002  -0.004   0.002  0.00  0.00     0.043 A 
ATOM      4  C4  <0> d          -0.016   1.360   0.009  0.00  0.00     0.170 A 
ATOM      5  O1  <0> d           1.275   1.767  -0.001  0.00  0.00    -0.289 OA
ATOM      6  H4  <0> d          -0.860  -0.655   0.006  0.00  0.00     0.119 H 
ENDROOT
BRANCH   4   7
ATOM      7  C5  <0> d          -1.204   2.219   0.020  0.00  0.00     0.318 C 
ATOM      8  O2  <0> d          -2.314   1.722   0.023  0.00  0.00    -0.257 OA
BRANCH   7   9
ATOM      9  O3  <0> d          -1.066   3.561   0.027  0.00  0.00    -0.321 OA
BRANCH   9  10
ATOM     10  C6  <0> d          -2.285   4.349   0.037  0.00  0.00     0.013 C 
ATOM     11  H5  <0> d          -2.030   5.419   0.042  0.00  0.00     0.067 H 
ATOM     12  H6  <0> d          -2.870   4.107   0.937  0.00  0.00     0.067 H 
ATOM     13  H7  <0> d          -2.879   4.117  -0.859  0.00  0.00     0.067 H 
ENDBRANCH   9  10
ENDBRANCH   7   9
ENDBRANCH   4   7
BRANCH   1  14
ATOM     14  C1  <0> d           3.551   0.667  -0.028  0.00  0.00    -0.015 C 
ATOM     15  H1  <0> d           3.913  -0.371  -0.037  0.00  0.00     0.038 H 
ATOM     16  H2  <0> d           3.928   1.179   0.870  0.00  0.00     0.038 H 
ATOM     17  H3  <0> d           3.912   1.189  -0.926  0.00  0.00     0.038 H 
ENDBRANCH   1  14
TORSDOF 4
