REMARK  2 active torsions:
REMARK  status: ('A' for Active; 'I' for Inactive)
REMARK    1  A    between atoms: C1_1  and  C2_2 
REMARK    2  A    between atoms: N2_6  and  C5_7 
ROOT
ATOM      1  C2  <0> d          -0.698   3.525   0.026  0.00  0.00     0.029 A 
ATOM      2  C3  <0> d          -1.166   2.255   0.019  0.00  0.00    -0.020 A 
ATOM      3  C4  <0> d          -0.017   1.428   0.010  0.00  0.00     0.158 A 
ATOM      4  N1  <0> d           1.031   2.227   0.004  0.00  0.00    -0.162 NA
ATOM      5  N2  <0> d           0.651   3.454   0.014  0.00  0.00    -0.278 N 
ATOM      6  C6  <0> d           0.002  -0.004   0.002  0.00  0.00     0.121 C 
ATOM      7  N3  <0> d           0.018  -1.140  -0.004  0.00  0.00    -0.190 NA
ATOM      8  H4  <0> d          -2.199   1.939   0.022  0.00  0.00     0.091 H 
ENDROOT
BRANCH   1   9
ATOM      9  C1  <0> d          -1.526   4.783   0.041  0.00  0.00    -0.036 C 
ATOM     10  H1  <0> d          -1.736   5.092  -0.983  0.00  0.00     0.035 H 
ATOM     11  H2  <0> d          -2.465   4.594   0.562  0.00  0.00     0.035 H 
ATOM     12  H3  <0> d          -0.978   5.573   0.554  0.00  0.00     0.035 H 
ENDBRANCH   1   9
BRANCH   5  13
ATOM     13  C5  <0> d           1.551   4.610   0.011  0.00  0.00     0.003 C 
ATOM     14  H5  <0> d           1.764   4.901  -1.018  0.00  0.00     0.059 H 
ATOM     15  H6  <0> d           1.076   5.441   0.532  0.00  0.00     0.059 H 
ATOM     16  H7  <0> d           2.481   4.348   0.515  0.00  0.00     0.059 H 
ENDBRANCH   5  13
TORSDOF 2
