REMARK  0 active torsions:
REMARK  status: ('A' for Active; 'I' for Inactive)
ROOT
ATOM      1  C1  <0> d           0.002  -0.004   0.002  0.00  0.00    -0.079 A 
ATOM      2  C2  <0> d          -0.016   1.358   0.009  0.00  0.00    -0.071 A 
ATOM      3  C3  <0> d           1.195   2.067   0.002  0.00  0.00    -0.005 A 
ATOM      4  C4  <0> d           1.237   3.471   0.008  0.00  0.00     0.013 A 
ATOM      5  N1  <0> d           2.394   4.090   0.000  0.00  0.00    -0.272 NA
ATOM      6  C5  <0> d           3.553   3.446  -0.014  0.00  0.00     0.003 A 
ATOM      7  C6  <0> d           3.620   2.086  -0.021  0.00  0.00    -0.052 A 
ATOM      8  C7  <0> d           2.420   1.351  -0.013  0.00  0.00     0.015 A 
ATOM      9  C8  <0> d           2.401  -0.053  -0.021  0.00  0.00     0.127 A 
ATOM     10  C9  <0> d           1.204  -0.708  -0.014  0.00  0.00    -0.045 A 
ATOM     11  F1  <0> d           3.559  -0.749  -0.035  0.00  0.00    -0.205 F 
ATOM     12  H1  <0> d          -0.931  -0.548   0.008  0.00  0.00     0.083 H 
ATOM     13  H2  <0> d          -0.957   1.889   0.017  0.00  0.00     0.084 H 
ATOM     14  H3  <0> d           0.319   4.040   0.020  0.00  0.00     0.116 H 
ATOM     15  H4  <0> d           4.470   4.016  -0.020  0.00  0.00     0.114 H 
ATOM     16  H5  <0> d           4.574   1.581  -0.032  0.00  0.00     0.087 H 
ATOM     17  H6  <0> d           1.188  -1.787  -0.020  0.00  0.00     0.088 H 
ENDROOT
TORSDOF 0
