REMARK  2 active torsions:
REMARK  status: ('A' for Active; 'I' for Inactive)
REMARK    1  A    between atoms: C1_1  and  N1_2 
REMARK    2  A    between atoms: N1_2  and  C2_3 
ROOT
ATOM      1  C2  <0> d          -0.868   2.927  -1.389  0.00  0.00     0.129 A 
ATOM      2  C3  <0> d          -1.542   3.391  -2.506  0.00  0.00     0.026 A 
ATOM      3  C4  <0> d          -1.668   4.776  -2.682  0.00  0.00     0.249 A 
ATOM      4  N2  <0> d          -1.130   5.599  -1.758  0.00  0.00    -0.318 N 
ATOM      5  C5  <0> d          -0.484   5.092  -0.689  0.00  0.00     0.069 A 
ATOM      6  N3  <0> d          -0.363   3.806  -0.508  0.00  0.00    -0.227 NA
ATOM      7  O1  <0> d          -2.254   5.229  -3.652  0.00  0.00    -0.268 OA
ATOM      8  H5  <0> d          -1.959   2.702  -3.225  0.00  0.00     0.098 H 
ATOM      9  H6  <0> d          -0.060   5.768   0.039  0.00  0.00     0.143 H 
ATOM     10  H7  <0> d          -1.208   6.560  -1.863  0.00  0.00     0.169 HD
ENDROOT
BRANCH   1  11
ATOM     11  N1  <0> d          -0.721   1.571  -1.179  0.00  0.00    -0.379 N 
ATOM     12  H4  <0> d          -1.087   0.939  -1.817  0.00  0.00     0.160 HD
BRANCH  11  13
ATOM     13  C1  <0> d          -0.013   1.086   0.008  0.00  0.00    -0.020 C 
ATOM     14  H1  <0> d           0.002  -0.004   0.002  0.00  0.00     0.056 H 
ATOM     15  H2  <0> d           1.010   1.463   0.000  0.00  0.00     0.056 H 
ATOM     16  H3  <0> d          -0.523   1.437   0.905  0.00  0.00     0.056 H 
ENDBRANCH  11  13
ENDBRANCH   1  11
TORSDOF 2
