REMARK  4 active torsions:
REMARK  status: ('A' for Active; 'I' for Inactive)
REMARK    1  A    between atoms: C1_1  and  C2_2 
REMARK    2  A    between atoms: C3_3  and  C6_8 
REMARK    3  A    between atoms: C4_5  and  C5_7 
REMARK    4  A    between atoms: C6_8  and  C7_10 
ROOT
ATOM      1  C2  <0> d          -0.697   1.567   3.789  0.00  0.00     0.052 A 
ATOM      2  C3  <0> d          -0.218   1.230   2.526  0.00  0.00     0.076 A 
ATOM      3  S1  <0> d           1.209   0.251   2.970  0.00  0.00    -0.070 SA
ATOM      4  C4  <0> d           1.037   0.370   4.694  0.00  0.00     0.072 A 
ATOM      5  N1  <0> d          -0.043   1.112   4.825  0.00  0.00    -0.250 NA
ENDROOT
BRANCH   2   6
ATOM      6  C6  <0> d          -0.718   1.572   1.248  0.00  0.00     0.164 C 
ATOM      7  O1  <0> d          -1.716   2.257   1.150  0.00  0.00    -0.292 OA
BRANCH   6   8
ATOM      8  C7  <0> d          -0.013   1.086   0.008  0.00  0.00    -0.016 C 
ATOM      9  H7  <0> d           0.001   0.086   0.003  0.00  0.00     0.038 H 
ATOM     10  H8  <0> d           1.010   1.463   0.000  0.00  0.00     0.038 H 
ATOM     11  H9  <0> d          -0.540   1.447  -0.875  0.00  0.00     0.038 H 
ENDBRANCH   6   8
ENDBRANCH   2   6
BRANCH   1  12
ATOM     12  C1  <0> d          -1.927   2.422   3.955  0.00  0.00    -0.034 C 
ATOM     13  H1  <0> d          -2.809   1.784   3.998  0.00  0.00     0.035 H 
ATOM     14  H2  <0> d          -1.848   2.996   4.878  0.00  0.00     0.035 H 
ATOM     15  H3  <0> d          -2.012   3.104   3.109  0.00  0.00     0.035 H 
ENDBRANCH   1  12
BRANCH   4  16
ATOM     16  C5  <0> d           1.907  -0.225   5.771  0.00  0.00    -0.029 C 
ATOM     17  H4  <0> d           2.698   0.479   6.030  0.00  0.00     0.036 H 
ATOM     18  H5  <0> d           1.302  -0.432   6.654  0.00  0.00     0.036 H 
ATOM     19  H6  <0> d           2.350  -1.153   5.409  0.00  0.00     0.036 H 
ENDBRANCH   4  16
TORSDOF 4
