REMARK  2 active torsions:
REMARK  status: ('A' for Active; 'I' for Inactive)
REMARK    1  A    between atoms: C1_1  and  C2_2 
REMARK    2  A    between atoms: C4_4  and  N3_12 
ROOT
ATOM      1  C2  <0> d           0.002  -0.004   0.002  0.00  0.00    -0.046 A 
ATOM      2  C3  <0> d           0.023  -0.693   1.178  0.00  0.00    -0.051 A 
ATOM      3  C4  <0> d           0.041  -2.089   1.183  0.00  0.00     0.028 A 
ATOM      4  C5  <0> d           0.040  -2.795  -0.007  0.00  0.00    -0.030 A 
ATOM      5  C6  <0> d           0.019  -2.107  -1.216  0.00  0.00     0.064 A 
ATOM      6  C7  <0> d          -0.006  -0.699  -1.213  0.00  0.00     0.017 A 
ATOM      7  C8  <0> d          -0.018  -0.287  -2.613  0.00  0.00     0.034 A 
ATOM      8  N1  <0> d          -0.010  -1.364  -3.345  0.00  0.00    -0.186 NA
ATOM      9  N2  <0> d           0.012  -2.499  -2.530  0.00  0.00    -0.278 N 
ATOM     10  H1  <0> d           0.022  -3.446  -2.853  0.00  0.00     0.189 HD
ATOM     11  H5  <0> d           0.024  -0.155   2.114  0.00  0.00     0.087 H 
ATOM     12  H6  <0> d           0.054  -3.875   0.003  0.00  0.00     0.090 H 
ATOM     13  H7  <0> d          -0.035   0.730  -2.977  0.00  0.00     0.118 H 
ENDROOT
BRANCH   1  14
ATOM     14  C1  <0> d          -0.018   1.503   0.010  0.00  0.00    -0.050 C 
ATOM     15  H2  <0> d           1.004   1.880   0.003  0.00  0.00     0.033 H 
ATOM     16  H3  <0> d          -0.545   1.864  -0.873  0.00  0.00     0.033 H 
ATOM     17  H4  <0> d          -0.529   1.854   0.907  0.00  0.00     0.033 H 
ENDBRANCH   1  14
BRANCH   3  18
ATOM     18  N3  <0> d           0.061  -2.778   2.397  0.00  0.00    -0.399 N 
ATOM     19  H8  <0> d           0.062  -2.286   3.234  0.00  0.00     0.156 HD
ATOM     20  H9  <0> d           0.074  -3.748   2.405  0.00  0.00     0.156 HD
ENDBRANCH   3  18
TORSDOF 2
