REMARK  2 active torsions:
REMARK  status: ('A' for Active; 'I' for Inactive)
REMARK    1  A    between atoms: C1_1  and  C2_2 
REMARK    2  A    between atoms: C11_11  and  N1_12 
ROOT
ATOM      1  C2  <0> d           0.002  -0.004   0.002  0.00  0.00    -0.061 A 
ATOM      2  C3  <0> d           0.005  -0.684  -1.214  0.00  0.00    -0.076 A 
ATOM      3  C4  <0> d           0.024  -2.045  -1.256  0.00  0.00    -0.070 A 
ATOM      4  C5  <0> d           0.040  -2.776  -0.059  0.00  0.00     0.000 A 
ATOM      5  C6  <0> d           0.036  -2.087   1.179  0.00  0.00    -0.023 A 
ATOM      6  C7  <0> d           0.022  -0.681   1.183  0.00  0.00    -0.067 A 
ATOM      7  C8  <0> d           0.053  -2.818   2.378  0.00  0.00    -0.072 A 
ATOM      8  C9  <0> d           0.072  -4.179   2.345  0.00  0.00    -0.080 A 
ATOM      9  C10 <0> d           0.076  -4.868   1.136  0.00  0.00    -0.057 A 
ATOM     10  C11 <0> d           0.059  -4.188  -0.063  0.00  0.00     0.036 A 
ATOM     11  H4  <0> d          -0.007  -0.123  -2.137  0.00  0.00     0.084 H 
ATOM     12  H5  <0> d           0.026  -2.558  -2.206  0.00  0.00     0.085 H 
ATOM     13  H6  <0> d           0.024  -0.141   2.118  0.00  0.00     0.085 H 
ATOM     14  H7  <0> d           0.050  -2.300   3.326  0.00  0.00     0.084 H 
ATOM     15  H8  <0> d           0.085  -4.733   3.272  0.00  0.00     0.083 H 
ATOM     16  H9  <0> d           0.092  -5.948   1.137  0.00  0.00     0.086 H 
ENDROOT
BRANCH   1  17
ATOM     17  C1  <0> d          -0.018   1.503   0.010  0.00  0.00    -0.051 C 
ATOM     18  H1  <0> d           1.004   1.880   0.003  0.00  0.00     0.033 H 
ATOM     19  H2  <0> d          -0.545   1.864  -0.873  0.00  0.00     0.033 H 
ATOM     20  H3  <0> d          -0.529   1.854   0.907  0.00  0.00     0.033 H 
ENDBRANCH   1  17
BRANCH  10  21
ATOM     21  N1  <0> d           0.062  -4.887  -1.268  0.00  0.00    -0.398 N 
ATOM     22  H10 <0> d           0.051  -4.404  -2.109  0.00  0.00     0.156 HD
ATOM     23  H11 <0> d           0.076  -5.857  -1.266  0.00  0.00     0.156 HD
ENDBRANCH  10  21
TORSDOF 2
