REMARK  0 active torsions:
REMARK  status: ('A' for Active; 'I' for Inactive)
ROOT
ATOM      1  C1  <0> d          -0.017   1.379   0.010  0.00  0.00    -0.065 A 
ATOM      2  C2  <0> d           1.181   2.074   0.002  0.00  0.00    -0.064 A 
ATOM      3  C3  <0> d           2.371   1.341  -0.013  0.00  0.00     0.058 A 
ATOM      4  C4  <0> d           2.303  -0.054  -0.020  0.00  0.00     0.067 A 
ATOM      5  N1  <0> d           1.142  -0.671  -0.012  0.00  0.00    -0.263 NA
ATOM      6  C5  <0> d           0.002  -0.004   0.002  0.00  0.00     0.003 A 
ATOM      7  C6  <0> d           3.730  -0.547  -0.036  0.00  0.00     0.036 A 
ATOM      8  N2  <0> d           4.578   0.650  -0.038  0.00  0.00    -0.351 N 
ATOM      9  C7  <0> d           3.790   1.739  -0.025  0.00  0.00     0.254 A 
ATOM     10  O1  <0> d           4.189   2.887  -0.022  0.00  0.00    -0.268 OA
ATOM     11  H1  <0> d          -0.956   1.911   0.026  0.00  0.00     0.085 H 
ATOM     12  H2  <0> d           1.195   3.154   0.007  0.00  0.00     0.085 H 
ATOM     13  H3  <0> d          -0.931  -0.548   0.008  0.00  0.00     0.114 H 
ATOM     14  H4  <0> d           3.929  -1.146   0.852  0.00  0.00     0.073 H 
ATOM     15  H5  <0> d           3.912  -1.136  -0.935  0.00  0.00     0.073 H 
ATOM     16  H6  <0> d           5.548   0.655  -0.047  0.00  0.00     0.163 HD
ENDROOT
TORSDOF 0
