REMARK  2 active torsions:
REMARK  status: ('A' for Active; 'I' for Inactive)
REMARK    1  A    between atoms: C1_1  and  O1_2 
REMARK    2  A    between atoms: O1_2  and  C2_3 
ROOT
ATOM      1  C2  <0> d           2.207   1.207  -1.065  0.00  0.00     0.046 C 
ATOM      2  C3  <0> d           1.783   0.096  -1.609  0.00  0.00    -0.052 C 
ATOM      3  C4  <0> d           0.481  -0.550  -1.228  0.00  0.00     0.037 C 
ATOM      4  O2  <0> d           0.002  -0.004   0.002  0.00  0.00    -0.387 OA
ATOM      5  C5  <0> d          -0.017   1.429   0.010  0.00  0.00     0.025 C 
ATOM      6  C6  <0> d           1.429   1.932  -0.001  0.00  0.00    -0.001 C 
ATOM      7  H4  <0> d           2.395  -0.377  -2.362  0.00  0.00     0.084 H 
ATOM      8  H5  <0> d           0.631  -1.624  -1.113  0.00  0.00     0.080 H 
ATOM      9  H6  <0> d          -0.252  -0.370  -2.014  0.00  0.00     0.080 H 
ATOM     10  H7  <0> d          -0.540   1.794  -0.875  0.00  0.00     0.074 H 
ATOM     11  H8  <0> d          -0.523   1.784   0.908  0.00  0.00     0.074 H 
ATOM     12  H9  <0> d           1.439   3.002  -0.210  0.00  0.00     0.046 H 
ATOM     13  H10 <0> d           1.885   1.748   0.972  0.00  0.00     0.046 H 
ENDROOT
BRANCH   1  14
ATOM     14  O1  <0> d           3.392   1.725  -1.474  0.00  0.00    -0.360 OA
BRANCH  14  15
ATOM     15  C1  <0> d           4.099   1.005  -2.486  0.00  0.00     0.010 C 
ATOM     16  H1  <0> d           3.483   0.938  -3.383  0.00  0.00     0.066 H 
ATOM     17  H2  <0> d           5.028   1.526  -2.721  0.00  0.00     0.066 H 
ATOM     18  H3  <0> d           4.327   0.001  -2.126  0.00  0.00     0.066 H 
ENDBRANCH  14  15
ENDBRANCH   1  14
TORSDOF 2
