REMARK  5 active torsions:
REMARK  status: ('A' for Active; 'I' for Inactive)
REMARK    1  A    between atoms: C1_1  and  C2_2 
REMARK    2  A    between atoms: C2_2  and  C3_4 
REMARK    3  A    between atoms: C2_2  and  N1_7 
REMARK    4  A    between atoms: C3_4  and  C4_6 
REMARK       I    between atoms: N1_7  and  C5_8 
REMARK    5  A    between atoms: C5_8  and  C6_10 
ROOT
ATOM      1  C2  <0> d          -1.214   3.626   0.028  0.00  0.00     0.066 C 
ATOM      2  H1  <0> d          -0.449   3.972  -0.515  0.00  0.00     0.084 H 
ENDROOT
BRANCH   1   3
ATOM      3  C1  <0> d          -1.089   4.129   1.467  0.00  0.00    -0.051 C 
ATOM      4  H2  <0> d          -1.923   3.752   2.058  0.00  0.00     0.030 H 
ATOM      5  H3  <0> d          -0.151   3.776   1.895  0.00  0.00     0.030 H 
ATOM      6  H4  <0> d          -1.104   5.219   1.473  0.00  0.00     0.030 H 
ENDBRANCH   1   3
BRANCH   1   7
ATOM      7  C3  <0> d          -2.512   4.114  -0.564  0.00  0.00     0.145 C 
ATOM      8  O1  <0> d          -3.466   3.376  -0.619  0.00  0.00    -0.296 OA
BRANCH   7   9
ATOM      9  C4  <0> d          -2.618   5.523  -1.088  0.00  0.00    -0.019 C 
ATOM     10  H5  <0> d          -1.743   5.991  -0.966  0.00  0.00     0.037 H 
ATOM     11  H6  <0> d          -2.872   5.498  -2.148  0.00  0.00     0.037 H 
ATOM     12  H7  <0> d          -3.395   6.056  -0.540  0.00  0.00     0.037 H 
ENDBRANCH   7   9
ENDBRANCH   1   7
BRANCH   1  13
ATOM     13  N1  <0> d          -1.195   2.161   0.019  0.00  0.00    -0.350 N 
ATOM     14  C5  <0> d          -0.018   1.503   0.010  0.00  0.00     0.214 C 
ATOM     15  O2  <0> d           1.024   2.123   0.004  0.00  0.00    -0.274 OA
ATOM     16  H8  <0> d          -2.028   1.664   0.021  0.00  0.00     0.163 HD
BRANCH  14  17
ATOM     17  C6  <0> d           0.002  -0.004   0.002  0.00  0.00    -0.003 C 
ATOM     18  H9  <0> d           1.034  -0.353  -0.010  0.00  0.00     0.040 H 
ATOM     19  H10 <0> d          -0.498  -0.379   0.895  0.00  0.00     0.040 H 
ATOM     20  H11 <0> d          -0.515  -0.370  -0.885  0.00  0.00     0.040 H 
ENDBRANCH  14  17
ENDBRANCH   1  13
TORSDOF 5
