REMARK  3 active torsions:
REMARK  status: ('A' for Active; 'I' for Inactive)
REMARK    1  A    between atoms: C1_1  and  C2_2 
REMARK    2  A    between atoms: C4_4  and  C7_9 
REMARK    3  A    between atoms: C6_7  and  O1_8 
ROOT
ATOM      1  C2  <0> d           1.173   1.793   0.001  0.00  0.00    -0.025 A 
ATOM      2  C3  <0> d          -0.013   1.076   0.008  0.00  0.00    -0.051 A 
ATOM      3  C4  <0> d          -1.214   1.759   0.017  0.00  0.00     0.031 A 
ATOM      4  N1  <0> d          -1.244   3.077   0.029  0.00  0.00    -0.263 NA
ATOM      5  C5  <0> d          -0.139   3.796   0.023  0.00  0.00     0.035 A 
ATOM      6  C6  <0> d           1.105   3.182   0.008  0.00  0.00     0.089 A 
ATOM      7  H4  <0> d           0.002  -0.004   0.002  0.00  0.00     0.087 H 
ATOM      8  H5  <0> d          -0.203   4.874   0.029  0.00  0.00     0.119 H 
ENDROOT
BRANCH   1   9
ATOM      9  C1  <0> d           2.503   1.085  -0.015  0.00  0.00    -0.049 C 
ATOM     10  H1  <0> d           2.815   0.919  -1.046  0.00  0.00     0.033 H 
ATOM     11  H2  <0> d           3.247   1.698   0.495  0.00  0.00     0.033 H 
ATOM     12  H3  <0> d           2.411   0.126   0.495  0.00  0.00     0.033 H 
ENDBRANCH   1   9
BRANCH   6  13
ATOM     13  O1  <0> d           2.242   3.928   0.002  0.00  0.00    -0.359 OA
ATOM     14  H6  <0> d           2.563   4.148  -0.883  0.00  0.00     0.217 HD
ENDBRANCH   6  13
BRANCH   3  15
ATOM     15  C7  <0> d          -2.508   0.986   0.020  0.00  0.00    -0.035 C 
ATOM     16  H7  <0> d          -2.815   0.795   1.048  0.00  0.00     0.035 H 
ATOM     17  H8  <0> d          -3.279   1.567  -0.487  0.00  0.00     0.035 H 
ATOM     18  H9  <0> d          -2.366   0.038  -0.500  0.00  0.00     0.035 H 
ENDBRANCH   3  15
TORSDOF 3
