REMARK  2 active torsions:
REMARK  status: ('A' for Active; 'I' for Inactive)
REMARK    1  A    between atoms: C2_2  and  C6_10 
REMARK    2  A    between atoms: C4_6  and  C5_7 
REMARK       I    between atoms: C5_7  and  N2_9 
ROOT
ATOM      1  C1  <0> d           0.002  -0.004   0.002  0.00  0.00    -0.034 A 
ATOM      2  C2  <0> d          -0.017   1.409   0.010  0.00  0.00     0.058 A 
ATOM      3  C3  <0> d           1.299   1.833  -0.001  0.00  0.00    -0.006 A 
ATOM      4  N1  <0> d           2.092   0.750  -0.014  0.00  0.00    -0.360 N 
ATOM      5  H1  <0> d           3.186   0.869  -0.024  0.00  0.00     0.165 HD
ATOM      6  C4  <0> d           1.311  -0.385  -0.013  0.00  0.00     0.101 A 
ATOM      7  H2  <0> d          -0.857  -0.658   0.007  0.00  0.00     0.088 H 
ATOM      8  H3  <0> d           1.633   2.860   0.002  0.00  0.00     0.112 H 
ENDROOT
BRANCH   6   9
ATOM      9  C5  <0> d           1.804  -1.768  -0.025  0.00  0.00     0.266 C 
ATOM     10  O1  <0> d           1.015  -2.695  -0.022  0.00  0.00    -0.266 OA
ATOM     11  N2  <0> d           3.129  -2.011  -0.039  0.00  0.00    -0.365 N 
ATOM     12  H4  <0> d           3.499  -3.047  -0.048  0.00  0.00     0.159 HD
ATOM     13  H5  <0> d           3.842  -1.173  -0.041  0.00  0.00     0.159 HD
ENDBRANCH   6   9
BRANCH   2  14
ATOM     14  C6  <0> d          -1.213   2.268   0.020  0.00  0.00     0.210 C 
ATOM     15  O2  <0> d          -2.321   1.768   0.023  0.00  0.00    -0.644 OA
ATOM     16  O3  <0> d          -1.079   3.610   0.027  0.00  0.00    -0.644 OA
ENDBRANCH   2  14
TORSDOF 2
