REMARK  2 active torsions:
REMARK  status: ('A' for Active; 'I' for Inactive)
REMARK    1  A    between atoms: C2_2  and  C3_3 
REMARK    2  A    between atoms: C3_3  and  N1_4 
ROOT
ATOM      1  C1  <0> d          -4.566   3.667  -2.431  0.00  0.00    -0.152 C 
ATOM      2  C2  <0> d          -4.171   3.731  -1.328  0.00  0.00    -0.096 C 
ATOM      3  H1  <0> d          -4.920   3.610  -3.418  0.00  0.00     0.166 H 
ENDROOT
BRANCH   2   4
ATOM      4  C3  <0> d          -3.675   3.810   0.056  0.00  0.00     0.072 C 
ATOM      5  H2  <0> d          -3.872   2.868   0.567  0.00  0.00     0.086 H 
ATOM      6  H3  <0> d          -4.184   4.620   0.578  0.00  0.00     0.086 H 
BRANCH   4   7
ATOM      7  N1  <0> d          -2.233   4.067   0.044  0.00  0.00    -0.238 N 
ATOM      8  N3  <0> d          -1.604   5.321   0.044  0.00  0.00    -0.064 NA
ATOM      9  N2  <0> d          -0.328   5.160   0.032  0.00  0.00    -0.130 NA
ATOM     10  C9  <0> d          -0.022   3.847   0.022  0.00  0.00     0.109 A 
ATOM     11  C4  <0> d          -1.230   3.127   0.030  0.00  0.00     0.086 A 
ATOM     12  C8  <0> d           1.191   3.145   0.007  0.00  0.00    -0.051 A 
ATOM     13  C5  <0> d          -1.209   1.737   0.017  0.00  0.00    -0.053 A 
ATOM     14  C6  <0> d          -0.013   1.076   0.008  0.00  0.00    -0.081 A 
ATOM     15  H4  <0> d          -2.135   1.181   0.019  0.00  0.00     0.087 H 
ATOM     16  C7  <0> d           1.184   1.781   0.000  0.00  0.00    -0.081 A 
ATOM     17  H5  <0> d           0.002  -0.004   0.002  0.00  0.00     0.083 H 
ATOM     18  H6  <0> d           2.121   1.242  -0.011  0.00  0.00     0.083 H 
ATOM     19  H7  <0> d           2.127   3.682   0.001  0.00  0.00     0.087 H 
ENDBRANCH   4   7
ENDBRANCH   2   4
TORSDOF 2
