REMARK  0 active torsions:
REMARK  status: ('A' for Active; 'I' for Inactive)
ROOT
ATOM      1  C1  <0> d          -0.016   1.361   0.009  0.00  0.00    -0.036 A 
ATOM      2  C2  <0> d           0.002  -0.004   0.002  0.00  0.00     0.006 A 
ATOM      3  N1  <0> d          -1.116  -0.711   0.009  0.00  0.00    -0.246 NA
ATOM      4  C3  <0> d          -2.308  -0.144   0.024  0.00  0.00     0.156 A 
ATOM      5  C4  <0> d          -2.423   1.238   0.032  0.00  0.00     0.127 A 
ATOM      6  N2  <0> d          -3.474   2.131   0.046  0.00  0.00    -0.236 NA
ATOM      7  C5  <0> d          -2.942   3.382   0.047  0.00  0.00     0.088 A 
ATOM      8  N3  <0> d          -1.641   3.316   0.035  0.00  0.00    -0.240 NA
ATOM      9  C6  <0> d          -1.252   2.020   0.031  0.00  0.00     0.091 A 
ATOM     10 Cl1  <0> d          -3.736  -1.132   0.033  0.00  0.00    -0.060 Cl
ATOM     11  H1  <0> d           0.906   1.923   0.004  0.00  0.00     0.089 H 
ATOM     12  H2  <0> d           0.951  -0.519  -0.011  0.00  0.00     0.114 H 
ATOM     13  H3  <0> d          -3.515   4.297   0.056  0.00  0.00     0.146 H 
ENDROOT
TORSDOF 0
