REMARK  7 active torsions:
REMARK  status: ('A' for Active; 'I' for Inactive)
REMARK    1  A    between atoms: C1_1  and  C2_2 
REMARK    2  A    between atoms: C2_2  and  O2_4 
REMARK    3  A    between atoms: O2_4  and  C3_5 
REMARK    4  A    between atoms: C3_5  and  C4_6 
REMARK    5  A    between atoms: C3_5  and  O3_8 
REMARK    6  A    between atoms: O3_8  and  C6_9 
REMARK    7  A    between atoms: C6_9  and  C7_11 
ROOT
ATOM      1  C3  <0> d           2.373   1.120   0.100  0.00  0.00     0.165 C 
ATOM      2  H4  <0> d           2.151   0.364   0.854  0.00  0.00     0.137 H 
ENDROOT
BRANCH   1   3
ATOM      3  O2  <0> d           1.238   2.016  -0.034  0.00  0.00    -0.286 OA
BRANCH   3   4
ATOM      4  C2  <0> d           0.024   1.452  -0.125  0.00  0.00     0.257 C 
ATOM      5  O1  <0> d          -0.081   0.250  -0.184  0.00  0.00    -0.266 OA
BRANCH   4   6
ATOM      6  C1  <0> d          -1.209   2.319  -0.158  0.00  0.00     0.004 C 
ATOM      7  H1  <0> d          -2.094   1.688  -0.238  0.00  0.00     0.041 H 
ATOM      8  H2  <0> d          -1.263   2.908   0.757  0.00  0.00     0.041 H 
ATOM      9  H3  <0> d          -1.160   2.987  -1.018  0.00  0.00     0.041 H 
ENDBRANCH   4   6
ENDBRANCH   3   4
ENDBRANCH   1   3
BRANCH   1  10
ATOM     10  C4  <0> d           3.588   1.906   0.520  0.00  0.00    -0.059 C 
ATOM     11  C5  <0> d           4.195   1.623   1.646  0.00  0.00    -0.120 C 
ATOM     12  H6  <0> d           5.065   2.187   1.947  0.00  0.00     0.066 H 
ATOM     13  H7  <0> d           3.824   0.826   2.273  0.00  0.00     0.066 H 
ATOM     14  H5  <0> d           3.958   2.704  -0.107  0.00  0.00     0.083 H 
ENDBRANCH   1  10
BRANCH   1  15
ATOM     15  O3  <0> d           2.632   0.472  -1.173  0.00  0.00    -0.286 OA
BRANCH  15  16
ATOM     16  C6  <0> d           2.993   1.263  -2.196  0.00  0.00     0.257 C 
ATOM     17  O4  <0> d           2.997   2.463  -2.060  0.00  0.00    -0.266 OA
BRANCH  16  18
ATOM     18  C7  <0> d           3.395   0.653  -3.515  0.00  0.00     0.004 C 
ATOM     19  H8  <0> d           2.564   0.070  -3.913  0.00  0.00     0.041 H 
ATOM     20  H9  <0> d           3.653   1.445  -4.218  0.00  0.00     0.041 H 
ATOM     21  H10 <0> d           4.257   0.003  -3.367  0.00  0.00     0.041 H 
ENDBRANCH  16  18
ENDBRANCH  15  16
ENDBRANCH   1  15
TORSDOF 7
