REMARK  4 active torsions:
REMARK  status: ('A' for Active; 'I' for Inactive)
REMARK    1  A    between atoms: C2_2  and  O4_14 
REMARK    2  A    between atoms: C3_4  and  O3_13 
REMARK    3  A    between atoms: C4_6  and  O2_12 
REMARK    4  A    between atoms: C5_8  and  N1_11 
ROOT
ATOM      1  C1  <0> d          -0.756   1.594  -1.230  0.00  0.00     0.048 C 
ATOM      2  C2  <0> d          -0.013   1.086   0.008  0.00  0.00     0.083 C 
ATOM      3  H1  <0> d           0.077  -0.011   0.001  0.00  0.00     0.090 H 
ATOM      4  C3  <0> d          -0.732   1.581   1.266  0.00  0.00     0.091 C 
ATOM      5  H2  <0> d          -0.222   1.247   2.182  0.00  0.00     0.091 H 
ATOM      6  C4  <0> d          -2.190   1.107   1.226  0.00  0.00     0.114 C 
ATOM      7  H3  <0> d          -2.745   1.434   2.118  0.00  0.00     0.093 H 
ATOM      8  C5  <0> d          -2.849   1.615  -0.059  0.00  0.00     0.248 C 
ATOM      9  H4  <0> d          -2.861   2.713  -0.121  0.00  0.00     0.137 H 
ATOM     10  O1  <0> d          -2.111   1.144  -1.189  0.00  0.00    -0.353 OA
ATOM     11  H5  <0> d          -0.268   1.206  -2.136  0.00  0.00     0.078 H 
ATOM     12  H6  <0> d          -0.735   2.694  -1.245  0.00  0.00     0.078 H 
ENDROOT
BRANCH   8  13
ATOM     13  N1  <0> d          -4.229   1.116  -0.132  0.00  0.00     0.110 N 
ATOM     14  H7  <0> d          -4.702   1.481  -1.056  0.00  0.00     0.316 HD
ATOM     15  H8  <0> d          -4.221   0.016  -0.134  0.00  0.00     0.316 HD
ENDBRANCH   8  13
BRANCH   6  16
ATOM     16  O2  <0> d          -2.228  -0.321   1.250  0.00  0.00    -0.388 OA
ATOM     17  H9  <0> d          -3.195  -0.846   1.228  0.00  0.00     0.210 HD
ENDBRANCH   6  16
BRANCH   4  18
ATOM     18  O3  <0> d          -0.695   3.009   1.308  0.00  0.00    -0.390 OA
ATOM     19  H10 <0> d          -1.164   3.547   2.144  0.00  0.00     0.210 HD
ENDBRANCH   4  18
BRANCH   2  20
ATOM     20  O4  <0> d           1.327   1.582  -0.002  0.00  0.00    -0.391 OA
ATOM     21  H11 <0> d           2.017   1.320   0.814  0.00  0.00     0.210 HD
ENDBRANCH   2  20
TORSDOF 4
