REMARK  3 active torsions:
REMARK  status: ('A' for Active; 'I' for Inactive)
REMARK    1  A    between atoms: C1_1  and  O1_2 
REMARK    2  A    between atoms: O1_2  and  C2_3 
REMARK    3  A    between atoms: C2_3  and  C3_5 
ROOT
ATOM      1  C3  <0> d          -0.013   1.086   0.008  0.00  0.00     0.037 C 
ATOM      2  H1  <0> d           0.002  -0.004   0.002  0.00  0.00     0.056 H 
ATOM      3  C4  <0> d           1.428   1.657  -0.003  0.00  0.00    -0.047 C 
ATOM      4  C5  <0> d           1.868   1.569   1.473  0.00  0.00    -0.009 C 
ATOM      5  C6  <0> d           0.605   1.542   2.308  0.00  0.00     0.127 C 
ATOM      6  O3  <0> d           0.543   1.471   3.511  0.00  0.00    -0.298 OA
ATOM      7  C7  <0> d          -0.571   1.622   1.350  0.00  0.00     0.002 C 
ATOM      8  H5  <0> d           2.077   1.048  -0.633  0.00  0.00     0.034 H 
ATOM      9  H6  <0> d           1.427   2.693  -0.341  0.00  0.00     0.034 H 
ATOM     10  H7  <0> d           2.407   0.738   1.612  0.00  0.00     0.044 H 
ATOM     11  H8  <0> d           2.469   2.440   1.735  0.00  0.00     0.044 H 
ATOM     12  H9  <0> d          -0.899   2.558   1.224  0.00  0.00     0.045 H 
ATOM     13  H10 <0> d          -1.390   0.993   1.699  0.00  0.00     0.045 H 
ENDROOT
BRANCH   1  14
ATOM     14  C2  <0> d          -0.808   1.615  -1.158  0.00  0.00     0.263 C 
ATOM     15  O2  <0> d          -0.281   2.340  -1.968  0.00  0.00    -0.265 OA
BRANCH  14  16
ATOM     16  O1  <0> d          -2.100   1.281  -1.296  0.00  0.00    -0.326 OA
BRANCH  16  17
ATOM     17  C1  <0> d          -2.804   1.827  -2.442  0.00  0.00     0.013 C 
ATOM     18  H2  <0> d          -2.786   2.916  -2.394  0.00  0.00     0.067 H 
ATOM     19  H3  <0> d          -2.316   1.496  -3.359  0.00  0.00     0.067 H 
ATOM     20  H4  <0> d          -3.837   1.480  -2.434  0.00  0.00     0.067 H 
ENDBRANCH  16  17
ENDBRANCH  14  16
ENDBRANCH   1  14
TORSDOF 3
