REMARK  1 active torsions:
REMARK  status: ('A' for Active; 'I' for Inactive)
REMARK    1  A    between atoms: C1_1  and  C2_2 
ROOT
ATOM      1  C2  <0> d          -1.147   1.729   0.016  0.00  0.00     0.075 A 
ATOM      2  N1  <0> d          -0.906   2.993   0.026  0.00  0.00    -0.371 N 
ATOM      3  C3  <0> d           0.555   3.168   0.013  0.00  0.00     0.068 A 
ATOM      4  C4  <0> d           1.089   1.749   0.001  0.00  0.00     0.240 A 
ATOM      5  O1  <0> d           2.248   1.395  -0.012  0.00  0.00    -0.271 OA
ATOM      6  N2  <0> d          -0.011   0.966   0.007  0.00  0.00    -0.316 N 
ATOM      7  H4  <0> d           0.920   3.690   0.911  0.00  0.00     0.078 H 
ATOM      8  H5  <0> d           0.903   3.699  -0.885  0.00  0.00     0.078 H 
ATOM      9  H6  <0> d          -1.566   3.873   0.041  0.00  0.00     0.161 HD
ATOM     10  H7  <0> d          -0.086  -0.132   0.006  0.00  0.00     0.170 HD
ENDROOT
BRANCH   1  11
ATOM     11  C1  <0> d          -2.537   1.148   0.015  0.00  0.00    -0.023 C 
ATOM     12  H1  <0> d          -2.476   0.050   0.006  0.00  0.00     0.037 H 
ATOM     13  H2  <0> d          -3.078   1.493  -0.879  0.00  0.00     0.037 H 
ATOM     14  H3  <0> d          -3.073   1.478   0.917  0.00  0.00     0.037 H 
ENDBRANCH   1  11
TORSDOF 1
