REMARK  5 active torsions:
REMARK  status: ('A' for Active; 'I' for Inactive)
REMARK    1  A    between atoms: C1_1  and  C2_2 
REMARK    2  A    between atoms: C3_3  and  O2_10 
REMARK    3  A    between atoms: C7_7  and  O1_8 
REMARK    4  A    between atoms: O1_8  and  C8_9 
REMARK    5  A    between atoms: O2_10  and  C9_11 
ROOT
ATOM      1  C2  <0> d          -0.718   1.572   1.248  0.00  0.00     0.005 A 
ATOM      2  C3  <0> d          -2.087   1.790   1.227  0.00  0.00     0.076 A 
ATOM      3  C4  <0> d          -2.735   2.232   2.372  0.00  0.00    -0.050 A 
ATOM      4  C5  <0> d          -2.015   2.466   3.528  0.00  0.00    -0.078 A 
ATOM      5  C6  <0> d          -0.650   2.254   3.550  0.00  0.00    -0.050 A 
ATOM      6  C7  <0> d           0.002   1.807   2.409  0.00  0.00     0.076 A 
ATOM      7  H4  <0> d          -3.802   2.398   2.358  0.00  0.00     0.087 H 
ATOM      8  H5  <0> d          -2.521   2.814   4.417  0.00  0.00     0.083 H 
ATOM      9  H6  <0> d          -0.090   2.437   4.455  0.00  0.00     0.087 H 
ENDROOT
BRANCH   2  10
ATOM     10  O2  <0> d          -2.794   1.566   0.089  0.00  0.00    -0.355 OA
BRANCH  10  11
ATOM     11  C9  <0> d          -4.201   1.812   0.140  0.00  0.00     0.010 C 
ATOM     12  H10 <0> d          -4.378   2.857   0.394  0.00  0.00     0.066 H 
ATOM     13  H11 <0> d          -4.644   1.595  -0.832  0.00  0.00     0.066 H 
ATOM     14  H12 <0> d          -4.654   1.173   0.897  0.00  0.00     0.066 H 
ENDBRANCH  10  11
ENDBRANCH   2  10
BRANCH   1  15
ATOM     15  C1  <0> d          -0.013   1.086   0.008  0.00  0.00    -0.046 C 
ATOM     16  H1  <0> d           0.002  -0.004   0.002  0.00  0.00     0.033 H 
ATOM     17  H2  <0> d           1.010   1.463   0.000  0.00  0.00     0.033 H 
ATOM     18  H3  <0> d          -0.540   1.447  -0.875  0.00  0.00     0.033 H 
ENDBRANCH   1  15
BRANCH   6  19
ATOM     19  O1  <0> d           1.345   1.598   2.431  0.00  0.00    -0.355 OA
BRANCH  19  20
ATOM     20  C8  <0> d           2.022   1.861   3.662  0.00  0.00     0.010 C 
ATOM     21  H7  <0> d           1.883   2.906   3.937  0.00  0.00     0.066 H 
ATOM     22  H8  <0> d           1.614   1.222   4.444  0.00  0.00     0.066 H 
ATOM     23  H9  <0> d           3.086   1.655   3.542  0.00  0.00     0.066 H 
ENDBRANCH  19  20
ENDBRANCH   6  19
TORSDOF 5
