REMARK  5 active torsions:
REMARK  status: ('A' for Active; 'I' for Inactive)
REMARK    1  A    between atoms: C1_1  and  C2_2 
REMARK    2  A    between atoms: C2_2  and  C3_3 
REMARK    3  A    between atoms: C3_3  and  C4_5 
REMARK    4  A    between atoms: C3_3  and  N1_6 
REMARK       I    between atoms: N1_6  and  C5_7 
REMARK    5  A    between atoms: C5_7  and  C6_9 
ROOT
ATOM      1  C3  <0> d          -1.290   1.681   0.017  0.00  0.00     0.008 C 
ATOM      2  H1  <0> d          -1.198   2.596  -0.568  0.00  0.00     0.071 H 
ENDROOT
BRANCH   1   3
ATOM      3  C2  <0> d          -2.376   0.792  -0.592  0.00  0.00    -0.050 C 
ATOM      4  H5  <0> d          -2.406  -0.160  -0.062  0.00  0.00     0.035 H 
ATOM      5  H6  <0> d          -3.343   1.288  -0.504  0.00  0.00     0.035 H 
BRANCH   3   6
ATOM      6  C1  <0> d          -2.062   0.544  -2.069  0.00  0.00    -0.075 C 
ATOM      7  H2  <0> d          -1.096   0.048  -2.157  0.00  0.00     0.027 H 
ATOM      8  H3  <0> d          -2.836  -0.089  -2.503  0.00  0.00     0.027 H 
ATOM      9  H4  <0> d          -2.032   1.496  -2.599  0.00  0.00     0.027 H 
ENDBRANCH   3   6
ENDBRANCH   1   3
BRANCH   1  10
ATOM     10  C4  <0> d          -1.667   2.032   1.458  0.00  0.00    -0.057 C 
ATOM     11  H7  <0> d          -0.893   2.665   1.892  0.00  0.00     0.030 H 
ATOM     12  H8  <0> d          -2.618   2.564   1.465  0.00  0.00     0.030 H 
ATOM     13  H9  <0> d          -1.758   1.117   2.043  0.00  0.00     0.030 H 
ENDBRANCH   1  10
BRANCH   1  14
ATOM     14  N1  <0> d          -0.011   0.966   0.007  0.00  0.00    -0.357 N 
ATOM     15  C5  <0> d           1.147   1.655  -0.000  0.00  0.00     0.213 C 
ATOM     16  O1  <0> d           1.130   2.868   0.007  0.00  0.00    -0.274 OA
ATOM     17  H10 <0> d           0.002  -0.004   0.002  0.00  0.00     0.162 HD
BRANCH  15  18
ATOM     18  C6  <0> d           2.462   0.920  -0.017  0.00  0.00    -0.003 C 
ATOM     19  H11 <0> d           2.277  -0.154  -0.021  0.00  0.00     0.040 H 
ATOM     20  H12 <0> d           3.021   1.196  -0.910  0.00  0.00     0.040 H 
ATOM     21  H13 <0> d           3.038   1.186   0.870  0.00  0.00     0.040 H 
ENDBRANCH  15  18
ENDBRANCH   1  14
TORSDOF 5
