REMARK  1 active torsions:
REMARK  status: ('A' for Active; 'I' for Inactive)
REMARK    1  A    between atoms: C4_6  and  C5_7 
ROOT
ATOM      1  C1  <0> d           2.443   3.898  -0.000  0.00  0.00    -0.050 A 
ATOM      2  C2  <0> d           2.018   5.174   0.011  0.00  0.00    -0.022 A 
ATOM      3  N1  <0> d           0.654   5.189   0.024  0.00  0.00    -0.374 N 
ATOM      4  H1  <0> d           0.110   5.992   0.033  0.00  0.00     0.164 HD
ATOM      5  C3  <0> d           0.171   3.933   0.015  0.00  0.00    -0.007 A 
ATOM      6  C4  <0> d           1.238   3.061   0.007  0.00  0.00     0.057 A 
ATOM      7  H2  <0> d           3.468   3.558  -0.012  0.00  0.00     0.087 H 
ATOM      8  H3  <0> d           2.655   6.046   0.009  0.00  0.00     0.111 H 
ATOM      9  H4  <0> d          -0.873   3.656   0.018  0.00  0.00     0.112 H 
ENDROOT
BRANCH   6  10
ATOM     10  C5  <0> d           1.181   1.591  -0.001  0.00  0.00     0.210 C 
ATOM     11  O1  <0> d           2.210   0.943  -0.014  0.00  0.00    -0.644 OA
ATOM     12  O2  <0> d          -0.011   0.963   0.007  0.00  0.00    -0.644 OA
ENDBRANCH   6  10
TORSDOF 1
