REMARK  4 active torsions:
REMARK  status: ('A' for Active; 'I' for Inactive)
REMARK    1  A    between atoms: C1_1  and  O1_2 
REMARK    2  A    between atoms: O1_2  and  C2_3 
REMARK    3  A    between atoms: C2_3  and  C3_4 
REMARK    4  A    between atoms: C6_7  and  N1_10 
ROOT
ATOM      1  C3  <0> d          -0.718   1.572   1.248  0.00  0.00    -0.035 A 
ATOM      2  C4  <0> d          -0.358   2.780   1.817  0.00  0.00    -0.073 A 
ATOM      3  C5  <0> d          -1.007   3.231   2.950  0.00  0.00    -0.057 A 
ATOM      4  C6  <0> d          -2.013   2.464   3.524  0.00  0.00     0.025 A 
ATOM      5  C7  <0> d          -2.368   1.249   2.953  0.00  0.00    -0.057 A 
ATOM      6  C8  <0> d          -1.720   0.806   1.817  0.00  0.00    -0.073 A 
ATOM      7  H6  <0> d           0.427   3.373   1.373  0.00  0.00     0.084 H 
ATOM      8  H7  <0> d          -0.729   4.176   3.392  0.00  0.00     0.086 H 
ATOM      9  H8  <0> d          -3.150   0.650   3.397  0.00  0.00     0.086 H 
ATOM     10  H9  <0> d          -1.995  -0.138   1.372  0.00  0.00     0.084 H 
ENDROOT
BRANCH   1  11
ATOM     11  C2  <0> d          -0.013   1.086   0.008  0.00  0.00     0.043 C 
ATOM     12  H4  <0> d           0.002  -0.014   0.002  0.00  0.00     0.081 H 
ATOM     13  H5  <0> d           1.019   1.466   0.000  0.00  0.00     0.081 H 
BRANCH  11  14
ATOM     14  O1  <0> d          -0.704   1.559  -1.150  0.00  0.00    -0.391 OA
BRANCH  14  15
ATOM     15  C1  <0> d          -0.114   1.152  -2.386  0.00  0.00     0.004 C 
ATOM     16  H1  <0> d          -0.702   1.556  -3.223  0.00  0.00     0.066 H 
ATOM     17  H2  <0> d          -0.101   0.054  -2.442  0.00  0.00     0.066 H 
ATOM     18  H3  <0> d           0.916   1.534  -2.444  0.00  0.00     0.066 H 
ENDBRANCH  14  15
ENDBRANCH  11  14
ENDBRANCH   1  11
BRANCH   4  19
ATOM     19  N1  <0> d          -2.667   2.915   4.673  0.00  0.00    -0.399 N 
ATOM     20  H10 <0> d          -3.464   2.307   5.127  0.00  0.00     0.156 HD
ATOM     21  H11 <0> d          -2.386   3.878   5.125  0.00  0.00     0.156 HD
ENDBRANCH   4  19
TORSDOF 4
