REMARK  3 active torsions:
REMARK  status: ('A' for Active; 'I' for Inactive)
REMARK    1  A    between atoms: C1_1  and  C2_2 
REMARK    2  A    between atoms: C4_5  and  N4_9 
REMARK    3  A    between atoms: C5_6  and  N3_8 
ROOT
ATOM      1  C2  <0> d           0.038  -2.685  -0.013  0.00  0.00     0.124 A 
ATOM      2  N1  <0> d           1.178  -2.025  -0.020  0.00  0.00    -0.244 NA
ATOM      3  C3  <0> d           1.202  -0.700  -0.013  0.00  0.00     0.033 A 
ATOM      4  C4  <0> d           0.002  -0.004   0.002  0.00  0.00     0.089 A 
ATOM      5  C5  <0> d          -1.191  -0.740   0.015  0.00  0.00     0.151 A 
ATOM      6  N2  <0> d          -1.126  -2.067   0.002  0.00  0.00    -0.214 NA
ATOM      7  H4  <0> d           2.142  -0.169  -0.019  0.00  0.00     0.118 H 
ENDROOT
BRANCH   1   8
ATOM      8  C1  <0> d           0.066  -4.192  -0.021  0.00  0.00    -0.019 C 
ATOM      9  H1  <0> d           1.109  -4.539  -0.033  0.00  0.00     0.037 H 
ATOM     10  H2  <0> d          -0.455  -4.563  -0.916  0.00  0.00     0.037 H 
ATOM     11  H3  <0> d          -0.437  -4.573   0.880  0.00  0.00     0.037 H 
ENDBRANCH   1   8
BRANCH   5  12
ATOM     12  N3  <0> d          -2.419  -0.094   0.036  0.00  0.00    -0.382 N 
ATOM     13  H5  <0> d          -3.350  -0.680   0.047  0.00  0.00     0.157 HD
ATOM     14  H6  <0> d          -2.462   1.005   0.043  0.00  0.00     0.157 HD
ENDBRANCH   5  12
BRANCH   4  15
ATOM     15  N4  <0> d          -0.017   1.396   0.010  0.00  0.00    -0.395 N 
ATOM     16  H7  <0> d          -0.977   1.933   0.022  0.00  0.00     0.156 HD
ATOM     17  H8  <0> d           0.928   1.959   0.004  0.00  0.00     0.156 HD
ENDBRANCH   4  15
TORSDOF 3
