REMARK  5 active torsions:
REMARK  status: ('A' for Active; 'I' for Inactive)
REMARK    1  A    between atoms: C1_1  and  C2_2 
REMARK    2  A    between atoms: C2_2  and  C3_4 
REMARK    3  A    between atoms: C2_2  and  N1_6 
REMARK    4  A    between atoms: C3_4  and  O1_5 
REMARK       I    between atoms: N1_6  and  C4_7 
REMARK    5  A    between atoms: C4_7  and  C5_9 
ROOT
ATOM      1  C2  <0> d          -0.729   1.579   1.267  0.00  0.00     0.029 C 
ATOM      2  H1  <0> d          -0.255   1.146   2.148  0.00  0.00     0.075 H 
ENDROOT
BRANCH   1   3
ATOM      3  C1  <0> d          -2.198   1.155   1.217  0.00  0.00    -0.055 C 
ATOM      4  H2  <0> d          -2.672   1.588   0.336  0.00  0.00     0.030 H 
ATOM      5  H3  <0> d          -2.261   0.068   1.166  0.00  0.00     0.030 H 
ATOM      6  H4  <0> d          -2.708   1.506   2.114  0.00  0.00     0.030 H 
ENDBRANCH   1   3
BRANCH   1   7
ATOM      7  C3  <0> d          -0.013   1.086   0.008  0.00  0.00     0.035 C 
ATOM      8  H5  <0> d           0.002  -0.004   0.002  0.00  0.00     0.077 H 
ATOM      9  H6  <0> d           1.010   1.463   0.000  0.00  0.00     0.077 H 
BRANCH   7  10
ATOM     10  O1  <0> d          -0.704   1.559  -1.150  0.00  0.00    -0.399 OA
ATOM     11  H7  <0> d          -0.304   1.284  -1.986  0.00  0.00     0.209 HD
ENDBRANCH   7  10
ENDBRANCH   1   7
BRANCH   1  12
ATOM     12  N1  <0> d          -0.645   3.040   1.336  0.00  0.00    -0.355 N 
ATOM     13  C4  <0> d          -0.731   3.665   2.527  0.00  0.00     0.213 C 
ATOM     14  O2  <0> d          -0.879   3.018   3.542  0.00  0.00    -0.274 OA
ATOM     15  H8  <0> d          -0.527   3.558   0.524  0.00  0.00     0.162 HD
BRANCH  13  16
ATOM     16  C5  <0> d          -0.645   5.168   2.597  0.00  0.00    -0.003 C 
ATOM     17  H9  <0> d          -0.513   5.572   1.594  0.00  0.00     0.040 H 
ATOM     18  H10 <0> d          -1.562   5.564   3.032  0.00  0.00     0.040 H 
ATOM     19  H11 <0> d           0.204   5.454   3.218  0.00  0.00     0.040 H 
ENDBRANCH  13  16
ENDBRANCH   1  12
TORSDOF 5
