REMARK  4 active torsions:
REMARK  status: ('A' for Active; 'I' for Inactive)
REMARK    1  A    between atoms: C1_1  and  C2_2 
REMARK    2  A    between atoms: C2_2  and  C3_3 
REMARK    3  A    between atoms: C3_3  and  C4_4 
REMARK    4  A    between atoms: C7_9  and  C8_12 
ROOT
ATOM      1  C4  <0> d          -0.013   1.086   0.008  0.00  0.00     0.131 C 
ATOM      2  H1  <0> d           0.002  -0.004   0.002  0.00  0.00     0.129 H 
ATOM      3  O1  <0> d           1.329   1.581  -0.002  0.00  0.00    -0.361 OA
ATOM      4  C5  <0> d           2.099   1.182   1.136  0.00  0.00     0.025 C 
ATOM      5  C6  <0> d           1.394   1.666   2.408  0.00  0.00    -0.021 C 
ATOM      6  C7  <0> d          -0.048   1.146   2.403  0.00  0.00     0.040 C 
ATOM      7  H2  <0> d          -0.044   0.059   2.472  0.00  0.00     0.083 H 
ATOM      8  O2  <0> d          -0.682   1.547   1.184  0.00  0.00    -0.356 OA
ATOM      9  H10 <0> d           2.184   0.096   1.157  0.00  0.00     0.074 H 
ATOM     10  H11 <0> d           3.092   1.627   1.078  0.00  0.00     0.074 H 
ATOM     11  H12 <0> d           1.917   1.283   3.284  0.00  0.00     0.040 H 
ATOM     12  H13 <0> d           1.389   2.756   2.431  0.00  0.00     0.040 H 
ENDROOT
BRANCH   1  13
ATOM     13  C3  <0> d          -0.753   1.593  -1.232  0.00  0.00    -0.019 C 
ATOM     14  H8  <0> d          -1.798   1.290  -1.179  0.00  0.00     0.040 H 
ATOM     15  H9  <0> d          -0.691   2.680  -1.272  0.00  0.00     0.040 H 
BRANCH  13  16
ATOM     16  C2  <0> d          -0.111   0.998  -2.487  0.00  0.00    -0.064 C 
ATOM     17  H6  <0> d           0.934   1.301  -2.539  0.00  0.00     0.032 H 
ATOM     18  H7  <0> d          -0.173  -0.089  -2.446  0.00  0.00     0.032 H 
BRANCH  16  19
ATOM     19  C1  <0> d          -0.851   1.505  -3.727  0.00  0.00    -0.076 C 
ATOM     20  H3  <0> d          -0.395   1.081  -4.621  0.00  0.00     0.027 H 
ATOM     21  H4  <0> d          -1.897   1.202  -3.675  0.00  0.00     0.027 H 
ATOM     22  H5  <0> d          -0.790   2.592  -3.767  0.00  0.00     0.027 H 
ENDBRANCH  16  19
ENDBRANCH  13  16
ENDBRANCH   1  13
BRANCH   6  23
ATOM     23  C8  <0> d          -0.808   1.734   3.593  0.00  0.00    -0.052 C 
ATOM     24  H14 <0> d          -0.815   2.822   3.519  0.00  0.00     0.030 H 
ATOM     25  H15 <0> d          -1.834   1.364   3.588  0.00  0.00     0.030 H 
ATOM     26  H16 <0> d          -0.319   1.436   4.520  0.00  0.00     0.030 H 
ENDBRANCH   6  23
TORSDOF 4
