REMARK  1 active torsions:
REMARK  status: ('A' for Active; 'I' for Inactive)
REMARK    1  A    between atoms: C1_1  and  N1_2 
ROOT
ATOM      1  N1  <0> d           3.494   2.293   0.144  0.00  0.00    -0.364 N 
ATOM      2  C2  <0> d           3.041   3.559  -0.113  0.00  0.00    -0.020 A 
ATOM      3  C3  <0> d           1.695   3.538  -0.211  0.00  0.00    -0.053 A 
ATOM      4  C4  <0> d           1.301   2.157   0.001  0.00  0.00     0.034 A 
ATOM      5  C5  <0> d           2.470   1.437   0.219  0.00  0.00     0.025 A 
ATOM      6  C6  <0> d           2.476  -0.047   0.484  0.00  0.00    -0.025 C 
ATOM      7  C7  <0> d           1.089  -0.478   0.972  0.00  0.00    -0.054 C 
ATOM      8  C8  <0> d           0.002  -0.004   0.002  0.00  0.00    -0.005 C 
ATOM      9  C9  <0> d          -0.019   1.518   0.010  0.00  0.00     0.161 C 
ATOM     10  O1  <0> d          -1.051   2.155   0.019  0.00  0.00    -0.292 OA
ATOM     11  H4  <0> d           3.662   4.436  -0.219  0.00  0.00     0.111 H 
ATOM     12  H5  <0> d           1.045   4.378  -0.408  0.00  0.00     0.087 H 
ATOM     13  H6  <0> d           3.218  -0.277   1.249  0.00  0.00     0.042 H 
ATOM     14  H7  <0> d           2.721  -0.580  -0.434  0.00  0.00     0.042 H 
ATOM     15  H8  <0> d           0.905  -0.048   1.956  0.00  0.00     0.034 H 
ATOM     16  H9  <0> d           1.057  -1.565   1.044  0.00  0.00     0.034 H 
ATOM     17  H10 <0> d          -0.885  -0.362   0.295  0.00  0.00     0.044 H 
ATOM     18  H11 <0> d           0.225  -0.363  -1.003  0.00  0.00     0.044 H 
ENDROOT
BRANCH   1  19
ATOM     19  C1  <0> d           4.902   1.928   0.313  0.00  0.00    -0.015 C 
ATOM     20  H1  <0> d           5.327   1.659  -0.654  0.00  0.00     0.057 H 
ATOM     21  H2  <0> d           5.450   2.774   0.728  0.00  0.00     0.057 H 
ATOM     22  H3  <0> d           4.979   1.078   0.992  0.00  0.00     0.057 H 
ENDBRANCH   1  19
TORSDOF 1
