REMARK  5 active torsions:
REMARK  status: ('A' for Active; 'I' for Inactive)
REMARK    1  A    between atoms: C3_3  and  C8_10 
REMARK    2  A    between atoms: C4_4  and  C6_7 
REMARK    3  A    between atoms: C6_7  and  C7_8 
REMARK    4  A    between atoms: C7_8  and  O1_9 
REMARK    5  A    between atoms: C8_10  and  O2_11 
ROOT
ATOM      1  C1  <0> d          -0.017   1.378   0.010  0.00  0.00    -0.065 A 
ATOM      2  C2  <0> d           1.185   2.070   0.002  0.00  0.00    -0.071 A 
ATOM      3  C3  <0> d           2.365   1.343  -0.013  0.00  0.00    -0.010 A 
ATOM      4  C4  <0> d           2.305  -0.038  -0.020  0.00  0.00     0.044 A 
ATOM      5  N1  <0> d           1.144  -0.663  -0.013  0.00  0.00    -0.265 NA
ATOM      6  C5  <0> d           0.002  -0.004   0.002  0.00  0.00     0.003 A 
ATOM      7  H1  <0> d          -0.955   1.912   0.026  0.00  0.00     0.085 H 
ATOM      8  H2  <0> d           1.201   3.150   0.007  0.00  0.00     0.084 H 
ATOM      9  H3  <0> d          -0.929  -0.550   0.008  0.00  0.00     0.114 H 
ENDROOT
BRANCH   4  10
ATOM     10  C6  <0> d           3.582  -0.839  -0.037  0.00  0.00    -0.005 C 
ATOM     11  H4  <0> d           3.412  -1.783  -0.554  0.00  0.00     0.045 H 
ATOM     12  H5  <0> d           4.358  -0.275  -0.555  0.00  0.00     0.045 H 
BRANCH  10  13
ATOM     13  C7  <0> d           4.028  -1.118   1.400  0.00  0.00     0.022 C 
ATOM     14  H6  <0> d           4.198  -0.173   1.917  0.00  0.00     0.074 H 
ATOM     15  H7  <0> d           3.252  -1.681   1.918  0.00  0.00     0.074 H 
BRANCH  13  16
ATOM     16  O1  <0> d           5.238  -1.877   1.385  0.00  0.00    -0.400 OA
ATOM     17  H8  <0> d           5.580  -2.091   2.264  0.00  0.00     0.209 HD
ENDBRANCH  13  16
ENDBRANCH  10  13
ENDBRANCH   4  10
BRANCH   3  18
ATOM     18  C8  <0> d           3.696   2.049  -0.023  0.00  0.00     0.042 C 
ATOM     19  H9  <0> d           4.267   1.761   0.860  0.00  0.00     0.081 H 
ATOM     20  H10 <0> d           4.249   1.770  -0.920  0.00  0.00     0.081 H 
BRANCH  18  21
ATOM     21  O2  <0> d           3.486   3.462  -0.013  0.00  0.00    -0.396 OA
ATOM     22  H11 <0> d           4.302   3.981  -0.019  0.00  0.00     0.209 HD
ENDBRANCH  18  21
ENDBRANCH   3  18
TORSDOF 5
