REMARK  4 active torsions:
REMARK  status: ('A' for Active; 'I' for Inactive)
REMARK    1  A    between atoms: C1_1  and  C2_2 
REMARK    2  A    between atoms: C2_2  and  C3_3 
REMARK    3  A    between atoms: C3_3  and  O1_11 
REMARK    4  A    between atoms: C7_7  and  C9_10 
ROOT
ATOM      1  C3  <0> d           1.286   1.562  -0.002  0.00  0.00     0.058 C 
ATOM      2  C4  <0> d           2.040   1.127  -1.261  0.00  0.00    -0.036 C 
ATOM      3  C5  <0> d           1.262   1.575  -2.500  0.00  0.00    -0.062 C 
ATOM      4  C6  <0> d           1.121   3.099  -2.491  0.00  0.00    -0.062 C 
ATOM      5  C7  <0> d           0.368   3.533  -1.232  0.00  0.00    -0.055 C 
ATOM      6  H1  <0> d          -0.622   3.076  -1.225  0.00  0.00     0.039 H 
ATOM      7  C8  <0> d           1.145   3.085   0.008  0.00  0.00    -0.033 C 
ATOM      8  H7  <0> d           3.029   1.584  -1.268  0.00  0.00     0.037 H 
ATOM      9  H8  <0> d           2.140   0.042  -1.268  0.00  0.00     0.037 H 
ATOM     10  H9  <0> d           1.799   1.266  -3.397  0.00  0.00     0.033 H 
ATOM     11  H10 <0> d           0.273   1.118  -2.493  0.00  0.00     0.033 H 
ATOM     12  H11 <0> d           2.111   3.555  -2.498  0.00  0.00     0.033 H 
ATOM     13  H12 <0> d           0.567   3.418  -3.374  0.00  0.00     0.033 H 
ATOM     14  H13 <0> d           0.608   3.395   0.904  0.00  0.00     0.037 H 
ATOM     15  H14 <0> d           2.135   3.542   0.001  0.00  0.00     0.037 H 
ENDROOT
BRANCH   1  16
ATOM     16  C2  <0> d           2.064   1.114   1.238  0.00  0.00    -0.040 C 
ATOM     17  H5  <0> d           3.018   1.639   1.277  0.00  0.00     0.036 H 
ATOM     18  H6  <0> d           1.485   1.344   2.132  0.00  0.00     0.036 H 
BRANCH  16  19
ATOM     19  C1  <0> d           2.313  -0.394   1.166  0.00  0.00    -0.074 C 
ATOM     20  H2  <0> d           2.892  -0.624   0.271  0.00  0.00     0.027 H 
ATOM     21  H3  <0> d           2.867  -0.713   2.049  0.00  0.00     0.027 H 
ATOM     22  H4  <0> d           1.359  -0.919   1.126  0.00  0.00     0.027 H 
ENDBRANCH  16  19
ENDBRANCH   1  16
BRANCH   1  23
ATOM     23  O1  <0> d          -0.011   0.963   0.007  0.00  0.00    -0.390 OA
ATOM     24  H18 <0> d           0.002  -0.004   0.002  0.00  0.00     0.210 HD
ENDBRANCH   1  23
BRANCH   5  25
ATOM     25  C9  <0> d           0.226   5.056  -1.222  0.00  0.00    -0.073 C 
ATOM     26  H15 <0> d          -0.328   5.375  -2.105  0.00  0.00     0.028 H 
ATOM     27  H16 <0> d          -0.310   5.366  -0.325  0.00  0.00     0.028 H 
ATOM     28  H17 <0> d           1.216   5.513  -1.229  0.00  0.00     0.028 H 
ENDBRANCH   5  25
TORSDOF 4
