REMARK  2 active torsions:
REMARK  status: ('A' for Active; 'I' for Inactive)
REMARK    1  A    between atoms: C1_1  and  C2_2 
REMARK       I    between atoms: C2_2  and  N1_4 
REMARK    2  A    between atoms: N1_4  and  C3_5 
ROOT
ATOM      1  C3  <0> d          -0.527   3.149   1.256  0.00  0.00     0.016 C 
ATOM      2  H1  <0> d          -0.912   3.656   2.141  0.00  0.00     0.073 H 
ATOM      3  C4  <0> d          -1.313   3.600  -0.023  0.00  0.00    -0.042 C 
ATOM      4  C5  <0> d          -1.960   2.280  -0.545  0.00  0.00    -0.052 C 
ATOM      5  H2  <0> d          -2.807   2.400  -1.220  0.00  0.00     0.040 H 
ATOM      6  C6  <0> d          -0.761   1.450  -1.096  0.00  0.00    -0.061 C 
ATOM      7  C7  <0> d           0.020   1.008   0.163  0.00  0.00    -0.059 C 
ATOM      8  C8  <0> d          -0.778   1.613   1.358  0.00  0.00    -0.034 C 
ATOM      9  H3  <0> d          -0.601   1.154   2.330  0.00  0.00     0.043 H 
ATOM     10  C9  <0> d          -2.245   1.521   0.799  0.00  0.00    -0.056 C 
ATOM     11  H8  <0> d          -0.641   4.016  -0.773  0.00  0.00     0.036 H 
ATOM     12  H9  <0> d          -2.085   4.323   0.241  0.00  0.00     0.036 H 
ATOM     13  H10 <0> d          -0.132   2.069  -1.736  0.00  0.00     0.033 H 
ATOM     14  H11 <0> d          -1.122   0.580  -1.644  0.00  0.00     0.033 H 
ATOM     15  H12 <0> d           0.043  -0.080   0.233  0.00  0.00     0.033 H 
ATOM     16  H13 <0> d           1.034   1.408   0.141  0.00  0.00     0.033 H 
ATOM     17  H14 <0> d          -2.956   2.057   1.428  0.00  0.00     0.034 H 
ATOM     18  H15 <0> d          -2.555   0.490   0.628  0.00  0.00     0.034 H 
ENDROOT
BRANCH   1  19
ATOM     19  N1  <0> d           0.902   3.423   1.092  0.00  0.00    -0.356 N 
ATOM     20  C2  <0> d           1.698   3.524   2.176  0.00  0.00     0.213 C 
ATOM     21  O1  <0> d           1.230   3.387   3.286  0.00  0.00    -0.274 OA
ATOM     22  H7  <0> d           1.277   3.533   0.204  0.00  0.00     0.162 HD
BRANCH  20  23
ATOM     23  C1  <0> d           3.169   3.806   2.007  0.00  0.00    -0.003 C 
ATOM     24  H4  <0> d           3.402   3.897   0.946  0.00  0.00     0.040 H 
ATOM     25  H5  <0> d           3.421   4.737   2.515  0.00  0.00     0.040 H 
ATOM     26  H6  <0> d           3.747   2.989   2.438  0.00  0.00     0.040 H 
ENDBRANCH  20  23
ENDBRANCH   1  19
TORSDOF 2
