REMARK  3 active torsions:
REMARK  status: ('A' for Active; 'I' for Inactive)
REMARK    1  A    between atoms: C1_1  and  C2_2 
REMARK    2  A    between atoms: C5_5  and  O1_8 
REMARK    3  A    between atoms: O1_8  and  C8_9 
ROOT
ATOM      1  C2  <0> d           0.803  -0.072  -0.033  0.00  0.00    -0.062 A 
ATOM      2  C3  <0> d           0.822  -0.780  -1.220  0.00  0.00    -0.075 A 
ATOM      3  C4  <0> d           0.573  -2.139  -1.218  0.00  0.00    -0.050 A 
ATOM      4  C5  <0> d           0.303  -2.793  -0.025  0.00  0.00     0.069 A 
ATOM      5  C6  <0> d           0.285  -2.079   1.165  0.00  0.00    -0.050 A 
ATOM      6  C7  <0> d           0.540  -0.722   1.159  0.00  0.00    -0.075 A 
ATOM      7  H4  <0> d           1.032  -0.271  -2.149  0.00  0.00     0.084 H 
ATOM      8  H5  <0> d           0.587  -2.692  -2.146  0.00  0.00     0.087 H 
ATOM      9  H6  <0> d           0.075  -2.586   2.096  0.00  0.00     0.087 H 
ATOM     10  H7  <0> d           0.531  -0.167   2.086  0.00  0.00     0.084 H 
ENDROOT
BRANCH   4  11
ATOM     11  O1  <0> d           0.057  -4.129  -0.021  0.00  0.00    -0.346 OA
BRANCH  11  12
ATOM     12  C8  <0> d          -0.052  -4.772  -1.292  0.00  0.00     0.045 A 
ATOM     13  C10 <0> d          -0.822  -6.093  -1.352  0.00  0.00    -0.038 A 
ATOM     14  C9  <0> d           0.702  -6.089  -1.485  0.00  0.00    -0.038 A 
ATOM     15  H11 <0> d          -1.245  -6.472  -0.421  0.00  0.00     0.036 H 
ATOM     16  H12 <0> d          -1.405  -6.296  -2.250  0.00  0.00     0.036 H 
ATOM     17  H9  <0> d           1.122  -6.289  -2.470  0.00  0.00     0.036 H 
ATOM     18  H10 <0> d           1.282  -6.465  -0.641  0.00  0.00     0.036 H 
ATOM     19  H8  <0> d          -0.130  -4.106  -2.151  0.00  0.00     0.084 H 
ENDBRANCH  11  12
ENDBRANCH   4  11
BRANCH   1  20
ATOM     20  C1  <0> d           1.075   1.410  -0.037  0.00  0.00    -0.051 C 
ATOM     21  H1  <0> d           2.145   1.584   0.083  0.00  0.00     0.033 H 
ATOM     22  H2  <0> d           0.742   1.838  -0.982  0.00  0.00     0.033 H 
ATOM     23  H3  <0> d           0.536   1.881   0.785  0.00  0.00     0.033 H 
ENDBRANCH   1  20
TORSDOF 3
