REMARK  2 active torsions:
REMARK  status: ('A' for Active; 'I' for Inactive)
REMARK    1  A    between atoms: C1_1  and  C2_2 
REMARK    2  A    between atoms: C6_7  and  C7_9 
ROOT
ATOM      1  C2  <0> d          -2.124   1.715  -0.657  0.00  0.00    -0.045 C 
ATOM      2  H1  <0> d          -2.473   2.737  -0.804  0.00  0.00     0.040 H 
ATOM      3  C3  <0> d          -2.112   1.370   0.846  0.00  0.00    -0.061 C 
ATOM      4  C4  <0> d          -0.649   1.643   1.288  0.00  0.00    -0.064 C 
ATOM      5  C5  <0> d           0.169   1.152   0.068  0.00  0.00    -0.052 C 
ATOM      6  C6  <0> d          -0.674   1.576  -1.152  0.00  0.00     0.034 C 
ATOM      7  H2  <0> d          -0.318   2.532  -1.538  0.00  0.00     0.057 H 
ATOM      8  H6  <0> d          -2.801   2.015   1.391  0.00  0.00     0.033 H 
ATOM      9  H7  <0> d          -2.370   0.322   0.999  0.00  0.00     0.033 H 
ATOM     10  H8  <0> d          -0.398   1.066   2.179  0.00  0.00     0.033 H 
ATOM     11  H9  <0> d          -0.489   2.707   1.458  0.00  0.00     0.033 H 
ATOM     12  H10 <0> d           0.282   0.068   0.095  0.00  0.00     0.034 H 
ATOM     13  H11 <0> d           1.145   1.636   0.044  0.00  0.00     0.034 H 
ENDROOT
BRANCH   1  14
ATOM     14  C1  <0> d          -3.031   0.740  -1.411  0.00  0.00    -0.072 C 
ATOM     15  H3  <0> d          -2.703  -0.282  -1.220  0.00  0.00     0.028 H 
ATOM     16  H4  <0> d          -4.059   0.862  -1.070  0.00  0.00     0.028 H 
ATOM     17  H5  <0> d          -2.976   0.945  -2.481  0.00  0.00     0.028 H 
ENDBRANCH   1  14
BRANCH   6  18
ATOM     18  C7  <0> d          -0.593   0.523  -2.227  0.00  0.00     0.177 C 
ATOM     19  O1  <0> d          -0.457  -0.639  -1.925  0.00  0.00    -0.648 OA
ATOM     20  O2  <0> d          -0.671   0.876  -3.520  0.00  0.00    -0.648 OA
ENDBRANCH   6  18
TORSDOF 2
