REMARK  2 active torsions:
REMARK  status: ('A' for Active; 'I' for Inactive)
REMARK    1  A    between atoms: N1_4  and  C6_8 
REMARK    2  A    between atoms: C6_8  and  C7_9 
ROOT
ATOM      1  C1  <0> d          -4.494  -0.840   0.015  0.00  0.00    -0.076 A 
ATOM      2  C2  <0> d          -3.957  -0.356  -1.187  0.00  0.00    -0.068 A 
ATOM      3  C3  <0> d          -2.943   0.540  -1.161  0.00  0.00    -0.017 A 
ATOM      4  N1  <0> d          -2.430   0.973   0.019  0.00  0.00    -0.315 N 
ATOM      5  C4  <0> d          -2.925   0.527   1.189  0.00  0.00     0.247 A 
ATOM      6  O1  <0> d          -2.456   0.929   2.242  0.00  0.00    -0.268 OA
ATOM      7  C5  <0> d          -3.980  -0.400   1.199  0.00  0.00    -0.017 A 
ATOM      8  H1  <0> d          -5.306  -1.552   0.002  0.00  0.00     0.083 H 
ATOM      9  H2  <0> d          -4.355  -0.696  -2.132  0.00  0.00     0.085 H 
ATOM     10  H3  <0> d          -2.536   0.913  -2.090  0.00  0.00     0.111 H 
ATOM     11  H4  <0> d          -4.381  -0.761   2.135  0.00  0.00     0.092 H 
ENDROOT
BRANCH   4  12
ATOM     12  C6  <0> d          -1.329   1.940   0.019  0.00  0.00     0.082 C 
ATOM     13  H5  <0> d          -1.391   2.561   0.913  0.00  0.00     0.081 H 
ATOM     14  H6  <0> d          -1.400   2.570  -0.867  0.00  0.00     0.081 H 
BRANCH  12  15
ATOM     15  C7  <0> d          -0.014   1.204   0.009  0.00  0.00     0.191 C 
ATOM     16  O2  <0> d           0.002  -0.004   0.002  0.00  0.00    -0.647 OA
ATOM     17  O3  <0> d           1.139   1.891   0.001  0.00  0.00    -0.647 OA
ENDBRANCH  12  15
ENDBRANCH   4  12
TORSDOF 2
