REMARK  2 active torsions:
REMARK  status: ('A' for Active; 'I' for Inactive)
REMARK    1  A    between atoms: C2_2  and  C3_3 
REMARK    2  A    between atoms: C8_8  and  C9_9 
ROOT
ATOM      1  C3  <0> d          -2.439   0.969   0.019  0.00  0.00    -0.027 A 
ATOM      2  C4  <0> d          -2.425  -0.426   0.005  0.00  0.00    -0.072 A 
ATOM      3  C5  <0> d          -3.613  -1.127   0.013  0.00  0.00    -0.082 A 
ATOM      4  C6  <0> d          -4.825  -0.455   0.022  0.00  0.00    -0.082 A 
ATOM      5  C7  <0> d          -4.859   0.924   0.030  0.00  0.00    -0.072 A 
ATOM      6  C8  <0> d          -3.670   1.651   0.028  0.00  0.00    -0.027 A 
ATOM      7  H4  <0> d          -1.485  -0.957  -0.007  0.00  0.00     0.084 H 
ATOM      8  H5  <0> d          -3.599  -2.207   0.006  0.00  0.00     0.083 H 
ATOM      9  H6  <0> d          -5.748  -1.015   0.024  0.00  0.00     0.083 H 
ATOM     10  H7  <0> d          -5.808   1.440   0.037  0.00  0.00     0.084 H 
ENDROOT
BRANCH   1  11
ATOM     11  C2  <0> d          -1.171   1.724   0.017  0.00  0.00    -0.081 C 
ATOM     12  C1  <0> d          -0.013   1.076   0.008  0.00  0.00    -0.120 C 
ATOM     13  H1  <0> d           0.002  -0.004   0.002  0.00  0.00     0.066 H 
ATOM     14  H2  <0> d           0.915   1.629   0.002  0.00  0.00     0.066 H 
ATOM     15  H3  <0> d          -1.185   2.804   0.023  0.00  0.00     0.083 H 
ENDBRANCH   1  11
BRANCH   6  16
ATOM     16  C9  <0> d          -3.701   3.126   0.036  0.00  0.00    -0.081 C 
ATOM     17  C10 <0> d          -4.864   3.765   0.045  0.00  0.00    -0.120 C 
ATOM     18  H9  <0> d          -4.887   4.845   0.051  0.00  0.00     0.066 H 
ATOM     19  H10 <0> d          -5.788   3.206   0.047  0.00  0.00     0.066 H 
ATOM     20  H8  <0> d          -2.777   3.686   0.034  0.00  0.00     0.083 H 
ENDBRANCH   6  16
TORSDOF 2
