REMARK  3 active torsions:
REMARK  status: ('A' for Active; 'I' for Inactive)
REMARK    1  A    between atoms: C3_3  and  C7_9 
REMARK    2  A    between atoms: C6_6  and  N1_7 
REMARK    3  A    between atoms: C7_9  and  O1_10 
ROOT
ATOM      1  C1  <0> d          -1.250   3.037   0.030  0.00  0.00    -0.057 A 
ATOM      2  C2  <0> d          -2.457   3.708   0.035  0.00  0.00    -0.071 A 
ATOM      3  C3  <0> d          -3.645   3.000   0.037  0.00  0.00    -0.013 A 
ATOM      4  C4  <0> d          -3.629   1.616   0.029  0.00  0.00     0.044 A 
ATOM      5  C5  <0> d          -2.424   0.938   0.019  0.00  0.00    -0.036 A 
ATOM      6  C6  <0> d          -1.230   1.648   0.017  0.00  0.00     0.027 A 
ATOM      7 Cl1  <0> d          -5.122   0.731   0.030  0.00  0.00    -0.084 Cl
ATOM      8  H1  <0> d          -0.324   3.591   0.033  0.00  0.00     0.086 H 
ATOM      9  H2  <0> d          -2.473   4.788   0.042  0.00  0.00     0.084 H 
ATOM     10  H3  <0> d          -2.412  -0.142   0.013  0.00  0.00     0.089 H 
ENDROOT
BRANCH   3  11
ATOM     11  C7  <0> d          -4.959   3.737   0.047  0.00  0.00     0.042 C 
ATOM     12  H6  <0> d          -5.537   3.469  -0.850  0.00  0.00     0.081 H 
ATOM     13  H7  <0> d          -5.529   3.459   0.946  0.00  0.00     0.081 H 
BRANCH  11  14
ATOM     14  O1  <0> d          -4.716   5.145   0.054  0.00  0.00    -0.396 OA
ATOM     15  H8  <0> d          -5.562   5.849   0.062  0.00  0.00     0.209 HD
ENDBRANCH  11  14
ENDBRANCH   3  11
BRANCH   6  16
ATOM     16  N1  <0> d          -0.011   0.966   0.007  0.00  0.00    -0.399 N 
ATOM     17  H4  <0> d           0.004  -0.134  -0.003  0.00  0.00     0.156 HD
ATOM     18  H5  <0> d           0.934   1.529   0.011  0.00  0.00     0.156 HD
ENDBRANCH   6  16
TORSDOF 3
