REMARK  0 active torsions:
REMARK  status: ('A' for Active; 'I' for Inactive)
ROOT
ATOM      1  C1  <0> d          -0.016   1.343   0.009  0.00  0.00     0.089 A 
ATOM      2  N1  <0> d           1.229   1.744  -0.000  0.00  0.00    -0.143 NA
ATOM      3  N2  <0> d           2.015   0.722  -0.013  0.00  0.00    -0.135 NA
ATOM      4  C2  <0> d           1.310  -0.367  -0.011  0.00  0.00     0.129 A 
ATOM      5  N3  <0> d           0.002  -0.004   0.002  0.00  0.00    -0.327 N 
ATOM      6  C3  <0> d          -1.124  -0.937   0.005  0.00  0.00     0.002 C 
ATOM      7  C4  <0> d          -0.622  -2.317  -0.433  0.00  0.00    -0.049 C 
ATOM      8  C5  <0> d           0.615  -2.697   0.387  0.00  0.00    -0.057 C 
ATOM      9  C6  <0> d           1.789  -1.797  -0.020  0.00  0.00    -0.008 C 
ATOM     10  H1  <0> d          -0.893   1.973   0.025  0.00  0.00     0.146 H 
ATOM     11  H2  <0> d          -1.542  -1.002   1.010  0.00  0.00     0.065 H 
ATOM     12  H3  <0> d          -1.889  -0.589  -0.690  0.00  0.00     0.065 H 
ATOM     13  H4  <0> d          -1.406  -3.057  -0.272  0.00  0.00     0.035 H 
ATOM     14  H5  <0> d          -0.361  -2.290  -1.491  0.00  0.00     0.035 H 
ATOM     15  H6  <0> d           0.403  -2.563   1.448  0.00  0.00     0.033 H 
ATOM     16  H7  <0> d           0.872  -3.739   0.196  0.00  0.00     0.033 H 
ATOM     17  H8  <0> d           2.129  -2.065  -1.020  0.00  0.00     0.044 H 
ATOM     18  H9  <0> d           2.607  -1.915   0.692  0.00  0.00     0.044 H 
ENDROOT
TORSDOF 0
