REMARK  8 active torsions:
REMARK  status: ('A' for Active; 'I' for Inactive)
REMARK    1  A    between atoms: C1_1  and  C2_2 
REMARK    2  A    between atoms: C2_2  and  C3_3 
REMARK    3  A    between atoms: C3_3  and  C4_4 
REMARK    4  A    between atoms: C4_4  and  C5_5 
REMARK    5  A    between atoms: C5_5  and  C6_6 
REMARK    6  A    between atoms: C6_6  and  C7_7 
REMARK    7  A    between atoms: C7_7  and  O2_9 
REMARK    8  A    between atoms: O2_9  and  C8_10 
ROOT
ATOM      1  C4  <0> d          -3.814   1.677   0.029  0.00  0.00    -0.065 C 
ATOM      2  H8  <0> d          -3.876   2.298   0.923  0.00  0.00     0.033 H 
ATOM      3  H9  <0> d          -3.885   2.307  -0.857  0.00  0.00     0.033 H 
ENDROOT
BRANCH   1   4
ATOM      4  C3  <0> d          -4.963   0.667   0.029  0.00  0.00    -0.065 C 
ATOM      5  H6  <0> d          -4.901   0.046  -0.865  0.00  0.00     0.033 H 
ATOM      6  H7  <0> d          -4.893   0.036   0.915  0.00  0.00     0.033 H 
BRANCH   4   7
ATOM      7  C2  <0> d          -6.299   1.414   0.040  0.00  0.00    -0.069 C 
ATOM      8  H4  <0> d          -6.361   2.035   0.933  0.00  0.00     0.032 H 
ATOM      9  H5  <0> d          -6.369   2.044  -0.847  0.00  0.00     0.032 H 
BRANCH   7  10
ATOM     10  C1  <0> d          -7.448   0.404   0.040  0.00  0.00    -0.077 C 
ATOM     11  H1  <0> d          -7.386  -0.217  -0.854  0.00  0.00     0.027 H 
ATOM     12  H2  <0> d          -7.378  -0.227   0.926  0.00  0.00     0.027 H 
ATOM     13  H3  <0> d          -8.399   0.936   0.047  0.00  0.00     0.027 H 
ENDBRANCH   7  10
ENDBRANCH   4   7
ENDBRANCH   1   4
BRANCH   1  14
ATOM     14  C5  <0> d          -2.479   0.930   0.019  0.00  0.00    -0.057 C 
ATOM     15  H10 <0> d          -2.417   0.309  -0.875  0.00  0.00     0.033 H 
ATOM     16  H11 <0> d          -2.408   0.299   0.905  0.00  0.00     0.033 H 
BRANCH  14  17
ATOM     17  C6  <0> d          -1.329   1.940   0.019  0.00  0.00     0.016 C 
ATOM     18  H12 <0> d          -1.391   2.561   0.913  0.00  0.00     0.048 H 
ATOM     19  H13 <0> d          -1.400   2.570  -0.867  0.00  0.00     0.048 H 
BRANCH  17  20
ATOM     20  C7  <0> d          -0.014   1.204   0.009  0.00  0.00     0.258 C 
ATOM     21  O1  <0> d           0.002  -0.004   0.002  0.00  0.00    -0.265 OA
BRANCH  20  22
ATOM     22  O2  <0> d           1.139   1.891   0.001  0.00  0.00    -0.326 OA
BRANCH  22  23
ATOM     23  C8  <0> d           2.367   1.117  -0.015  0.00  0.00     0.013 C 
ATOM     24  H14 <0> d           2.392   0.493  -0.908  0.00  0.00     0.067 H 
ATOM     25  H15 <0> d           3.223   1.792  -0.019  0.00  0.00     0.067 H 
ATOM     26  H16 <0> d           2.409   0.484   0.872  0.00  0.00     0.067 H 
ENDBRANCH  22  23
ENDBRANCH  20  22
ENDBRANCH  17  20
ENDBRANCH  14  17
ENDBRANCH   1  14
TORSDOF 8
