REMARK  1 active torsions:
REMARK  status: ('A' for Active; 'I' for Inactive)
REMARK    1  A    between atoms: C2_2  and  N5_12 
ROOT
ATOM      1  C1  <0> d          -0.017   1.376   0.010  0.00  0.00     0.048 A 
ATOM      2  C2  <0> d           1.121   2.085   0.003  0.00  0.00     0.119 A 
ATOM      3  N1  <0> d           2.355   1.471  -0.013  0.00  0.00    -0.305 N 
ATOM      4  H1  <0> d           3.189   2.024  -0.018  0.00  0.00     0.170 HD
ATOM      5  C3  <0> d           2.439   0.122  -0.021  0.00  0.00     0.295 A 
ATOM      6  O1  <0> d           3.523  -0.433  -0.034  0.00  0.00    -0.264 OA
ATOM      7  C4  <0> d           1.196  -0.658  -0.013  0.00  0.00     0.221 A 
ATOM      8  N2  <0> d           0.002  -0.004   0.002  0.00  0.00    -0.217 N 
ATOM      9  N3  <0> d          -0.930  -0.892   0.006  0.00  0.00    -0.159 NA
ATOM     10  C5  <0> d          -0.387  -2.088  -0.005  0.00  0.00     0.109 A 
ATOM     11  N4  <0> d           0.934  -1.955  -0.017  0.00  0.00    -0.216 NA
ATOM     12  H2  <0> d          -0.964   1.894   0.017  0.00  0.00     0.120 H 
ATOM     13  H3  <0> d          -0.926  -3.024  -0.005  0.00  0.00     0.149 H 
ENDROOT
BRANCH   2  14
ATOM     14  N5  <0> d           1.055   3.473   0.010  0.00  0.00    -0.384 N 
ATOM     15  H4  <0> d           0.193   3.917   0.021  0.00  0.00     0.157 HD
ATOM     16  H5  <0> d           1.871   3.997   0.005  0.00  0.00     0.157 HD
ENDBRANCH   2  14
TORSDOF 1
