REMARK  0 active torsions:
REMARK  status: ('A' for Active; 'I' for Inactive)
ROOT
ATOM      1  C1  <0> d           1.179   2.156   0.002  0.00  0.00    -0.058 A 
ATOM      2  C2  <0> d           1.106   3.537   0.011  0.00  0.00    -0.042 A 
ATOM      3  C3  <0> d          -0.136   4.150   0.026  0.00  0.00     0.125 A 
ATOM      4  N1  <0> d          -1.247   3.438   0.033  0.00  0.00    -0.247 NA
ATOM      5  C4  <0> d          -1.229   2.121   0.019  0.00  0.00     0.024 A 
ATOM      6  C5  <0> d          -0.017   1.428   0.010  0.00  0.00     0.062 A 
ATOM      7  C6  <0> d           0.002  -0.004   0.002  0.00  0.00     0.101 C 
ATOM      8  N2  <0> d           0.018  -1.140  -0.004  0.00  0.00    -0.191 NA
ATOM      9 Cl1  <0> d          -0.232   5.883   0.035  0.00  0.00    -0.062 Cl
ATOM     10  H1  <0> d           2.134   1.652  -0.010  0.00  0.00     0.086 H 
ATOM     11  H2  <0> d           2.008   4.131   0.005  0.00  0.00     0.088 H 
ATOM     12  H3  <0> d          -2.160   1.573   0.020  0.00  0.00     0.117 H 
ENDROOT
TORSDOF 0
