REMARK  2 active torsions:
REMARK  status: ('A' for Active; 'I' for Inactive)
REMARK    1  A    between atoms: C2_2  and  S1_7 
REMARK    2  A    between atoms: S1_7  and  N3_10 
ROOT
ATOM      1  C1  <0> d          -0.016   1.337   0.009  0.00  0.00     0.042 A 
ATOM      2  C2  <0> d           1.259   1.771  -0.000  0.00  0.00     0.167 A 
ATOM      3  N1  <0> d           2.056   0.658  -0.014  0.00  0.00    -0.339 N 
ATOM      4  H1  <0> d           3.026   0.645  -0.023  0.00  0.00     0.167 HD
ATOM      5  C3  <0> d           1.240  -0.418  -0.012  0.00  0.00     0.064 A 
ATOM      6  N2  <0> d           0.002  -0.004   0.002  0.00  0.00    -0.253 NA
ATOM      7  H2  <0> d          -0.898   1.960   0.025  0.00  0.00     0.119 H 
ATOM      8  H3  <0> d           1.558  -1.450  -0.021  0.00  0.00     0.143 H 
ENDROOT
BRANCH   2   9
ATOM      9  S1  <0> d           1.797   3.449   0.003  0.00  0.00     0.273 S 
ATOM     10  O1  <0> d           0.741   4.213   0.568  0.00  0.00    -0.199 OA
ATOM     11  O2  <0> d           3.112   3.452   0.541  0.00  0.00    -0.199 OA
BRANCH   9  12
ATOM     12  N3  <0> d           1.931   3.923  -1.578  0.00  0.00    -0.323 N 
ATOM     13  H4  <0> d           1.723   3.299  -2.291  0.00  0.00     0.169 HD
ATOM     14  H5  <0> d           2.218   4.825  -1.791  0.00  0.00     0.169 HD
ENDBRANCH   9  12
ENDBRANCH   2   9
TORSDOF 2
