REMARK  6 active torsions:
REMARK  status: ('A' for Active; 'I' for Inactive)
REMARK    1  A    between atoms: C1_1  and  C2_2 
REMARK    2  A    between atoms: C2_2  and  C3_4 
REMARK    3  A    between atoms: C2_2  and  O2_11 
REMARK       I    between atoms: C3_4  and  N1_6 
REMARK    4  A    between atoms: N1_6  and  C4_7 
REMARK    5  A    between atoms: C4_7  and  C5_8 
REMARK    6  A    between atoms: C5_8  and  C7_10 
ROOT
ATOM      1  C3  <0> d          -0.014   1.209   0.009  0.00  0.00     0.246 C 
ATOM      2  O1  <0> d           0.002  -0.004   0.002  0.00  0.00    -0.271 OA
ATOM      3  N1  <0> d           1.143   1.898   0.001  0.00  0.00    -0.355 N 
ATOM      4  H5  <0> d           1.130   2.868   0.007  0.00  0.00     0.162 HD
ENDROOT
BRANCH   3   5
ATOM      5  C4  <0> d           2.422   1.183  -0.015  0.00  0.00     0.014 C 
ATOM      6  H6  <0> d           2.497   0.553   0.871  0.00  0.00     0.070 H 
ATOM      7  H7  <0> d           2.480   0.562  -0.909  0.00  0.00     0.070 H 
BRANCH   5   8
ATOM      8  C5  <0> d           3.554   2.178  -0.020  0.00  0.00    -0.075 C 
ATOM      9  C6  <0> d           4.122   2.530   1.107  0.00  0.00    -0.118 C 
ATOM     10  H8  <0> d           3.779   2.107   2.039  0.00  0.00     0.067 H 
ATOM     11  H9  <0> d           4.933   3.243   1.103  0.00  0.00     0.067 H 
BRANCH   8  12
ATOM     12  C7  <0> d           4.032   2.768  -1.322  0.00  0.00    -0.054 C 
ATOM     13  H10 <0> d           3.473   3.679  -1.536  0.00  0.00     0.033 H 
ATOM     14  H11 <0> d           5.094   3.003  -1.246  0.00  0.00     0.033 H 
ATOM     15  H12 <0> d           3.877   2.048  -2.126  0.00  0.00     0.033 H 
ENDBRANCH   8  12
ENDBRANCH   5   8
ENDBRANCH   3   5
BRANCH   1  16
ATOM     16  C2  <0> d          -1.330   1.944   0.019  0.00  0.00     0.109 C 
ATOM     17  H1  <0> d          -1.355   2.631   0.865  0.00  0.00     0.097 H 
BRANCH  16  18
ATOM     18  C1  <0> d          -1.483   2.732  -1.283  0.00  0.00    -0.044 C 
ATOM     19  H2  <0> d          -1.458   2.045  -2.129  0.00  0.00     0.031 H 
ATOM     20  H3  <0> d          -2.434   3.264  -1.276  0.00  0.00     0.031 H 
ATOM     21  H4  <0> d          -0.667   3.449  -1.373  0.00  0.00     0.031 H 
ENDBRANCH  16  18
BRANCH  16  22
ATOM     22  O2  <0> d          -2.400   1.005   0.136  0.00  0.00    -0.387 OA
ATOM     23  H13 <0> d          -2.439   0.361  -0.584  0.00  0.00     0.210 HD
ENDBRANCH  16  22
ENDBRANCH   1  16
TORSDOF 6
