REMARK  6 active torsions:
REMARK  status: ('A' for Active; 'I' for Inactive)
REMARK    1  A    between atoms: C1_1  and  C2_2 
REMARK    2  A    between atoms: C2_2  and  C3_3 
REMARK    3  A    between atoms: C2_2  and  N1_4 
REMARK    4  A    between atoms: N1_4  and  C4_5 
REMARK       I    between atoms: N1_4  and  C7_8 
REMARK    5  A    between atoms: C4_5  and  C5_6 
REMARK    6  A    between atoms: C4_5  and  C6_7 
REMARK       I    between atoms: C7_8  and  N2_10 
ROOT
ATOM      1  N1  <0> d           1.068   1.990   0.024  0.00  0.00    -0.326 N 
ATOM      2  C7  <0> d          -0.096   1.315   0.099  0.00  0.00     0.316 C 
ATOM      3  O1  <0> d          -0.096   0.099   0.073  0.00  0.00    -0.247 OA
ATOM      4  N2  <0> d          -1.260   1.987   0.197  0.00  0.00    -0.352 N 
ATOM      5  H15 <0> d          -2.090   1.502   0.329  0.00  0.00     0.160 HD
ATOM      6  H16 <0> d          -1.268   2.955   0.135  0.00  0.00     0.160 HD
ENDROOT
BRANCH   1   7
ATOM      7  C2  <0> d           1.062   3.453  -0.056  0.00  0.00     0.009 C 
ATOM      8  H4  <0> d           2.085   3.816  -0.149  0.00  0.00     0.071 H 
BRANCH   7   9
ATOM      9  C1  <0> d           0.252   3.893  -1.278  0.00  0.00    -0.057 C 
ATOM     10  H1  <0> d          -0.735   3.432  -1.245  0.00  0.00     0.030 H 
ATOM     11  H2  <0> d           0.146   4.978  -1.271  0.00  0.00     0.030 H 
ATOM     12  H3  <0> d           0.769   3.584  -2.187  0.00  0.00     0.030 H 
ENDBRANCH   7   9
BRANCH   7  13
ATOM     13  C3  <0> d           0.428   4.031   1.211  0.00  0.00    -0.057 C 
ATOM     14  H5  <0> d           1.068   3.816   2.067  0.00  0.00     0.030 H 
ATOM     15  H6  <0> d           0.316   5.109   1.102  0.00  0.00     0.030 H 
ATOM     16  H7  <0> d          -0.551   3.578   1.366  0.00  0.00     0.030 H 
ENDBRANCH   7  13
ENDBRANCH   1   7
BRANCH   1  17
ATOM     17  C4  <0> d           2.339   1.262   0.022  0.00  0.00     0.009 C 
ATOM     18  H8  <0> d           2.144   0.191   0.087  0.00  0.00     0.071 H 
BRANCH  17  19
ATOM     19  C5  <0> d           3.098   1.564  -1.271  0.00  0.00    -0.057 C 
ATOM     20  H9  <0> d           3.293   2.635  -1.336  0.00  0.00     0.030 H 
ATOM     21  H10 <0> d           4.044   1.022  -1.272  0.00  0.00     0.030 H 
ATOM     22  H11 <0> d           2.499   1.251  -2.126  0.00  0.00     0.030 H 
ENDBRANCH  17  19
BRANCH  17  23
ATOM     23  C6  <0> d           3.180   1.701   1.222  0.00  0.00    -0.057 C 
ATOM     24  H12 <0> d           2.639   1.486   2.144  0.00  0.00     0.030 H 
ATOM     25  H13 <0> d           4.126   1.159   1.221  0.00  0.00     0.030 H 
ATOM     26  H14 <0> d           3.375   2.772   1.157  0.00  0.00     0.030 H 
ENDBRANCH  17  23
ENDBRANCH   1  17
TORSDOF 6
