REMARK  3 active torsions:
REMARK  status: ('A' for Active; 'I' for Inactive)
REMARK    1  A    between atoms: C1_1  and  C2_2 
REMARK    2  A    between atoms: C4_5  and  C10_14 
REMARK    3  A    between atoms: C6_7  and  C9_13 
ROOT
ATOM      1  C2  <0> d          -0.019   1.526   0.010  0.00  0.00    -0.038 C 
ATOM      2  H1  <0> d          -0.523   1.881   0.909  0.00  0.00     0.042 H 
ATOM      3  C3  <0> d           0.002  -0.004   0.002  0.00  0.00    -0.041 C 
ATOM      4  C4  <0> d           0.935  -0.514   1.061  0.00  0.00    -0.087 C 
ATOM      5  C5  <0> d           1.843   0.207   1.636  0.00  0.00    -0.096 C 
ATOM      6  C6  <0> d           2.083   1.657   1.331  0.00  0.00    -0.025 C 
ATOM      7  H2  <0> d           3.156   1.841   1.272  0.00  0.00     0.047 H 
ATOM      8  C7  <0> d           1.430   2.031  -0.001  0.00  0.00     0.040 C 
ATOM      9  H3  <0> d           1.975   1.562  -0.820  0.00  0.00     0.064 H 
ATOM     10  C8  <0> d           1.443   3.494  -0.165  0.00  0.00     0.065 C 
ATOM     11  N1  <0> d           1.452   4.623  -0.291  0.00  0.00    -0.197 NA
ATOM     12  H7  <0> d          -1.003  -0.380   0.195  0.00  0.00     0.040 H 
ATOM     13  H8  <0> d           0.336  -0.355  -0.974  0.00  0.00     0.040 H 
ATOM     14  H9  <0> d           2.467  -0.264   2.381  0.00  0.00     0.077 H 
ENDROOT
BRANCH   1  15
ATOM     15  C1  <0> d          -0.751   2.037  -1.232  0.00  0.00    -0.071 C 
ATOM     16  H4  <0> d          -1.774   1.661  -1.231  0.00  0.00     0.028 H 
ATOM     17  H5  <0> d          -0.764   3.127  -1.223  0.00  0.00     0.028 H 
ATOM     18  H6  <0> d          -0.237   1.687  -2.127  0.00  0.00     0.028 H 
ENDBRANCH   1  15
BRANCH   6  19
ATOM     19  C9  <0> d           1.485   2.515   2.448  0.00  0.00    -0.068 C 
ATOM     20  H10 <0> d           1.958   2.259   3.396  0.00  0.00     0.028 H 
ATOM     21  H11 <0> d           1.659   3.569   2.228  0.00  0.00     0.028 H 
ATOM     22  H12 <0> d           0.413   2.330   2.514  0.00  0.00     0.028 H 
ENDBRANCH   6  19
BRANCH   4  23
ATOM     23  C10 <0> d           0.808  -1.956   1.480  0.00  0.00    -0.055 C 
ATOM     24  H13 <0> d           1.452  -2.574   0.855  0.00  0.00     0.033 H 
ATOM     25  H14 <0> d           1.106  -2.059   2.523  0.00  0.00     0.033 H 
ATOM     26  H15 <0> d          -0.227  -2.278   1.365  0.00  0.00     0.033 H 
ENDBRANCH   4  23
TORSDOF 3
