REMARK  2 active torsions:
REMARK  status: ('A' for Active; 'I' for Inactive)
REMARK    1  A    between atoms: C6_6  and  C7_7 
REMARK    2  A    between atoms: C7_7  and  O1_8 
ROOT
ATOM      1  C1  <0> d          -0.016   1.312   0.009  0.00  0.00    -0.074 A 
ATOM      2  C2  <0> d           1.248   2.069   0.001  0.00  0.00    -0.072 A 
ATOM      3  C3  <0> d           2.397   1.429  -0.013  0.00  0.00    -0.026 A 
ATOM      4  C4  <0> d           2.412  -0.044  -0.021  0.00  0.00    -0.025 A 
ATOM      5  C5  <0> d           1.291  -0.720  -0.014  0.00  0.00    -0.064 A 
ATOM      6  C6  <0> d           0.002  -0.004   0.002  0.00  0.00    -0.034 A 
ATOM      7  C8  <0> d           3.870   0.115  -0.034  0.00  0.00    -0.071 A 
ATOM      8  C9  <0> d           3.870   1.433  -0.027  0.00  0.00    -0.071 A 
ATOM      9  H1  <0> d          -0.959   1.838   0.026  0.00  0.00     0.084 H 
ATOM     10  H2  <0> d           1.231   3.149   0.007  0.00  0.00     0.084 H 
ATOM     11  H3  <0> d           1.310  -1.800  -0.020  0.00  0.00     0.085 H 
ATOM     12  H7  <0> d           4.675  -0.606  -0.045  0.00  0.00     0.084 H 
ATOM     13  H8  <0> d           4.632   2.198  -0.029  0.00  0.00     0.084 H 
ENDROOT
BRANCH   6  14
ATOM     14  C7  <0> d          -1.292  -0.777   0.011  0.00  0.00     0.040 C 
ATOM     15  H4  <0> d          -1.142  -1.730   0.518  0.00  0.00     0.081 H 
ATOM     16  H5  <0> d          -2.055  -0.202   0.535  0.00  0.00     0.081 H 
BRANCH  14  17
ATOM     17  O1  <0> d          -1.714  -1.014  -1.334  0.00  0.00    -0.396 OA
ATOM     18  H6  <0> d          -2.542  -1.508  -1.405  0.00  0.00     0.209 HD
ENDBRANCH  14  17
ENDBRANCH   6  14
TORSDOF 2
