REMARK  4 active torsions:
REMARK  status: ('A' for Active; 'I' for Inactive)
REMARK    1  A    between atoms: C1_1  and  C2_2 
REMARK    2  A    between atoms: C5_6  and  C10_13 
REMARK    3  A    between atoms: C6_8  and  C8_11 
REMARK    4  A    between atoms: C6_8  and  C9_12 
ROOT
ATOM      1  C2  <0> d          -1.630  -2.014  -0.211  0.00  0.00     0.001 C 
ATOM      2  H1  <0> d          -1.289  -2.522   0.579  0.00  0.00     0.051 H 
ATOM      3  C3  <0> d          -0.867  -2.439  -1.470  0.00  0.00    -0.055 C 
ATOM      4  C4  <0> d           0.600  -2.026  -1.339  0.00  0.00    -0.060 C 
ATOM      5  C5  <0> d           0.710  -0.502  -1.262  0.00  0.00    -0.044 C 
ATOM      6  H2  <0> d           1.760  -0.212  -1.229  0.00  0.00     0.041 H 
ATOM      7  C6  <0> d           0.002  -0.004   0.002  0.00  0.00     0.017 C 
ATOM      8  C7  <0> d          -1.416  -0.531   0.003  0.00  0.00     0.139 C 
ATOM      9  O1  <0> d          -2.353   0.212   0.171  0.00  0.00    -0.297 OA
ATOM     10  H6  <0> d          -0.931  -3.521  -1.586  0.00  0.00     0.034 H 
ATOM     11  H7  <0> d          -1.304  -1.953  -2.342  0.00  0.00     0.034 H 
ATOM     12  H8  <0> d           1.020  -2.463  -0.432  0.00  0.00     0.033 H 
ATOM     13  H9  <0> d           1.157  -2.385  -2.204  0.00  0.00     0.033 H 
ENDROOT
BRANCH   7  14
ATOM     14  C8  <0> d          -0.019   1.526   0.010  0.00  0.00    -0.062 C 
ATOM     15  H10 <0> d           1.004   1.903   0.003  0.00  0.00     0.029 H 
ATOM     16  H11 <0> d          -0.546   1.887  -0.873  0.00  0.00     0.029 H 
ATOM     17  H12 <0> d          -0.529   1.877   0.907  0.00  0.00     0.029 H 
ENDBRANCH   7  14
BRANCH   7  18
ATOM     18  C9  <0> d           0.741  -0.515   1.240  0.00  0.00    -0.062 C 
ATOM     19  H13 <0> d           0.232  -0.165   2.138  0.00  0.00     0.029 H 
ATOM     20  H14 <0> d           0.755  -1.605   1.232  0.00  0.00     0.029 H 
ATOM     21  H15 <0> d           1.764  -0.139   1.233  0.00  0.00     0.029 H 
ENDBRANCH   7  18
BRANCH   5  22
ATOM     22  C10 <0> d           0.048   0.116  -2.495  0.00  0.00    -0.072 C 
ATOM     23  H16 <0> d           0.122   1.202  -2.441  0.00  0.00     0.028 H 
ATOM     24  H17 <0> d           0.552  -0.239  -3.394  0.00  0.00     0.028 H 
ATOM     25  H18 <0> d          -1.002  -0.175  -2.528  0.00  0.00     0.028 H 
ENDBRANCH   5  22
BRANCH   1  26
ATOM     26  C1  <0> d          -3.122  -2.296  -0.395  0.00  0.00    -0.066 C 
ATOM     27  H3  <0> d          -3.492  -1.748  -1.262  0.00  0.00     0.028 H 
ATOM     28  H4  <0> d          -3.274  -3.364  -0.549  0.00  0.00     0.028 H 
ATOM     29  H5  <0> d          -3.665  -1.977   0.495  0.00  0.00     0.028 H 
ENDBRANCH   1  26
TORSDOF 4
