REMARK  1 active torsions:
REMARK  status: ('A' for Active; 'I' for Inactive)
REMARK    1  A    between atoms: C1_1  and  N1_2 
ROOT
ATOM      1  N1  <0> d           4.028  -0.568  -0.040  0.00  0.00    -0.311 N 
ATOM      2  C2  <0> d           3.234  -1.669  -0.038  0.00  0.00     0.070 A 
ATOM      3  N2  <0> d           1.933  -1.585  -0.024  0.00  0.00    -0.224 NA
ATOM      4  C3  <0> d           1.312  -0.398  -0.013  0.00  0.00     0.164 A 
ATOM      5  C4  <0> d           2.070   0.777  -0.013  0.00  0.00     0.172 A 
ATOM      6  C5  <0> d           3.483   0.669  -0.028  0.00  0.00     0.281 A 
ATOM      7  O1  <0> d           4.188   1.663  -0.029  0.00  0.00    -0.265 OA
ATOM      8  N3  <0> d           1.202   1.816   0.000  0.00  0.00    -0.234 NA
ATOM      9  C6  <0> d          -0.016   1.359   0.009  0.00  0.00     0.066 A 
ATOM     10  N4  <0> d           0.002  -0.004   0.002  0.00  0.00    -0.333 N 
ATOM     11  H1  <0> d          -0.799  -0.758   0.006  0.00  0.00     0.168 HD
ATOM     12  H5  <0> d           3.695  -2.645  -0.047  0.00  0.00     0.144 H 
ATOM     13  H6  <0> d          -0.908   1.968   0.017  0.00  0.00     0.143 H 
ENDROOT
BRANCH   1  14
ATOM     14  C1  <0> d           5.485  -0.722  -0.054  0.00  0.00    -0.010 C 
ATOM     15  H2  <0> d           5.740  -1.792  -0.062  0.00  0.00     0.057 H 
ATOM     16  H3  <0> d           5.912  -0.250   0.843  0.00  0.00     0.057 H 
ATOM     17  H4  <0> d           5.896  -0.240  -0.953  0.00  0.00     0.057 H 
ENDBRANCH   1  14
TORSDOF 1
