REMARK  1 active torsions:
REMARK  status: ('A' for Active; 'I' for Inactive)
REMARK    1  A    between atoms: C1_1  and  C2_2 
ROOT
ATOM      1  C2  <0> d           1.383   1.832  -0.001  0.00  0.00    -0.033 A 
ATOM      2  C3  <0> d           2.131   0.717  -0.014  0.00  0.00    -0.015 A 
ATOM      3  N1  <0> d           1.322  -0.387  -0.013  0.00  0.00    -0.350 N 
ATOM      4  H1  <0> d           1.634  -1.306  -0.020  0.00  0.00     0.166 HD
ATOM      5  C4  <0> d           0.002  -0.004   0.002  0.00  0.00     0.138 A 
ATOM      6  C5  <0> d          -0.017   1.404   0.010  0.00  0.00     0.017 A 
ATOM      7  C6  <0> d          -1.242   2.074   0.030  0.00  0.00    -0.067 A 
ATOM      8  C7  <0> d          -2.398   1.316   0.032  0.00  0.00    -0.065 A 
ATOM      9  C8  <0> d          -2.304  -0.067   0.025  0.00  0.00     0.004 A 
ATOM     10  N2  <0> d          -1.139  -0.679   0.010  0.00  0.00    -0.242 NA
ATOM     11  H5  <0> d           3.210   0.695  -0.025  0.00  0.00     0.112 H 
ATOM     12  H6  <0> d          -1.285   3.153   0.037  0.00  0.00     0.085 H 
ATOM     13  H7  <0> d          -3.365   1.796   0.044  0.00  0.00     0.085 H 
ATOM     14  H8  <0> d          -3.209  -0.657   0.030  0.00  0.00     0.114 H 
ENDROOT
BRANCH   1  15
ATOM     15  C1  <0> d           1.888   3.252   0.001  0.00  0.00    -0.049 C 
ATOM     16  H2  <0> d           2.019   3.589   1.029  0.00  0.00     0.033 H 
ATOM     17  H3  <0> d           2.843   3.299  -0.522  0.00  0.00     0.033 H 
ATOM     18  H4  <0> d           1.166   3.895  -0.503  0.00  0.00     0.033 H 
ENDBRANCH   1  15
TORSDOF 1
