REMARK  5 active torsions:
REMARK  status: ('A' for Active; 'I' for Inactive)
REMARK    1  A    between atoms: C1_1  and  C2_2 
REMARK    2  A    between atoms: C4_4  and  C9_10 
REMARK    3  A    between atoms: C6_6  and  C8_9 
REMARK    4  A    between atoms: C7_7  and  O1_8 
REMARK    5  A    between atoms: C9_10  and  O2_11 
ROOT
ATOM      1  C2  <0> d           1.175   1.782   0.000  0.00  0.00    -0.028 A 
ATOM      2  C3  <0> d          -0.013   1.076   0.008  0.00  0.00    -0.066 A 
ATOM      3  C4  <0> d          -1.220   1.750   0.017  0.00  0.00    -0.034 A 
ATOM      4  C5  <0> d          -1.242   3.133   0.030  0.00  0.00    -0.066 A 
ATOM      5  C6  <0> d          -0.057   3.844   0.022  0.00  0.00    -0.028 A 
ATOM      6  C7  <0> d           1.155   3.169   0.008  0.00  0.00     0.077 A 
ATOM      7  H4  <0> d           0.002  -0.004   0.002  0.00  0.00     0.085 H 
ATOM      8  H5  <0> d          -2.186   3.657   0.041  0.00  0.00     0.085 H 
ENDROOT
BRANCH   3   9
ATOM      9  C9  <0> d          -2.513   0.977   0.019  0.00  0.00     0.040 C 
ATOM     10  H10 <0> d          -3.284   1.558  -0.488  0.00  0.00     0.081 H 
ATOM     11  H11 <0> d          -2.371   0.030  -0.500  0.00  0.00     0.081 H 
BRANCH   9  12
ATOM     12  O2  <0> d          -2.916   0.726   1.367  0.00  0.00    -0.396 OA
ATOM     13  H12 <0> d          -3.743   0.231   1.445  0.00  0.00     0.209 HD
ENDBRANCH   9  12
ENDBRANCH   3   9
BRANCH   1  14
ATOM     14  C1  <0> d           2.490   1.046  -0.016  0.00  0.00    -0.049 C 
ATOM     15  H1  <0> d           2.797   0.875  -1.048  0.00  0.00     0.033 H 
ATOM     16  H2  <0> d           3.246   1.643   0.494  0.00  0.00     0.033 H 
ATOM     17  H3  <0> d           2.377   0.090   0.494  0.00  0.00     0.033 H 
ENDBRANCH   1  14
BRANCH   5  18
ATOM     18  C8  <0> d          -0.082   5.350   0.031  0.00  0.00    -0.049 C 
ATOM     19  H7  <0> d          -0.098   5.719  -0.995  0.00  0.00     0.033 H 
ATOM     20  H8  <0> d          -0.973   5.696   0.554  0.00  0.00     0.033 H 
ATOM     21  H9  <0> d           0.806   5.726   0.538  0.00  0.00     0.033 H 
ENDBRANCH   5  18
BRANCH   6  22
ATOM     22  O1  <0> d           2.322   3.866   0.001  0.00  0.00    -0.360 OA
ATOM     23  H6  <0> d           2.651   4.073  -0.885  0.00  0.00     0.217 HD
ENDBRANCH   6  22
TORSDOF 5
