REMARK  5 active torsions:
REMARK  status: ('A' for Active; 'I' for Inactive)
REMARK    1  A    between atoms: C1_1  and  C2_2 
REMARK    2  A    between atoms: C3_3  and  C6_9 
REMARK    3  A    between atoms: C4_4  and  C5_8 
REMARK    4  A    between atoms: C6_9  and  O2_11 
REMARK    5  A    between atoms: O2_11  and  C7_12 
ROOT
ATOM      1  C2  <0> d           0.002  -0.004   0.002  0.00  0.00     0.042 A 
ATOM      2  C3  <0> d          -0.017   1.377   0.010  0.00  0.00     0.089 A 
ATOM      3  C4  <0> d           1.328   1.812  -0.001  0.00  0.00     0.069 A 
ATOM      4  N1  <0> d           2.094   0.756  -0.014  0.00  0.00    -0.179 NA
ATOM      5  N2  <0> d           1.288  -0.388  -0.012  0.00  0.00    -0.281 N 
ATOM      6  H1  <0> d           1.615  -1.333  -0.020  0.00  0.00     0.189 HD
ENDROOT
BRANCH   2   7
ATOM      7  C6  <0> d          -1.214   2.235   0.020  0.00  0.00     0.297 C 
ATOM      8  O1  <0> d          -1.702   2.584   1.077  0.00  0.00    -0.259 OA
BRANCH   7   9
ATOM      9  O2  <0> d          -1.767   2.634  -1.142  0.00  0.00    -0.322 OA
BRANCH   9  10
ATOM     10  C7  <0> d          -2.945   3.479  -1.056  0.00  0.00     0.013 C 
ATOM     11  H8  <0> d          -3.734   2.949  -0.522  0.00  0.00     0.067 H 
ATOM     12  H9  <0> d          -2.696   4.395  -0.520  0.00  0.00     0.067 H 
ATOM     13  H10 <0> d          -3.288   3.727  -2.060  0.00  0.00     0.067 H 
ENDBRANCH   9  10
ENDBRANCH   7   9
ENDBRANCH   2   7
BRANCH   1  14
ATOM     14  C1  <0> d          -1.200  -0.913   0.009  0.00  0.00    -0.035 C 
ATOM     15  H2  <0> d          -1.500  -1.126  -1.017  0.00  0.00     0.035 H 
ATOM     16  H3  <0> d          -0.949  -1.844   0.515  0.00  0.00     0.035 H 
ATOM     17  H4  <0> d          -2.022  -0.424   0.534  0.00  0.00     0.035 H 
ENDBRANCH   1  14
BRANCH   3  18
ATOM     18  C5  <0> d           1.796   3.245   0.002  0.00  0.00    -0.033 C 
ATOM     19  H5  <0> d           1.918   3.585   1.030  0.00  0.00     0.035 H 
ATOM     20  H6  <0> d           2.749   3.317  -0.521  0.00  0.00     0.035 H 
ATOM     21  H7  <0> d           1.057   3.869  -0.502  0.00  0.00     0.035 H 
ENDBRANCH   3  18
TORSDOF 5
