REMARK  4 active torsions:
REMARK  status: ('A' for Active; 'I' for Inactive)
REMARK    1  A    between atoms: C1_1  and  S1_2 
REMARK    2  A    between atoms: S1_2  and  C2_3 
REMARK    3  A    between atoms: N3_7  and  C4_8 
REMARK    4  A    between atoms: C4_8  and  C5_9 
ROOT
ATOM      1  C2  <0> d           0.877  -0.427   1.472  0.00  0.00     0.191 A 
ATOM      2  N1  <0> d           1.375   0.411   2.352  0.00  0.00    -0.123 NA
ATOM      3  N2  <0> d           1.948  -0.241   3.300  0.00  0.00    -0.143 NA
ATOM      4  C3  <0> d           1.850  -1.523   3.084  0.00  0.00     0.090 A 
ATOM      5  N3  <0> d           1.159  -1.687   1.915  0.00  0.00    -0.314 N 
ATOM      6  H4  <0> d           2.239  -2.309   3.713  0.00  0.00     0.146 H 
ENDROOT
BRANCH   5   7
ATOM      7  C4  <0> d           0.800  -2.952   1.270  0.00  0.00     0.017 C 
ATOM      8  H5  <0> d           0.751  -3.742   2.020  0.00  0.00     0.071 H 
ATOM      9  H6  <0> d          -0.172  -2.851   0.786  0.00  0.00     0.071 H 
BRANCH   7  10
ATOM     10  C5  <0> d           1.840  -3.303   0.238  0.00  0.00    -0.095 C 
ATOM     11  C6  <0> d           2.447  -4.464   0.287  0.00  0.00    -0.123 C 
ATOM     12  H8  <0> d           2.201  -5.169   1.067  0.00  0.00     0.066 H 
ATOM     13  H9  <0> d           3.192  -4.715  -0.452  0.00  0.00     0.066 H 
ATOM     14  H7  <0> d           2.086  -2.598  -0.542  0.00  0.00     0.078 H 
ENDBRANCH   7  10
ENDBRANCH   5   7
BRANCH   1  15
ATOM     15  S1  <0> d           0.002  -0.004   0.002  0.00  0.00    -0.095 SA
BRANCH  15  16
ATOM     16  C1  <0> d          -0.022   1.810   0.012  0.00  0.00    -0.027 C 
ATOM     17  H1  <0> d           1.000   2.187   0.004  0.00  0.00     0.042 H 
ATOM     18  H2  <0> d          -0.550   2.171  -0.871  0.00  0.00     0.042 H 
ATOM     19  H3  <0> d          -0.533   2.161   0.909  0.00  0.00     0.042 H 
ENDBRANCH  15  16
ENDBRANCH   1  15
TORSDOF 4
