REMARK  2 active torsions:
REMARK  status: ('A' for Active; 'I' for Inactive)
REMARK    1  A    between atoms: C1_1  and  C2_2 
REMARK    2  A    between atoms: C2_2  and  C3_4 
ROOT
ATOM      1  C3  <0> d          -1.265  -0.759   0.010  0.00  0.00     0.030 A 
ATOM      2  C4  <0> d          -1.275  -2.163   0.009  0.00  0.00    -0.050 A 
ATOM      3  C5  <0> d          -2.504  -2.800   0.016  0.00  0.00     0.025 A 
ATOM      4  N1  <0> d          -3.616  -2.089   0.025  0.00  0.00    -0.163 NA
ATOM      5  N2  <0> d          -3.615  -0.806   0.026  0.00  0.00    -0.162 NA
ATOM      6  C6  <0> d          -2.501  -0.101   0.025  0.00  0.00     0.037 A 
ATOM      7  H4  <0> d          -0.354  -2.727   0.001  0.00  0.00     0.087 H 
ATOM      8  H5  <0> d          -2.553  -3.879   0.015  0.00  0.00     0.117 H 
ATOM      9  H6  <0> d          -2.541   0.978   0.032  0.00  0.00     0.118 H 
ENDROOT
BRANCH   1  10
ATOM     10  C2  <0> d           0.002  -0.004   0.002  0.00  0.00     0.157 C 
ATOM     11  O1  <0> d           1.060  -0.596  -0.011  0.00  0.00    -0.293 OA
BRANCH  10  12
ATOM     12  C1  <0> d          -0.018   1.503   0.010  0.00  0.00    -0.017 C 
ATOM     13  H1  <0> d           1.004   1.880   0.003  0.00  0.00     0.038 H 
ATOM     14  H2  <0> d          -0.545   1.864  -0.873  0.00  0.00     0.038 H 
ATOM     15  H3  <0> d          -0.529   1.854   0.907  0.00  0.00     0.038 H 
ENDBRANCH  10  12
ENDBRANCH   1  10
TORSDOF 2
