REMARK  1 active torsions:
REMARK  status: ('A' for Active; 'I' for Inactive)
REMARK    1  A    between atoms: C5_11  and  N5_13 
ROOT
ATOM      1  C1  <0> d          -0.016   1.321   0.009  0.00  0.00     0.051 A 
ATOM      2  C2  <0> d           1.188   2.005   0.002  0.00  0.00     0.101 A 
ATOM      3  C3  <0> d           2.380   1.270  -0.014  0.00  0.00     0.179 A 
ATOM      4  N1  <0> d           3.414   2.187  -0.018  0.00  0.00    -0.290 N 
ATOM      5  H1  <0> d           4.360   1.973  -0.029  0.00  0.00     0.172 HD
ATOM      6  C4  <0> d           2.890   3.427  -0.006  0.00  0.00     0.326 A 
ATOM      7  O1  <0> d           3.534   4.460  -0.007  0.00  0.00    -0.247 OA
ATOM      8  N2  <0> d           1.545   3.352   0.006  0.00  0.00    -0.304 N 
ATOM      9  H2  <0> d           0.932   4.104   0.015  0.00  0.00     0.171 HD
ATOM     10  N3  <0> d           2.319  -0.054  -0.021  0.00  0.00    -0.043 NA
ATOM     11  C5  <0> d           1.147  -0.671  -0.014  0.00  0.00     0.722 A 
ATOM     12  N4  <0> d           0.002  -0.004   0.002  0.00  0.00    -0.073 NA
ATOM     13  H3  <0> d          -0.953   1.858   0.026  0.00  0.00     0.119 H 
ENDROOT
BRANCH  11  14
ATOM     14  N5  <0> d           1.117  -2.057  -0.022  0.00  0.00    -0.231 N 
ATOM     15  H4  <0> d           1.946  -2.560  -0.033  0.00  0.00     0.174 HD
ATOM     16  H5  <0> d           0.266  -2.524  -0.017  0.00  0.00     0.174 HD
ENDBRANCH  11  14
TORSDOF 1
