REMARK  2 active torsions:
REMARK  status: ('A' for Active; 'I' for Inactive)
REMARK    1  A    between atoms: C2_2  and  N4_9 
REMARK    2  A    between atoms: C3_4  and  N3_8 
ROOT
ATOM      1  C1  <0> d           2.324   1.344  -0.013  0.00  0.00     0.018 A 
ATOM      2  C2  <0> d           2.308  -0.051  -0.020  0.00  0.00     0.144 A 
ATOM      3  N1  <0> d           1.139  -0.684  -0.012  0.00  0.00    -0.046 NA
ATOM      4  C3  <0> d           0.002  -0.004   0.002  0.00  0.00     0.724 A 
ATOM      5  N2  <0> d          -0.016   1.320   0.009  0.00  0.00    -0.034 NA
ATOM      6  C4  <0> d           1.114   2.017   0.002  0.00  0.00     0.231 A 
ATOM      7  F1  <0> d           1.084   3.368   0.009  0.00  0.00    -0.183 F 
ATOM      8  H1  <0> d           3.258   1.886  -0.019  0.00  0.00     0.096 H 
ENDROOT
BRANCH   2   9
ATOM      9  N4  <0> d           3.494  -0.767  -0.034  0.00  0.00    -0.383 N 
ATOM     10  H4  <0> d           3.476  -1.737  -0.038  0.00  0.00     0.157 HD
ATOM     11  H5  <0> d           4.344  -0.298  -0.040  0.00  0.00     0.157 HD
ENDBRANCH   2   9
BRANCH   4  12
ATOM     12  N3  <0> d          -1.197  -0.695   0.010  0.00  0.00    -0.231 N 
ATOM     13  H2  <0> d          -2.037  -0.209   0.020  0.00  0.00     0.174 HD
ATOM     14  H3  <0> d          -1.198  -1.665   0.005  0.00  0.00     0.174 HD
ENDBRANCH   4  12
TORSDOF 2
