REMARK  2 active torsions:
REMARK  status: ('A' for Active; 'I' for Inactive)
REMARK    1  A    between atoms: C1_1  and  C2_2 
REMARK       I    between atoms: C2_2  and  N1_4 
REMARK    2  A    between atoms: N1_4  and  C3_5 
ROOT
ATOM      1  C3  <0> d           1.120   3.657   0.011  0.00  0.00     0.012 C 
ATOM      2  C4  <0> d           0.899   4.162  -1.430  0.00  0.00    -0.046 C 
ATOM      3  C5  <0> d           0.377   5.572  -1.368  0.00  0.00    -0.063 C 
ATOM      4  C6  <0> d           1.500   6.621  -1.478  0.00  0.00    -0.065 C 
ATOM      5  C7  <0> d           2.750   6.247  -0.658  0.00  0.00    -0.065 C 
ATOM      6  C8  <0> d           2.405   5.681   0.692  0.00  0.00    -0.063 C 
ATOM      7  C9  <0> d           2.367   4.143   0.584  0.00  0.00    -0.046 C 
ATOM      8  H5  <0> d           0.291   3.995   0.633  0.00  0.00     0.072 H 
ATOM      9  H6  <0> d           1.844   4.145  -1.972  0.00  0.00     0.035 H 
ATOM     10  H7  <0> d           0.172   3.524  -1.934  0.00  0.00     0.035 H 
ATOM     11  H8  <0> d          -0.146   5.713  -0.422  0.00  0.00     0.033 H 
ATOM     12  H9  <0> d          -0.328   5.723  -2.185  0.00  0.00     0.033 H 
ATOM     13  H10 <0> d           1.121   7.580  -1.122  0.00  0.00     0.033 H 
ATOM     14  H11 <0> d           1.784   6.724  -2.525  0.00  0.00     0.033 H 
ATOM     15  H12 <0> d           3.362   7.138  -0.521  0.00  0.00     0.033 H 
ATOM     16  H13 <0> d           3.325   5.507  -1.214  0.00  0.00     0.033 H 
ATOM     17  H14 <0> d           1.428   6.050   1.005  0.00  0.00     0.033 H 
ATOM     18  H15 <0> d           3.159   5.978   1.421  0.00  0.00     0.033 H 
ATOM     19  H16 <0> d           2.488   3.715   1.579  0.00  0.00     0.035 H 
ATOM     20  H17 <0> d           3.195   3.812  -0.043  0.00  0.00     0.035 H 
ENDROOT
BRANCH   1  21
ATOM     21  N1  <0> d           1.139   2.192   0.003  0.00  0.00    -0.357 N 
ATOM     22  C2  <0> d          -0.018   1.503   0.010  0.00  0.00     0.213 C 
ATOM     23  O1  <0> d          -1.077   2.095   0.018  0.00  0.00    -0.274 OA
ATOM     24  H4  <0> d           1.986   1.719  -0.008  0.00  0.00     0.162 HD
BRANCH  22  25
ATOM     25  C1  <0> d           0.002  -0.004   0.002  0.00  0.00    -0.003 C 
ATOM     26  H1  <0> d           1.034  -0.353  -0.010  0.00  0.00     0.040 H 
ATOM     27  H2  <0> d          -0.498  -0.379   0.895  0.00  0.00     0.040 H 
ATOM     28  H3  <0> d          -0.515  -0.370  -0.885  0.00  0.00     0.040 H 
ENDBRANCH  22  25
ENDBRANCH   1  21
TORSDOF 2
