REMARK  4 active torsions:
REMARK  status: ('A' for Active; 'I' for Inactive)
REMARK    1  A    between atoms: C1_1  and  C2_2 
REMARK    2  A    between atoms: C3_3  and  C6_9 
REMARK    3  A    between atoms: C4_4  and  N3_8 
REMARK    4  A    between atoms: C6_9  and  O1_10 
ROOT
ATOM      1  C2  <0> d           1.093   3.761   1.198  0.00  0.00     0.044 A 
ATOM      2  C3  <0> d           1.147   3.062   0.008  0.00  0.00     0.035 A 
ATOM      3  C4  <0> d           1.075   3.782  -1.187  0.00  0.00     0.133 A 
ATOM      4  N1  <0> d           0.947   5.104  -1.135  0.00  0.00    -0.224 NA
ATOM      5  C5  <0> d           0.899   5.730   0.024  0.00  0.00     0.089 A 
ATOM      6  N2  <0> d           0.970   5.080   1.168  0.00  0.00    -0.246 NA
ATOM      7  H4  <0> d           0.799   6.805   0.036  0.00  0.00     0.146 H 
ENDROOT
BRANCH   2   8
ATOM      8  C6  <0> d           1.286   1.562  -0.002  0.00  0.00     0.046 C 
ATOM      9  H7  <0> d           1.828   1.250  -0.907  0.00  0.00     0.081 H 
ATOM     10  H8  <0> d           1.845   1.240   0.889  0.00  0.00     0.081 H 
BRANCH   8  11
ATOM     11  O1  <0> d          -0.011   0.963   0.007  0.00  0.00    -0.396 OA
ATOM     12  H9  <0> d          -0.111  -0.133   0.002  0.00  0.00     0.209 HD
ENDBRANCH   8  11
ENDBRANCH   2   8
BRANCH   1  13
ATOM     13  C1  <0> d           1.173   3.032   2.514  0.00  0.00    -0.035 C 
ATOM     14  H1  <0> d           1.272   1.952   2.330  0.00  0.00     0.035 H 
ATOM     15  H2  <0> d           0.259   3.222   3.095  0.00  0.00     0.035 H 
ATOM     16  H3  <0> d           2.047   3.389   3.079  0.00  0.00     0.035 H 
ENDBRANCH   1  13
BRANCH   3  17
ATOM     17  N3  <0> d           1.131   3.128  -2.407  0.00  0.00    -0.383 N 
ATOM     18  H5  <0> d           1.074   3.703  -3.343  0.00  0.00     0.157 HD
ATOM     19  H6  <0> d           1.232   2.033  -2.440  0.00  0.00     0.157 HD
ENDBRANCH   3  17
TORSDOF 4
