REMARK  3 active torsions:
REMARK  status: ('A' for Active; 'I' for Inactive)
REMARK    1  A    between atoms: C1_1  and  C2_2 
REMARK    2  A    between atoms: C2_2  and  C3_3 
REMARK    3  A    between atoms: C3_3  and  N1_4 
ROOT
ATOM      1  C3  <0> d          -0.729   1.579   1.267  0.00  0.00    -0.000 C 
ATOM      2  H6  <0> d          -0.744   2.669   1.273  0.00  0.00     0.064 H 
ATOM      3  H7  <0> d          -1.751   1.202   1.275  0.00  0.00     0.064 H 
ENDROOT
BRANCH   1   4
ATOM      4  C2  <0> d          -0.013   1.086   0.008  0.00  0.00    -0.053 C 
ATOM      5  H4  <0> d           0.002  -0.004   0.002  0.00  0.00     0.034 H 
ATOM      6  H5  <0> d           1.010   1.463   0.000  0.00  0.00     0.034 H 
BRANCH   4   7
ATOM      7  C1  <0> d          -0.753   1.593  -1.232  0.00  0.00    -0.075 C 
ATOM      8  H1  <0> d          -0.767   2.683  -1.226  0.00  0.00     0.027 H 
ATOM      9  H2  <0> d          -0.242   1.241  -2.128  0.00  0.00     0.027 H 
ATOM     10  H3  <0> d          -1.775   1.215  -1.224  0.00  0.00     0.027 H 
ENDBRANCH   4   7
ENDBRANCH   1   4
BRANCH   1  11
ATOM     11  N1  <0> d          -0.020   1.094   2.454  0.00  0.00    -0.350 N 
ATOM     12  C6  <0> d           0.982   1.725   3.102  0.00  0.00     0.065 A 
ATOM     13  N2  <0> d           1.359   0.986   4.110  0.00  0.00    -0.255 NA
ATOM     14  H10 <0> d           1.403   2.682   2.831  0.00  0.00     0.143 H 
ATOM     15  C5  <0> d           0.618  -0.132   4.140  0.00  0.00     0.018 A 
ATOM     16  C4  <0> d          -0.255  -0.081   3.116  0.00  0.00    -0.003 A 
ATOM     17  H9  <0> d           0.703  -0.930   4.862  0.00  0.00     0.117 H 
ATOM     18  H8  <0> d          -0.996  -0.825   2.864  0.00  0.00     0.113 H 
ENDBRANCH   1  11
TORSDOF 3
