REMARK  4 active torsions:
REMARK  status: ('A' for Active; 'I' for Inactive)
REMARK    1  A    between atoms: C1_1  and  N1_2 
REMARK    2  A    between atoms: N1_2  and  C2_3 
REMARK    3  A    between atoms: C6_7  and  S1_9 
REMARK    4  A    between atoms: S1_9  and  C8_10 
ROOT
ATOM      1  C2  <0> d          -0.049   3.848   0.023  0.00  0.00     0.028 A 
ATOM      2  C3  <0> d           1.161   3.163   0.008  0.00  0.00    -0.058 A 
ATOM      3  C4  <0> d           1.175   1.782   0.000  0.00  0.00    -0.080 A 
ATOM      4  C5  <0> d          -0.013   1.076   0.008  0.00  0.00    -0.067 A 
ATOM      5  C6  <0> d          -1.226   1.754   0.017  0.00  0.00     0.002 A 
ATOM      6  C7  <0> d          -1.244   3.142   0.031  0.00  0.00    -0.041 A 
ATOM      7  H5  <0> d           2.091   3.712   0.002  0.00  0.00     0.086 H 
ATOM      8  H6  <0> d           2.116   1.253  -0.012  0.00  0.00     0.083 H 
ATOM      9  H7  <0> d           0.002  -0.004   0.002  0.00  0.00     0.085 H 
ATOM     10  H8  <0> d          -2.185   3.671   0.043  0.00  0.00     0.089 H 
ENDROOT
BRANCH   1  11
ATOM     11  N1  <0> d          -0.062   5.245   0.031  0.00  0.00    -0.394 N 
ATOM     12  H4  <0> d          -1.020   5.785   0.043  0.00  0.00     0.159 HD
BRANCH  11  13
ATOM     13  C1  <0> d           1.199   5.989   0.024  0.00  0.00    -0.021 C 
ATOM     14  H1  <0> d           0.988   7.068   0.032  0.00  0.00     0.056 H 
ATOM     15  H2  <0> d           1.770   5.734  -0.881  0.00  0.00     0.056 H 
ATOM     16  H3  <0> d           1.787   5.723   0.915  0.00  0.00     0.056 H 
ENDBRANCH  11  13
ENDBRANCH   1  11
BRANCH   5  17
ATOM     17  S1  <0> d          -2.740   0.852   0.019  0.00  0.00    -0.134 SA
BRANCH  17  18
ATOM     18  C8  <0> d          -2.217  -0.884   0.007  0.00  0.00    -0.030 C 
ATOM     19  H9  <0> d          -3.104  -1.535   0.007  0.00  0.00     0.042 H 
ATOM     20  H10 <0> d          -1.610  -1.091   0.901  0.00  0.00     0.042 H 
ATOM     21  H11 <0> d          -1.619  -1.081  -0.895  0.00  0.00     0.042 H 
ENDBRANCH  17  18
ENDBRANCH   5  17
TORSDOF 4
