REMARK  4 active torsions:
REMARK  status: ('A' for Active; 'I' for Inactive)
REMARK    1  A    between atoms: C1_1  and  C2_2 
REMARK    2  A    between atoms: C2_2  and  O1_3 
REMARK    3  A    between atoms: O1_3  and  C3_4 
REMARK    4  A    between atoms: C3_4  and  C4_6 
ROOT
ATOM      1  C3  <0> d          -2.168   1.216  -1.433  0.00  0.00     0.265 C 
ATOM      2  O2  <0> d          -2.064   0.013  -1.381  0.00  0.00    -0.265 OA
ENDROOT
BRANCH   1   3
ATOM      3  O1  <0> d          -3.187   1.773  -2.106  0.00  0.00    -0.321 OA
BRANCH   3   4
ATOM      4  C2  <0> d          -4.125   0.869  -2.748  0.00  0.00     0.025 C 
ATOM      5  H6  <0> d          -3.597   0.252  -3.474  0.00  0.00     0.074 H 
ATOM      6  H7  <0> d          -4.587   0.230  -1.995  0.00  0.00     0.074 H 
BRANCH   4   7
ATOM      7  C1  <0> d          -5.209   1.681  -3.461  0.00  0.00    -0.056 C 
ATOM      8  H3  <0> d          -5.913   1.003  -3.942  0.00  0.00     0.030 H 
ATOM      9  H4  <0> d          -5.737   2.299  -2.734  0.00  0.00     0.030 H 
ATOM     10  H5  <0> d          -4.747   2.321  -4.213  0.00  0.00     0.030 H 
ENDBRANCH   4   7
ENDBRANCH   3   4
ENDBRANCH   1   3
BRANCH   1  11
ATOM     11  C4  <0> d          -1.154   2.090  -0.741  0.00  0.00     0.062 A 
ATOM     12  H1  <0> d          -0.926   3.031  -1.242  0.00  0.00     0.060 H 
ATOM     13  C6  <0> d          -0.017   1.395   0.010  0.00  0.00     0.092 A 
ATOM     14  C5  <0> d          -1.140   2.082   0.789  0.00  0.00    -0.021 A 
ATOM     15  H2  <0> d           0.960   1.878   0.003  0.00  0.00     0.092 H 
ATOM     16  F1  <0> d           0.002  -0.004   0.002  0.00  0.00    -0.248 F 
ATOM     17  H8  <0> d          -1.864   1.444   1.297  0.00  0.00     0.038 H 
ATOM     18  H9  <0> d          -0.902   3.017   1.296  0.00  0.00     0.038 H 
ENDBRANCH   1  11
TORSDOF 4
