REMARK  4 active torsions:
REMARK  status: ('A' for Active; 'I' for Inactive)
REMARK    1  A    between atoms: C1_1  and  C2_2 
REMARK    2  A    between atoms: C2_2  and  C3_3 
REMARK    3  A    between atoms: C4_5  and  C5_8 
REMARK    4  A    between atoms: C5_8  and  O2_9 
ROOT
ATOM      1  C3  <0> d          -0.018   1.503   0.010  0.00  0.00     0.172 A 
ATOM      2  N1  <0> d          -1.082   2.269   0.019  0.00  0.00    -0.207 NA
ATOM      3  C4  <0> d          -0.619   3.532   0.026  0.00  0.00     0.179 A 
ATOM      4  N2  <0> d           0.679   3.470   0.013  0.00  0.00    -0.109 NA
ATOM      5  O1  <0> d           1.044   2.313   0.004  0.00  0.00    -0.196 OA
ENDROOT
BRANCH   1   6
ATOM      6  C2  <0> d           0.002  -0.004   0.002  0.00  0.00    -0.005 C 
ATOM      7  H4  <0> d           0.902  -0.358   0.506  0.00  0.00     0.044 H 
ATOM      8  H5  <0> d          -0.878  -0.382   0.522  0.00  0.00     0.044 H 
BRANCH   6   9
ATOM      9  C1  <0> d          -0.004  -0.506  -1.443  0.00  0.00    -0.069 C 
ATOM     10  H1  <0> d           0.011  -1.596  -1.449  0.00  0.00     0.028 H 
ATOM     11  H2  <0> d          -0.904  -0.152  -1.947  0.00  0.00     0.028 H 
ATOM     12  H3  <0> d           0.876  -0.128  -1.963  0.00  0.00     0.028 H 
ENDBRANCH   6   9
ENDBRANCH   1   6
BRANCH   3  13
ATOM     13  C5  <0> d          -1.452   4.788   0.039  0.00  0.00     0.075 C 
ATOM     14  H6  <0> d          -2.390   4.596   0.560  0.00  0.00     0.086 H 
ATOM     15  H7  <0> d          -0.906   5.580   0.552  0.00  0.00     0.086 H 
BRANCH  13  16
ATOM     16  O2  <0> d          -1.727   5.191  -1.304  0.00  0.00    -0.393 OA
ATOM     17  H8  <0> d          -2.260   5.995  -1.371  0.00  0.00     0.209 HD
ENDBRANCH  13  16
ENDBRANCH   3  13
TORSDOF 4
