REMARK  1 active torsions:
REMARK  status: ('A' for Active; 'I' for Inactive)
REMARK    1  A    between atoms: C1_1  and  C2_2 
ROOT
ATOM      1  C2  <0> d          -3.418   2.511  -0.371  0.00  0.00    -0.052 C 
ATOM      2  H1  <0> d          -3.263   2.738  -1.436  0.00  0.00     0.040 H 
ATOM      3  C3  <0> d          -3.026   3.728   0.471  0.00  0.00    -0.058 C 
ATOM      4  C4  <0> d          -1.637   4.219   0.046  0.00  0.00    -0.037 C 
ATOM      5  C5  <0> d          -0.700   3.037   0.027  0.00  0.00    -0.015 A 
ATOM      6  C6  <0> d           0.693   3.050   0.013  0.00  0.00     0.029 A 
ATOM      7  N1  <0> d           1.111   1.808   0.001  0.00  0.00    -0.186 NA
ATOM      8  N2  <0> d          -0.011   0.966   0.007  0.00  0.00    -0.282 N 
ATOM      9  H2  <0> d           0.120  -0.126   0.005  0.00  0.00     0.189 HD
ATOM     10  C7  <0> d          -1.107   1.742   0.016  0.00  0.00     0.036 A 
ATOM     11  C8  <0> d          -2.552   1.310   0.029  0.00  0.00    -0.022 C 
ATOM     12  H6  <0> d          -3.761   4.531   0.319  0.00  0.00     0.034 H 
ATOM     13  H7  <0> d          -3.006   3.446   1.535  0.00  0.00     0.034 H 
ATOM     14  H8  <0> d          -1.698   4.667  -0.956  0.00  0.00     0.040 H 
ATOM     15  H9  <0> d          -1.279   4.972   0.764  0.00  0.00     0.040 H 
ATOM     16  H10 <0> d           1.319   3.930   0.012  0.00  0.00     0.118 H 
ATOM     17  H11 <0> d          -2.836   0.973   1.037  0.00  0.00     0.042 H 
ATOM     18  H12 <0> d          -2.707   0.491  -0.688  0.00  0.00     0.042 H 
ENDROOT
BRANCH   1  19
ATOM     19  C1  <0> d          -4.892   2.179  -0.132  0.00  0.00    -0.073 C 
ATOM     20  H3  <0> d          -5.513   3.040  -0.419  0.00  0.00     0.028 H 
ATOM     21  H4  <0> d          -5.049   1.952   0.933  0.00  0.00     0.028 H 
ATOM     22  H5  <0> d          -5.174   1.305  -0.738  0.00  0.00     0.028 H 
ENDBRANCH   1  19
TORSDOF 1
