REMARK  2 active torsions:
REMARK  status: ('A' for Active; 'I' for Inactive)
REMARK    1  A    between atoms: C3_3  and  O2_10 
REMARK    2  A    between atoms: C4_4  and  C7_8 
ROOT
ATOM      1  C1  <0> d          -1.218   1.749   0.017  0.00  0.00    -0.043 A 
ATOM      2  C2  <0> d          -0.013   1.076   0.008  0.00  0.00    -0.047 A 
ATOM      3  C3  <0> d           1.179   1.784   0.000  0.00  0.00     0.082 A 
ATOM      4  C4  <0> d           1.155   3.186   0.008  0.00  0.00     0.076 A 
ATOM      5  C5  <0> d          -0.071   3.856   0.022  0.00  0.00    -0.026 A 
ATOM      6  C6  <0> d          -1.248   3.135   0.030  0.00  0.00     0.117 A 
ATOM      7  F1  <0> d          -2.433   3.783   0.044  0.00  0.00    -0.206 F 
ATOM      8  H1  <0> d          -2.144   1.192   0.019  0.00  0.00     0.088 H 
ATOM      9  H2  <0> d           0.002  -0.004   0.002  0.00  0.00     0.087 H 
ATOM     10  H3  <0> d          -0.097   4.936   0.028  0.00  0.00     0.089 H 
ENDROOT
BRANCH   4  11
ATOM     11  C7  <0> d           2.417   3.949   0.000  0.00  0.00     0.212 C 
ATOM     12  O1  <0> d           3.481   3.363  -0.012  0.00  0.00    -0.644 OA
ATOM     13  O3  <0> d           2.389   5.296   0.007  0.00  0.00    -0.644 OA
ENDBRANCH   4  11
BRANCH   3  14
ATOM     14  O2  <0> d           2.364   1.123  -0.015  0.00  0.00    -0.360 OA
ATOM     15  H4  <0> d           2.699   0.936  -0.902  0.00  0.00     0.217 HD
ENDBRANCH   3  14
TORSDOF 2
