REMARK  3 active torsions:
REMARK  status: ('A' for Active; 'I' for Inactive)
REMARK    1  A    between atoms: C1_1  and  C2_2 
REMARK    2  A    between atoms: C2_2  and  O1_3 
REMARK    3  A    between atoms: O1_3  and  C3_4 
ROOT
ATOM      1  C3  <0> d          -1.398   3.574   2.414  0.00  0.00     0.136 C 
ATOM      2  H1  <0> d          -0.944   3.187   3.327  0.00  0.00     0.129 H 
ATOM      3  C4  <0> d          -1.266   5.103   2.379  0.00  0.00    -0.016 C 
ATOM      4  C5  <0> d          -1.927   5.669   3.641  0.00  0.00    -0.044 C 
ATOM      5  C6  <0> d          -3.271   5.020   3.836  0.00  0.00    -0.082 C 
ATOM      6  C7  <0> d          -3.606   3.907   3.238  0.00  0.00     0.012 C 
ATOM      7  O2  <0> d          -2.789   3.243   2.391  0.00  0.00    -0.333 OA
ATOM      8  H7  <0> d          -0.212   5.381   2.360  0.00  0.00     0.040 H 
ATOM      9  H8  <0> d          -1.766   5.495   1.494  0.00  0.00     0.040 H 
ATOM     10  H9  <0> d          -1.296   5.464   4.505  0.00  0.00     0.039 H 
ATOM     11  H10 <0> d          -2.057   6.746   3.532  0.00  0.00     0.039 H 
ATOM     12  H11 <0> d          -3.985   5.492   4.495  0.00  0.00     0.079 H 
ATOM     13  H12 <0> d          -4.586   3.497   3.432  0.00  0.00     0.122 H 
ENDROOT
BRANCH   1  14
ATOM     14  O1  <0> d          -0.748   3.008   1.275  0.00  0.00    -0.361 OA
BRANCH  14  15
ATOM     15  C2  <0> d          -0.729   1.579   1.267  0.00  0.00     0.019 C 
ATOM     16  H5  <0> d          -1.751   1.202   1.275  0.00  0.00     0.073 H 
ATOM     17  H6  <0> d          -0.202   1.218   2.150  0.00  0.00     0.073 H 
BRANCH  15  18
ATOM     18  C1  <0> d          -0.013   1.086   0.008  0.00  0.00    -0.056 C 
ATOM     19  H2  <0> d           0.002  -0.004   0.002  0.00  0.00     0.030 H 
ATOM     20  H3  <0> d           1.010   1.463   0.000  0.00  0.00     0.030 H 
ATOM     21  H4  <0> d          -0.540   1.447  -0.875  0.00  0.00     0.030 H 
ENDBRANCH  15  18
ENDBRANCH  14  15
ENDBRANCH   1  14
TORSDOF 3
