REMARK  2 active torsions:
REMARK  status: ('A' for Active; 'I' for Inactive)
REMARK    1  A    between atoms: C1_1  and  N1_2 
REMARK    2  A    between atoms: N1_2  and  C2_3 
ROOT
ATOM      1  C2  <0> d          -1.193  -0.716   0.010  0.00  0.00     0.122 A 
ATOM      2  C3  <0> d          -2.403  -0.030   0.031  0.00  0.00    -0.037 A 
ATOM      3  C4  <0> d          -3.584  -0.750   0.032  0.00  0.00    -0.057 A 
ATOM      4  C5  <0> d          -3.515  -2.138   0.024  0.00  0.00     0.051 A 
ATOM      5  C6  <0> d          -2.278  -2.753   0.009  0.00  0.00     0.025 A 
ATOM      6  N2  <0> d          -1.168  -2.039   0.002  0.00  0.00    -0.242 NA
ATOM      7 Cl1  <0> d          -4.967  -3.089   0.032  0.00  0.00    -0.083 Cl
ATOM      8  H5  <0> d          -2.420   1.050   0.041  0.00  0.00     0.089 H 
ATOM      9  H6  <0> d          -4.539  -0.245   0.044  0.00  0.00     0.086 H 
ATOM     10  H7  <0> d          -2.219  -3.831   0.002  0.00  0.00     0.117 H 
ENDROOT
BRANCH   1  11
ATOM     11  N1  <0> d           0.002  -0.004   0.002  0.00  0.00    -0.379 N 
ATOM     12  H4  <0> d           0.962  -0.541  -0.010  0.00  0.00     0.160 HD
BRANCH  11  13
ATOM     13  C1  <0> d          -0.018   1.461   0.010  0.00  0.00    -0.020 C 
ATOM     14  H1  <0> d           1.014   1.841   0.002  0.00  0.00     0.056 H 
ATOM     15  H2  <0> d          -0.533   1.815   0.915  0.00  0.00     0.056 H 
ATOM     16  H3  <0> d          -0.550   1.825  -0.881  0.00  0.00     0.056 H 
ENDBRANCH  11  13
ENDBRANCH   1  11
TORSDOF 2
