REMARK  1 active torsions:
REMARK  status: ('A' for Active; 'I' for Inactive)
REMARK    1  A    between atoms: C6_6  and  C7_7 
REMARK       I    between atoms: C7_7  and  N1_9 
ROOT
ATOM      1  C1  <0> d          -1.326   3.329   0.032  0.00  0.00    -0.066 A 
ATOM      2  C2  <0> d          -2.533   3.996   0.036  0.00  0.00    -0.061 A 
ATOM      3  C3  <0> d          -3.721   3.285   0.038  0.00  0.00     0.034 A 
ATOM      4  C4  <0> d          -3.706   1.900   0.030  0.00  0.00    -0.061 A 
ATOM      5  C5  <0> d          -2.505   1.221   0.021  0.00  0.00    -0.066 A 
ATOM      6  C6  <0> d          -1.304   1.933   0.019  0.00  0.00     0.031 A 
ATOM      7 Cl1  <0> d          -5.236   4.132   0.049  0.00  0.00    -0.084 Cl
ATOM      8  H1  <0> d          -0.400   3.885   0.035  0.00  0.00     0.085 H 
ATOM      9  H2  <0> d          -2.551   5.076   0.042  0.00  0.00     0.086 H 
ATOM     10  H3  <0> d          -4.635   1.350   0.032  0.00  0.00     0.086 H 
ATOM     11  H4  <0> d          -2.494   0.141   0.014  0.00  0.00     0.085 H 
ENDROOT
BRANCH   6  12
ATOM     12  C7  <0> d          -0.014   1.211   0.009  0.00  0.00     0.249 C 
ATOM     13  O1  <0> d           0.002  -0.004   0.002  0.00  0.00    -0.268 OA
ATOM     14  N1  <0> d           1.143   1.901   0.001  0.00  0.00    -0.366 N 
ATOM     15  H5  <0> d           1.990   1.428  -0.009  0.00  0.00     0.159 HD
ATOM     16  H6  <0> d           1.130   2.871   0.007  0.00  0.00     0.159 HD
ENDBRANCH   6  12
TORSDOF 1
