REMARK  3 active torsions:
REMARK  status: ('A' for Active; 'I' for Inactive)
REMARK    1  A    between atoms: C1_1  and  C2_2 
REMARK    2  A    between atoms: C3_3  and  N2_8 
REMARK    3  A    between atoms: C4_4  and  C5_7 
ROOT
ATOM      1  C2  <0> d          -1.629   2.762   2.840  0.00  0.00     0.087 A 
ATOM      2  C3  <0> d          -0.930   2.864   1.610  0.00  0.00     0.084 A 
ATOM      3  C4  <0> d          -0.718   1.572   1.248  0.00  0.00     0.103 A 
ATOM      4  O1  <0> d          -1.257   0.814   2.217  0.00  0.00    -0.216 OA
ATOM      5  N1  <0> d          -1.755   1.490   3.087  0.00  0.00    -0.131 NA
ENDROOT
BRANCH   1   6
ATOM      6  C1  <0> d          -2.124   3.901   3.694  0.00  0.00    -0.031 C 
ATOM      7  H1  <0> d          -1.348   4.185   4.405  0.00  0.00     0.035 H 
ATOM      8  H2  <0> d          -2.365   4.753   3.059  0.00  0.00     0.035 H 
ATOM      9  H3  <0> d          -3.016   3.587   4.236  0.00  0.00     0.035 H 
ENDBRANCH   1   6
BRANCH   2  10
ATOM     10  N2  <0> d          -0.547   4.031   0.925  0.00  0.00    -0.395 N 
ATOM     11  H7  <0> d          -0.069   3.964   0.083  0.00  0.00     0.156 HD
ATOM     12  H8  <0> d          -0.760   4.902   1.294  0.00  0.00     0.156 HD
ENDBRANCH   2  10
BRANCH   3  13
ATOM     13  C5  <0> d          -0.013   1.086   0.008  0.00  0.00    -0.027 C 
ATOM     14  H4  <0> d           0.002  -0.004   0.002  0.00  0.00     0.036 H 
ATOM     15  H5  <0> d           1.010   1.463   0.000  0.00  0.00     0.036 H 
ATOM     16  H6  <0> d          -0.540   1.447  -0.875  0.00  0.00     0.036 H 
ENDBRANCH   3  13
TORSDOF 3
