REMARK  1 active torsions:
REMARK  status: ('A' for Active; 'I' for Inactive)
REMARK    1  A    between atoms: C5_8  and  N2_9 
ROOT
ATOM      1  C1  <0> d          -0.017   1.407   0.010  0.00  0.00    -0.041 A 
ATOM      2  C2  <0> d           1.145   2.093   0.002  0.00  0.00    -0.018 A 
ATOM      3  N1  <0> d           2.339   1.444  -0.013  0.00  0.00    -0.332 N 
ATOM      4  H1  <0> d           3.162   1.958  -0.018  0.00  0.00     0.168 HD
ATOM      5  C3  <0> d           2.400   0.099  -0.020  0.00  0.00     0.269 A 
ATOM      6  O1  <0> d           3.485  -0.462  -0.033  0.00  0.00    -0.266 OA
ATOM      7  C4  <0> d           1.224  -0.658  -0.013  0.00  0.00     0.128 A 
ATOM      8  C5  <0> d           0.002  -0.004   0.002  0.00  0.00     0.054 A 
ATOM      9 Cl1  <0> d           1.294  -2.392  -0.023  0.00  0.00    -0.076 Cl
ATOM     10  H2  <0> d          -0.959   1.936   0.026  0.00  0.00     0.089 H 
ATOM     11  H3  <0> d           1.126   3.173   0.008  0.00  0.00     0.111 H 
ENDROOT
BRANCH   8  12
ATOM     12  N2  <0> d          -1.180  -0.724   0.009  0.00  0.00    -0.398 N 
ATOM     13  H4  <0> d          -2.031  -0.258   0.020  0.00  0.00     0.156 HD
ATOM     14  H5  <0> d          -1.158  -1.693   0.004  0.00  0.00     0.156 HD
ENDBRANCH   8  12
TORSDOF 1
