REMARK  9 active torsions:
REMARK  status: ('A' for Active; 'I' for Inactive)
REMARK    1  A    between atoms: C1_1  and  C2_2 
REMARK    2  A    between atoms: C2_2  and  C3_3 
REMARK    3  A    between atoms: C3_3  and  C4_4 
REMARK    4  A    between atoms: C4_4  and  C5_6 
REMARK    5  A    between atoms: C4_4  and  C6_7 
REMARK    6  A    between atoms: C6_7  and  C7_9 
REMARK    7  A    between atoms: C6_7  and  O1_12 
REMARK    8  A    between atoms: C7_9  and  C8_10 
REMARK    9  A    between atoms: C7_9  and  C9_11 
ROOT
ATOM      1  C4  <0> d          -1.373  -2.150  -0.022  0.00  0.00    -0.032 C 
ATOM      2  H1  <0> d          -0.783  -2.526  -0.858  0.00  0.00     0.043 H 
ENDROOT
BRANCH   1   3
ATOM      3  C3  <0> d          -1.389  -0.621  -0.057  0.00  0.00    -0.060 C 
ATOM      4  H8  <0> d          -1.903  -0.242   0.827  0.00  0.00     0.033 H 
ATOM      5  H9  <0> d          -1.911  -0.283  -0.952  0.00  0.00     0.033 H 
BRANCH   3   6
ATOM      6  C2  <0> d           0.048  -0.095  -0.076  0.00  0.00    -0.068 C 
ATOM      7  H6  <0> d           0.561  -0.473  -0.960  0.00  0.00     0.032 H 
ATOM      8  H7  <0> d           0.570  -0.433   0.820  0.00  0.00     0.032 H 
BRANCH   6   9
ATOM      9  C1  <0> d           0.031   1.434  -0.111  0.00  0.00    -0.077 C 
ATOM     10  H3  <0> d           1.055   1.808  -0.124  0.00  0.00     0.027 H 
ATOM     11  H4  <0> d          -0.491   1.772  -1.006  0.00  0.00     0.027 H 
ATOM     12  H5  <0> d          -0.482   1.812   0.774  0.00  0.00     0.027 H 
ENDBRANCH   6   9
ENDBRANCH   3   6
ENDBRANCH   1   3
BRANCH   1  13
ATOM     13  C5  <0> d          -0.751  -2.623   1.294  0.00  0.00    -0.071 C 
ATOM     14  H10 <0> d          -1.279  -2.166   2.130  0.00  0.00     0.028 H 
ATOM     15  H11 <0> d          -0.831  -3.708   1.363  0.00  0.00     0.028 H 
ATOM     16  H12 <0> d           0.299  -2.334   1.325  0.00  0.00     0.028 H 
ENDBRANCH   1  13
BRANCH   1  17
ATOM     17  C6  <0> d          -2.805  -2.678  -0.129  0.00  0.00     0.041 C 
ATOM     18  H2  <0> d          -2.803  -3.761  -0.007  0.00  0.00     0.084 H 
BRANCH  17  19
ATOM     19  C7  <0> d          -3.379  -2.321  -1.501  0.00  0.00    -0.036 C 
ATOM     20  H13 <0> d          -3.294  -1.246  -1.662  0.00  0.00     0.042 H 
BRANCH  19  21
ATOM     21  C8  <0> d          -2.601  -3.063  -2.589  0.00  0.00    -0.071 C 
ATOM     22  H14 <0> d          -3.073  -2.890  -3.556  0.00  0.00     0.028 H 
ATOM     23  H15 <0> d          -1.574  -2.697  -2.615  0.00  0.00     0.028 H 
ATOM     24  H16 <0> d          -2.600  -4.131  -2.371  0.00  0.00     0.028 H 
ENDBRANCH  19  21
BRANCH  19  25
ATOM     25  C9  <0> d          -4.853  -2.729  -1.559  0.00  0.00    -0.071 C 
ATOM     26  H17 <0> d          -5.407  -2.200  -0.784  0.00  0.00     0.028 H 
ATOM     27  H18 <0> d          -5.262  -2.474  -2.537  0.00  0.00     0.028 H 
ATOM     28  H19 <0> d          -4.938  -3.804  -1.398  0.00  0.00     0.028 H 
ENDBRANCH  19  25
ENDBRANCH  17  19
BRANCH  17  29
ATOM     29  O1  <0> d          -3.609  -2.085   0.893  0.00  0.00    -0.395 OA
ATOM     30  H20 <0> d          -3.656  -1.121   0.846  0.00  0.00     0.210 HD
ENDBRANCH  17  29
ENDBRANCH   1  17
TORSDOF 9
