REMARK  2 active torsions:
REMARK  status: ('A' for Active; 'I' for Inactive)
REMARK    1  A    between atoms: C1_1  and  C2_2 
REMARK    2  A    between atoms: C4_6  and  C6_10 
ROOT
ATOM      1  C2  <0> d           1.389   5.778   0.010  0.00  0.00     0.102 A 
ATOM      2  N1  <0> d           0.190   5.167   0.029  0.00  0.00    -0.247 NA
ATOM      3  H1  <0> d           3.379   5.622  -0.023  0.00  0.00     0.170 HD
ATOM      4  C3  <0> d           0.084   3.822   0.022  0.00  0.00     0.026 A 
ATOM      5  C4  <0> d           1.238   3.061  -0.006  0.00  0.00     0.126 A 
ATOM      6  C5  <0> d           2.527   3.774  -0.014  0.00  0.00     0.265 A 
ATOM      7  O1  <0> d           3.580   3.159  -0.028  0.00  0.00    -0.267 OA
ATOM      8  N2  <0> d           2.514   5.120  -0.010  0.00  0.00    -0.311 N 
ATOM      9  H5  <0> d          -0.886   3.348   0.028  0.00  0.00     0.116 H 
ENDROOT
BRANCH   1  10
ATOM     10  C1  <0> d           1.432   7.285   0.013  0.00  0.00    -0.021 C 
ATOM     11  H2  <0> d           1.455   7.646   1.042  0.00  0.00     0.037 H 
ATOM     12  H3  <0> d           2.326   7.624  -0.510  0.00  0.00     0.037 H 
ATOM     13  H4  <0> d           0.547   7.675  -0.489  0.00  0.00     0.037 H 
ENDBRANCH   1  10
BRANCH   5  14
ATOM     14  C6  <0> d           1.181   1.591  -0.020  0.00  0.00     0.216 C 
ATOM     15  O2  <0> d           2.209   0.943  -0.039  0.00  0.00    -0.644 OA
ATOM     16  O3  <0> d          -0.011   0.963  -0.012  0.00  0.00    -0.644 OA
ENDBRANCH   5  14
TORSDOF 2
