REMARK  4 active torsions:
REMARK  status: ('A' for Active; 'I' for Inactive)
REMARK    1  A    between atoms: C1_1  and  N1_2 
REMARK    2  A    between atoms: N1_2  and  C2_3 
REMARK    3  A    between atoms: C5_6  and  N3_10 
REMARK    4  A    between atoms: C7_8  and  N2_9 
ROOT
ATOM      1  C2  <0> d           0.629  -0.703   1.045  0.00  0.00     0.054 A 
ATOM      2  C3  <0> d           1.225  -0.008   2.086  0.00  0.00    -0.053 A 
ATOM      3  C4  <0> d           1.844  -0.696   3.113  0.00  0.00    -0.055 A 
ATOM      4  C5  <0> d           1.869  -2.084   3.106  0.00  0.00     0.028 A 
ATOM      5  C6  <0> d           1.274  -2.785   2.066  0.00  0.00    -0.030 A 
ATOM      6  C7  <0> d           0.648  -2.097   1.038  0.00  0.00     0.054 A 
ATOM      7  H5  <0> d           1.206   1.072   2.094  0.00  0.00     0.087 H 
ATOM      8  H6  <0> d           2.308  -0.152   3.923  0.00  0.00     0.087 H 
ATOM      9  H7  <0> d           1.295  -3.865   2.061  0.00  0.00     0.090 H 
ENDROOT
BRANCH   1  10
ATOM     10  N1  <0> d           0.002  -0.004   0.002  0.00  0.00    -0.392 N 
ATOM     11  H4  <0> d          -0.418  -0.491  -0.724  0.00  0.00     0.159 HD
BRANCH  10  12
ATOM     12  C1  <0> d          -0.018   1.461   0.010  0.00  0.00    -0.021 C 
ATOM     13  H1  <0> d           1.005   1.838   0.002  0.00  0.00     0.056 H 
ATOM     14  H2  <0> d          -0.545   1.822  -0.873  0.00  0.00     0.056 H 
ATOM     15  H3  <0> d          -0.528   1.812   0.907  0.00  0.00     0.056 H 
ENDBRANCH  10  12
ENDBRANCH   1  10
BRANCH   6  16
ATOM     16  N2  <0> d           0.042  -2.802  -0.009  0.00  0.00    -0.397 N 
ATOM     17  H8  <0> d          -0.392  -2.320  -0.731  0.00  0.00     0.156 HD
ATOM     18  H9  <0> d           0.056  -3.772  -0.014  0.00  0.00     0.156 HD
ENDBRANCH   6  16
BRANCH   4  19
ATOM     19  N3  <0> d           2.497  -2.777   4.148  0.00  0.00    -0.399 N 
ATOM     20  H10 <0> d           2.913  -2.288   4.875  0.00  0.00     0.156 HD
ATOM     21  H11 <0> d           2.515  -3.747   4.144  0.00  0.00     0.156 HD
ENDBRANCH   4  19
TORSDOF 4
