REMARK  1 active torsions:
REMARK  status: ('A' for Active; 'I' for Inactive)
REMARK    1  A    between atoms: C1_1  and  C2_2 
ROOT
ATOM      1  C2  <0> d          -1.223   2.034   0.019  0.00  0.00    -0.021 A 
ATOM      2  C3  <0> d          -1.192   3.420   0.032  0.00  0.00    -0.057 A 
ATOM      3  C4  <0> d           0.029   4.067   0.024  0.00  0.00     0.003 A 
ATOM      4  N1  <0> d           1.156   3.383   0.010  0.00  0.00    -0.270 NA
ATOM      5  C5  <0> d           1.168   2.065   0.002  0.00  0.00     0.039 A 
ATOM      6  C6  <0> d          -0.016   1.347   0.009  0.00  0.00     0.139 A 
ATOM      7  F1  <0> d           0.002  -0.004   0.002  0.00  0.00    -0.204 F 
ATOM      8  H4  <0> d          -2.111   3.987   0.043  0.00  0.00     0.086 H 
ATOM      9  H5  <0> d           0.060   5.147   0.030  0.00  0.00     0.114 H 
ATOM     10  H6  <0> d           2.111   1.539  -0.010  0.00  0.00     0.119 H 
ENDROOT
BRANCH   1  11
ATOM     11  C1  <0> d          -2.534   1.291   0.020  0.00  0.00    -0.048 C 
ATOM     12  H1  <0> d          -2.845   1.106   1.048  0.00  0.00     0.033 H 
ATOM     13  H2  <0> d          -3.291   1.889  -0.486  0.00  0.00     0.033 H 
ATOM     14  H3  <0> d          -2.413   0.341  -0.499  0.00  0.00     0.033 H 
ENDBRANCH   1  11
TORSDOF 1
