REMARK  3 active torsions:
REMARK  status: ('A' for Active; 'I' for Inactive)
REMARK    1  A    between atoms: C1_1  and  C2_2 
REMARK    2  A    between atoms: C2_2  and  C3_3 
REMARK    3  A    between atoms: C3_3  and  N1_4 
ROOT
ATOM      1  C3  <0> d          -0.019   1.526   0.010  0.00  0.00     0.016 C 
ATOM      2  H6  <0> d           1.004   1.903   0.003  0.00  0.00     0.067 H 
ATOM      3  H7  <0> d          -0.546   1.887  -0.873  0.00  0.00     0.067 H 
ENDROOT
BRANCH   1   4
ATOM      4  C2  <0> d           0.002  -0.004   0.002  0.00  0.00    -0.052 C 
ATOM      5  H4  <0> d           0.529  -0.365   0.885  0.00  0.00     0.035 H 
ATOM      6  H5  <0> d          -1.020  -0.381   0.010  0.00  0.00     0.035 H 
BRANCH   4   7
ATOM      7  C1  <0> d           0.718  -0.497  -1.257  0.00  0.00    -0.075 C 
ATOM      8  H1  <0> d           0.191  -0.136  -2.140  0.00  0.00     0.027 H 
ATOM      9  H2  <0> d           1.741  -0.120  -1.264  0.00  0.00     0.027 H 
ATOM     10  H3  <0> d           0.733  -1.587  -1.263  0.00  0.00     0.027 H 
ENDBRANCH   4   7
ENDBRANCH   1   4
BRANCH   1  11
ATOM     11  N1  <0> d          -0.704   1.998   1.216  0.00  0.00    -0.281 N 
ATOM     12  N2  <0> d          -1.998   1.645   1.619  0.00  0.00    -0.185 NA
ATOM     13  C6  <0> d          -2.259   2.263   2.743  0.00  0.00     0.023 A 
ATOM     14  C5  <0> d          -1.144   3.036   3.085  0.00  0.00    -0.048 A 
ATOM     15  H10 <0> d          -3.178   2.193   3.306  0.00  0.00     0.117 H 
ATOM     16  C4  <0> d          -0.203   2.855   2.130  0.00  0.00    -0.000 A 
ATOM     17  H9  <0> d          -1.051   3.666   3.958  0.00  0.00     0.087 H 
ATOM     18  H8  <0> d           0.774   3.313   2.104  0.00  0.00     0.114 H 
ENDBRANCH   1  11
TORSDOF 3
