REMARK  3 active torsions:
REMARK  status: ('A' for Active; 'I' for Inactive)
REMARK    1  A    between atoms: C4_4  and  O2_10 
REMARK    2  A    between atoms: C5_5  and  C7_7 
REMARK    3  A    between atoms: C7_7  and  C8_8 
ROOT
ATOM      1  C1  <0> d          -4.095  -0.338  -1.173  0.00  0.00    -0.082 A 
ATOM      2  C2  <0> d          -4.542  -0.881   0.018  0.00  0.00    -0.080 A 
ATOM      3  C3  <0> d          -3.951  -0.514   1.211  0.00  0.00    -0.051 A 
ATOM      4  C4  <0> d          -2.908   0.402   1.214  0.00  0.00     0.072 A 
ATOM      5  C5  <0> d          -2.462   0.945   0.019  0.00  0.00    -0.015 A 
ATOM      6  C6  <0> d          -3.059   0.578  -1.171  0.00  0.00    -0.074 A 
ATOM      7  H1  <0> d          -4.558  -0.627  -2.104  0.00  0.00     0.083 H 
ATOM      8  H2  <0> d          -5.354  -1.594   0.015  0.00  0.00     0.083 H 
ATOM      9  H3  <0> d          -4.301  -0.938   2.141  0.00  0.00     0.087 H 
ATOM     10  H4  <0> d          -2.715   1.004  -2.102  0.00  0.00     0.084 H 
ENDROOT
BRANCH   5  11
ATOM     11  C7  <0> d          -1.329   1.940   0.019  0.00  0.00     0.042 C 
ATOM     12  H5  <0> d          -1.391   2.561   0.913  0.00  0.00     0.056 H 
ATOM     13  H6  <0> d          -1.400   2.570  -0.867  0.00  0.00     0.056 H 
BRANCH  11  14
ATOM     14  C8  <0> d          -0.014   1.204   0.009  0.00  0.00     0.177 C 
ATOM     15  O1  <0> d           0.002  -0.004   0.002  0.00  0.00    -0.648 OA
ATOM     16  O3  <0> d           1.139   1.891   0.001  0.00  0.00    -0.648 OA
ENDBRANCH  11  14
ENDBRANCH   5  11
BRANCH   4  17
ATOM     17  O2  <0> d          -2.326   0.765   2.387  0.00  0.00    -0.360 OA
ATOM     18  H7  <0> d          -2.738   1.532   2.810  0.00  0.00     0.217 HD
ENDBRANCH   4  17
TORSDOF 3
