REMARK  2 active torsions:
REMARK  status: ('A' for Active; 'I' for Inactive)
REMARK    1  A    between atoms: C1_1  and  C2_2 
REMARK    2  A    between atoms: C6_7  and  O1_9 
ROOT
ATOM      1  C2  <0> d           1.159   3.099   0.008  0.00  0.00    -0.033 C 
ATOM      2  H1  <0> d           0.203   3.400   0.437  0.00  0.00     0.043 H 
ATOM      3  C3  <0> d           2.329   3.572   0.905  0.00  0.00    -0.060 C 
ATOM      4  C4  <0> d           2.366   2.493   2.016  0.00  0.00    -0.062 C 
ATOM      5  C5  <0> d           2.054   1.177   1.275  0.00  0.00    -0.041 C 
ATOM      6  C6  <0> d           1.286   1.562  -0.002  0.00  0.00     0.038 C 
ATOM      7  H2  <0> d           1.840   1.238  -0.883  0.00  0.00     0.083 H 
ATOM      8  H6  <0> d           3.265   3.582   0.346  0.00  0.00     0.033 H 
ATOM      9  H7  <0> d           2.120   4.555   1.327  0.00  0.00     0.033 H 
ATOM     10  H8  <0> d           3.355   2.449   2.472  0.00  0.00     0.033 H 
ATOM     11  H9  <0> d           1.607   2.697   2.771  0.00  0.00     0.033 H 
ATOM     12  H10 <0> d           1.437   0.533   1.902  0.00  0.00     0.036 H 
ATOM     13  H11 <0> d           2.981   0.666   1.014  0.00  0.00     0.036 H 
ENDROOT
BRANCH   1  14
ATOM     14  C1  <0> d           1.310   3.658  -1.409  0.00  0.00    -0.071 C 
ATOM     15  H3  <0> d           0.532   3.242  -2.049  0.00  0.00     0.028 H 
ATOM     16  H4  <0> d           1.218   4.744  -1.383  0.00  0.00     0.028 H 
ATOM     17  H5  <0> d           2.289   3.386  -1.804  0.00  0.00     0.028 H 
ENDBRANCH   1  14
BRANCH   6  18
ATOM     18  O1  <0> d          -0.011   0.963   0.007  0.00  0.00    -0.395 OA
ATOM     19  H12 <0> d           0.002  -0.004   0.002  0.00  0.00     0.210 HD
ENDBRANCH   6  18
TORSDOF 2
