REMARK  0 active torsions:
REMARK  status: ('A' for Active; 'I' for Inactive)
ROOT
ATOM      1  C1  <0> d          -0.778   3.300   0.026  0.00  0.00     0.209 A 
ATOM      2  C2  <0> d           0.692   3.320   0.013  0.00  0.00     0.209 A 
ATOM      3  N1  <0> d           1.085   1.986   0.002  0.00  0.00    -0.288 N 
ATOM      4  H1  <0> d           2.154   1.727  -0.009  0.00  0.00     0.172 HD
ATOM      5  C3  <0> d          -0.014   1.212   0.009  0.00  0.00     0.327 A 
ATOM      6  O1  <0> d           0.002  -0.004   0.002  0.00  0.00    -0.247 OA
ATOM      7  N2  <0> d          -1.134   1.955   0.018  0.00  0.00    -0.288 N 
ATOM      8  H2  <0> d          -2.196   1.668   0.019  0.00  0.00     0.172 HD
ATOM      9  N3  <0> d           1.084   4.560   0.015  0.00  0.00    -0.083 NA
ATOM     10  O2  <0> d          -0.071   5.382   0.031  0.00  0.00    -0.103 OA
ATOM     11  N4  <0> d          -1.203   4.529   0.037  0.00  0.00    -0.083 NA
ENDROOT
TORSDOF 0
