REMARK  2 active torsions:
REMARK  status: ('A' for Active; 'I' for Inactive)
REMARK    1  A    between atoms: C1_1  and  C2_2 
REMARK       I    between atoms: C2_2  and  N1_4 
REMARK    2  A    between atoms: N1_4  and  C3_5 
ROOT
ATOM      1  C3  <0> d          -2.419   1.200  -0.070  0.00  0.00     0.073 A 
ATOM      2  C4  <0> d          -2.459  -0.188  -0.077  0.00  0.00    -0.054 A 
ATOM      3  C5  <0> d          -3.672  -0.842  -0.158  0.00  0.00    -0.081 A 
ATOM      4  C6  <0> d          -4.847  -0.118  -0.244  0.00  0.00    -0.080 A 
ATOM      5  C7  <0> d          -4.813   1.264  -0.243  0.00  0.00    -0.043 A 
ATOM      6  C8  <0> d          -3.602   1.927  -0.156  0.00  0.00     0.143 A 
ATOM      7  F1  <0> d          -3.567   3.277  -0.156  0.00  0.00    -0.204 F 
ATOM      8  H5  <0> d          -1.542  -0.755  -0.015  0.00  0.00     0.087 H 
ATOM      9  H6  <0> d          -3.703  -1.922  -0.160  0.00  0.00     0.083 H 
ATOM     10  H7  <0> d          -5.794  -0.633  -0.312  0.00  0.00     0.083 H 
ATOM     11  H8  <0> d          -5.732   1.827  -0.310  0.00  0.00     0.088 H 
ENDROOT
BRANCH   1  12
ATOM     12  N1  <0> d          -1.191   1.867   0.018  0.00  0.00    -0.325 N 
ATOM     13  C2  <0> d          -0.097   1.345  -0.572  0.00  0.00     0.218 C 
ATOM     14  O1  <0> d          -0.158   0.260  -1.110  0.00  0.00    -0.274 OA
ATOM     15  H4  <0> d          -1.127   2.704   0.503  0.00  0.00     0.169 HD
BRANCH  13  16
ATOM     16  C1  <0> d           1.200   2.113  -0.569  0.00  0.00    -0.003 C 
ATOM     17  H1  <0> d           1.963   1.538  -1.094  0.00  0.00     0.040 H 
ATOM     18  H2  <0> d           1.056   3.070  -1.071  0.00  0.00     0.040 H 
ATOM     19  H3  <0> d           1.517   2.286   0.459  0.00  0.00     0.040 H 
ENDBRANCH  13  16
ENDBRANCH   1  12
TORSDOF 2
