REMARK  4 active torsions:
REMARK  status: ('A' for Active; 'I' for Inactive)
REMARK    1  A    between atoms: C1_1  and  C2_2 
REMARK    2  A    between atoms: C2_2  and  C3_3 
REMARK    3  A    between atoms: C2_2  and  C4_4 
REMARK    4  A    between atoms: C8_8  and  N1_10 
ROOT
ATOM      1  C4  <0> d          -0.049   3.845   0.021  0.00  0.00    -0.053 A 
ATOM      2  C5  <0> d           1.156   3.166   0.007  0.00  0.00    -0.076 A 
ATOM      3  C6  <0> d           1.174   1.783   0.000  0.00  0.00    -0.080 A 
ATOM      4  C7  <0> d          -0.013   1.076   0.008  0.00  0.00    -0.058 A 
ATOM      5  C8  <0> d          -1.224   1.755   0.017  0.00  0.00     0.026 A 
ATOM      6  C9  <0> d          -1.238   3.144   0.029  0.00  0.00    -0.051 A 
ATOM      7  H8  <0> d           2.085   3.717   0.001  0.00  0.00     0.084 H 
ATOM      8  H9  <0> d           2.116   1.256  -0.011  0.00  0.00     0.083 H 
ATOM      9  H10 <0> d           0.002  -0.004   0.002  0.00  0.00     0.086 H 
ATOM     10  H11 <0> d          -2.179   3.675   0.040  0.00  0.00     0.087 H 
ENDROOT
BRANCH   1  11
ATOM     11  C2  <0> d          -0.064   5.352   0.029  0.00  0.00    -0.035 C 
ATOM     12  H4  <0> d          -1.095   5.705   0.040  0.00  0.00     0.046 H 
BRANCH  11  13
ATOM     13  C1  <0> d           0.664   5.863   1.274  0.00  0.00    -0.069 C 
ATOM     14  H1  <0> d           0.654   6.953   1.279  0.00  0.00     0.028 H 
ATOM     15  H2  <0> d           0.162   5.491   2.166  0.00  0.00     0.028 H 
ATOM     16  H3  <0> d           1.695   5.510   1.262  0.00  0.00     0.028 H 
ENDBRANCH  11  13
BRANCH  11  17
ATOM     17  C3  <0> d           0.641   5.875  -1.225  0.00  0.00    -0.069 C 
ATOM     18  H5  <0> d           0.123   5.511  -2.112  0.00  0.00     0.028 H 
ATOM     19  H6  <0> d           0.631   6.965  -1.220  0.00  0.00     0.028 H 
ATOM     20  H7  <0> d           1.672   5.521  -1.236  0.00  0.00     0.028 H 
ENDBRANCH  11  17
ENDBRANCH   1  11
BRANCH   5  21
ATOM     21  N1  <0> d          -2.426   1.042   0.020  0.00  0.00    -0.399 N 
ATOM     22  H12 <0> d          -2.414   0.072   0.015  0.00  0.00     0.156 HD
ATOM     23  H13 <0> d          -3.271   1.517   0.026  0.00  0.00     0.156 HD
ENDBRANCH   5  21
TORSDOF 4
