REMARK  2 active torsions:
REMARK  status: ('A' for Active; 'I' for Inactive)
REMARK    1  A    between atoms: C2_2  and  N4_9 
REMARK    2  A    between atoms: N1_4  and  C4_6 
ROOT
ATOM      1  C4  <0> d           2.475   1.468  -0.014  0.00  0.00     0.094 C 
ATOM      2  C5  <0> d           3.165   2.093  -1.154  0.00  0.00     0.081 C 
ATOM      3  N3  <0> d           3.697   2.575  -2.034  0.00  0.00    -0.195 NA
ATOM      4  H3  <0> d           2.962   1.775   0.923  0.00  0.00     0.089 H 
ATOM      5  H4  <0> d           2.524   0.373  -0.111  0.00  0.00     0.089 H 
ENDROOT
BRANCH   1   6
ATOM      6  N1  <0> d           1.073   1.894   0.002  0.00  0.00    -0.266 N 
ATOM      7  C3  <0> d          -0.013   1.076   0.008  0.00  0.00     0.026 A 
ATOM      8  C2  <0> d          -1.118   1.863   0.017  0.00  0.00     0.062 A 
ATOM      9  H2  <0> d           0.002  -0.004   0.002  0.00  0.00     0.117 H 
ATOM     10  C1  <0> d          -0.695   3.200   0.026  0.00  0.00     0.048 A 
ATOM     11  N2  <0> d           0.614   3.217   0.013  0.00  0.00    -0.182 NA
ATOM     12  H1  <0> d          -1.338   4.066   0.036  0.00  0.00     0.121 H 
BRANCH   8  13
ATOM     13  N4  <0> d          -2.453   1.416   0.019  0.00  0.00    -0.397 N 
ATOM     14  H5  <0> d          -2.673   0.339   0.012  0.00  0.00     0.156 HD
ATOM     15  H6  <0> d          -3.277   2.146   0.029  0.00  0.00     0.156 HD
ENDBRANCH   8  13
ENDBRANCH   1   6
TORSDOF 2
