REMARK  4 active torsions:
REMARK  status: ('A' for Active; 'I' for Inactive)
REMARK    1  A    between atoms: C1_1  and  C2_2 
REMARK    2  A    between atoms: C2_2  and  C3_3 
REMARK    3  A    between atoms: C2_2  and  C4_4 
REMARK    4  A    between atoms: C2_2  and  C5_5 
ROOT
ATOM      1  C5  <0> d           0.707  -0.490  -1.238  0.00  0.00     0.084 A 
ATOM      2  C6  <0> d           0.918  -1.840  -1.597  0.00  0.00     0.088 A 
ATOM      3  C7  <0> d           1.598  -1.841  -2.799  0.00  0.00     0.018 A 
ATOM      4  N1  <0> d           1.791  -0.558  -3.152  0.00  0.00    -0.287 N 
ATOM      5  H1  <0> d           2.244  -0.253  -3.954  0.00  0.00     0.188 HD
ATOM      6  N2  <0> d           1.225   0.262  -2.170  0.00  0.00    -0.177 NA
ATOM      7  C8  <0> d           0.504  -2.992  -0.855  0.00  0.00     0.103 C 
ATOM      8  N3  <0> d           0.176  -3.906  -0.265  0.00  0.00    -0.191 NA
ATOM      9  H11 <0> d           1.916  -2.712  -3.352  0.00  0.00     0.116 H 
ENDROOT
BRANCH   1  10
ATOM     10  C2  <0> d           0.002  -0.004   0.002  0.00  0.00    -0.003 C 
BRANCH  10  11
ATOM     11  C1  <0> d          -0.019   1.526   0.010  0.00  0.00    -0.064 C 
ATOM     12  H2  <0> d           1.004   1.903   0.003  0.00  0.00     0.028 H 
ATOM     13  H3  <0> d          -0.546   1.887  -0.873  0.00  0.00     0.028 H 
ATOM     14  H4  <0> d          -0.529   1.877   0.907  0.00  0.00     0.028 H 
ENDBRANCH  10  11
BRANCH  10  15
ATOM     15  C3  <0> d           0.742  -0.511   1.242  0.00  0.00    -0.064 C 
ATOM     16  H5  <0> d           0.232  -0.159   2.138  0.00  0.00     0.028 H 
ATOM     17  H6  <0> d           0.757  -1.601   1.236  0.00  0.00     0.028 H 
ATOM     18  H7  <0> d           1.765  -0.134   1.234  0.00  0.00     0.028 H 
ENDBRANCH  10  15
BRANCH  10  19
ATOM     19  C4  <0> d          -1.433  -0.534   0.013  0.00  0.00    -0.064 C 
ATOM     20  H8  <0> d          -1.960  -0.173  -0.870  0.00  0.00     0.028 H 
ATOM     21  H9  <0> d          -1.419  -1.623   0.007  0.00  0.00     0.028 H 
ATOM     22  H10 <0> d          -1.944  -0.182   0.910  0.00  0.00     0.028 H 
ENDBRANCH  10  19
ENDBRANCH   1  10
TORSDOF 4
