REMARK  2 active torsions:
REMARK  status: ('A' for Active; 'I' for Inactive)
REMARK    1  A    between atoms: C1_1  and  S1_2 
REMARK    2  A    between atoms: S1_2  and  C2_3 
ROOT
ATOM      1  C2  <0> d           2.339   1.421  -0.012  0.00  0.00     0.084 A 
ATOM      2  C3  <0> d           1.148   2.067   0.002  0.00  0.00     0.003 A 
ATOM      3  N1  <0> d          -0.016   1.339   0.009  0.00  0.00    -0.317 N 
ATOM      4  H1  <0> d          -0.894   1.818   0.020  0.00  0.00     0.170 HD
ATOM      5  C4  <0> d           0.002  -0.004   0.002  0.00  0.00     0.327 A 
ATOM      6  O1  <0> d          -1.052  -0.611   0.009  0.00  0.00    -0.247 OA
ATOM      7  N2  <0> d           1.156  -0.695  -0.013  0.00  0.00    -0.274 N 
ATOM      8  H2  <0> d           1.138  -1.694  -0.019  0.00  0.00     0.173 HD
ATOM      9  C5  <0> d           2.338  -0.045  -0.021  0.00  0.00     0.267 A 
ATOM     10  O2  <0> d           3.386  -0.665  -0.034  0.00  0.00    -0.267 OA
ATOM     11  H6  <0> d           1.115   3.146   0.008  0.00  0.00     0.113 H 
ENDROOT
BRANCH   1  12
ATOM     12  S1  <0> d           3.853   2.321  -0.021  0.00  0.00    -0.128 SA
BRANCH  12  13
ATOM     13  C1  <0> d           3.331   4.059  -0.006  0.00  0.00    -0.030 C 
ATOM     14  H3  <0> d           2.742   4.253   0.890  0.00  0.00     0.042 H 
ATOM     15  H4  <0> d           4.210   4.703  -0.011  0.00  0.00     0.042 H 
ATOM     16  H5  <0> d           2.726   4.263  -0.890  0.00  0.00     0.042 H 
ENDBRANCH  12  13
ENDBRANCH   1  12
TORSDOF 2
