REMARK  1 active torsions:
REMARK  status: ('A' for Active; 'I' for Inactive)
REMARK    1  A    between atoms: C5_6  and  C6_7 
ROOT
ATOM      1  C1  <0> d          -0.017   1.393   0.010  0.00  0.00    -0.055 A 
ATOM      2  C2  <0> d           1.181   2.079   0.002  0.00  0.00     0.003 A 
ATOM      3  N1  <0> d           2.331   1.433  -0.013  0.00  0.00    -0.273 NA
ATOM      4  C3  <0> d           2.393   0.116  -0.021  0.00  0.00     0.003 A 
ATOM      5  C4  <0> d           1.243  -0.647  -0.013  0.00  0.00    -0.055 A 
ATOM      6  C5  <0> d           0.002  -0.004   0.002  0.00  0.00    -0.023 A 
ATOM      7  H1  <0> d          -0.955   1.929   0.026  0.00  0.00     0.087 H 
ATOM      8  H2  <0> d           1.176   3.159   0.008  0.00  0.00     0.114 H 
ATOM      9  H3  <0> d           3.356  -0.372  -0.033  0.00  0.00     0.114 H 
ATOM     10  H4  <0> d           1.300  -1.726  -0.020  0.00  0.00     0.087 H 
ENDROOT
BRANCH   6  11
ATOM     11  C6  <0> d          -1.261  -0.783   0.010  0.00  0.00    -0.023 A 
ATOM     12  C10 <0> d          -1.242  -2.181   0.003  0.00  0.00    -0.055 A 
ATOM     13  C9  <0> d          -2.439  -2.867   0.017  0.00  0.00     0.003 A 
ATOM     14  H8  <0> d          -0.304  -2.716  -0.010  0.00  0.00     0.087 H 
ATOM     15  N2  <0> d          -3.589  -2.221   0.026  0.00  0.00    -0.273 NA
ATOM     16  H7  <0> d          -2.435  -3.947   0.015  0.00  0.00     0.114 H 
ATOM     17  C8  <0> d          -3.651  -0.903   0.028  0.00  0.00     0.003 A 
ATOM     18  C7  <0> d          -2.501  -0.140   0.020  0.00  0.00    -0.055 A 
ATOM     19  H6  <0> d          -4.614  -0.415   0.036  0.00  0.00     0.114 H 
ATOM     20  H5  <0> d          -2.559   0.938   0.022  0.00  0.00     0.087 H 
ENDBRANCH   6  11
TORSDOF 1
