REMARK  3 active torsions:
REMARK  status: ('A' for Active; 'I' for Inactive)
REMARK    1  A    between atoms: C1_1  and  N1_2 
REMARK    2  A    between atoms: N1_2  and  C2_3 
REMARK    3  A    between atoms: C3_5  and  C5_8 
ROOT
ATOM      1  C2  <0> d          -1.187  -0.713   0.010  0.00  0.00     0.166 A 
ATOM      2  N2  <0> d          -1.376  -2.016   0.010  0.00  0.00    -0.217 NA
ATOM      3  C3  <0> d          -2.634  -2.475   0.019  0.00  0.00     0.142 A 
ATOM      4  C4  <0> d          -3.665  -1.575   0.027  0.00  0.00    -0.007 A 
ATOM      5  S1  <0> d          -2.861  -0.097   0.029  0.00  0.00    -0.062 SA
ATOM      6  H5  <0> d          -4.728  -1.766   0.035  0.00  0.00     0.099 H 
ENDROOT
BRANCH   1   7
ATOM      7  N1  <0> d           0.002  -0.004   0.002  0.00  0.00    -0.373 N 
ATOM      8  H4  <0> d           0.849  -0.478  -0.009  0.00  0.00     0.161 HD
BRANCH   7   9
ATOM      9  C1  <0> d          -0.018   1.461   0.010  0.00  0.00    -0.019 C 
ATOM     10  H1  <0> d           1.005   1.838   0.002  0.00  0.00     0.056 H 
ATOM     11  H2  <0> d          -0.545   1.822  -0.873  0.00  0.00     0.056 H 
ATOM     12  H3  <0> d          -0.528   1.812   0.907  0.00  0.00     0.056 H 
ENDBRANCH   7   9
ENDBRANCH   1   7
BRANCH   3  13
ATOM     13  C5  <0> d          -2.902  -3.917   0.019  0.00  0.00     0.229 C 
ATOM     14  O1  <0> d          -1.972  -4.713   0.011  0.00  0.00    -0.643 OA
ATOM     15  O2  <0> d          -4.056  -4.325   0.027  0.00  0.00    -0.643 OA
ENDBRANCH   3  13
TORSDOF 3
