REMARK  3 active torsions:
REMARK  status: ('A' for Active; 'I' for Inactive)
REMARK    1  A    between atoms: C1_1  and  C2_2 
REMARK    2  A    between atoms: C2_2  and  C10_13 
REMARK    3  A    between atoms: C5_6  and  C8_11 
ROOT
ATOM      1  C2  <0> d          -0.091   0.086  -0.101  0.00  0.00    -0.040 C 
ATOM      2  C3  <0> d          -1.457  -0.287   0.528  0.00  0.00    -0.046 C 
ATOM      3  H1  <0> d          -2.350   0.296   0.297  0.00  0.00     0.041 H 
ATOM      4  C4  <0> d          -1.519  -1.839   0.326  0.00  0.00    -0.054 C 
ATOM      5  C5  <0> d          -0.059  -2.201   0.735  0.00  0.00    -0.034 C 
ATOM      6  H2  <0> d          -0.039  -2.846   1.613  0.00  0.00     0.046 H 
ATOM      7  C6  <0> d           0.471  -0.748   1.079  0.00  0.00    -0.040 C 
ATOM      8  H3  <0> d           1.509  -0.636   1.391  0.00  0.00     0.042 H 
ATOM      9  C7  <0> d          -0.666   0.000   1.840  0.00  0.00    -0.056 C 
ATOM     10  H7  <0> d          -2.246  -2.300   0.995  0.00  0.00     0.034 H 
ATOM     11  H8  <0> d          -1.718  -2.099  -0.714  0.00  0.00     0.034 H 
ATOM     12  H9  <0> d          -0.465   1.056   2.022  0.00  0.00     0.034 H 
ATOM     13  H10 <0> d          -1.042  -0.527   2.716  0.00  0.00     0.034 H 
ENDROOT
BRANCH   1  14
ATOM     14  C1  <0> d           0.247   1.577  -0.033  0.00  0.00    -0.069 C 
ATOM     15  H4  <0> d           1.304   1.699   0.204  0.00  0.00     0.028 H 
ATOM     16  H5  <0> d           0.034   2.042  -0.996  0.00  0.00     0.028 H 
ATOM     17  H6  <0> d          -0.356   2.051   0.741  0.00  0.00     0.028 H 
ENDBRANCH   1  14
BRANCH   1  18
ATOM     18  C10 <0> d           0.160  -0.529  -1.480  0.00  0.00    -0.069 C 
ATOM     19  H14 <0> d           1.226  -0.716  -1.606  0.00  0.00     0.028 H 
ATOM     20  H15 <0> d          -0.386  -1.469  -1.563  0.00  0.00     0.028 H 
ATOM     21  H16 <0> d          -0.183   0.160  -2.252  0.00  0.00     0.028 H 
ENDBRANCH   1  18
BRANCH   5  22
ATOM     22  C8  <0> d           0.699  -2.817  -0.413  0.00  0.00    -0.108 C 
ATOM     23  C9  <0> d           1.060  -4.075  -0.359  0.00  0.00    -0.124 C 
ATOM     24  H12 <0> d           0.815  -4.670   0.508  0.00  0.00     0.066 H 
ATOM     25  H13 <0> d           1.603  -4.516  -1.182  0.00  0.00     0.066 H 
ATOM     26  H11 <0> d           0.944  -2.221  -1.279  0.00  0.00     0.076 H 
ENDBRANCH   5  22
TORSDOF 3
