REMARK  3 active torsions:
REMARK  status: ('A' for Active; 'I' for Inactive)
REMARK    1  A    between atoms: C1_1  and  N1_2 
REMARK    2  A    between atoms: C2_3  and  S1_7 
REMARK    3  A    between atoms: S1_7  and  C3_8 
ROOT
ATOM      1  C3  <0> d           1.756   2.096  -0.004  0.00  0.00     0.063 C 
ATOM      2  C4  <0> d           1.979   3.551   0.002  0.00  0.00     0.069 C 
ATOM      3  N5  <0> d           2.150   4.674   0.007  0.00  0.00    -0.197 NA
ATOM      4  H4  <0> d           2.218   1.655   0.880  0.00  0.00     0.071 H 
ATOM      5  H5  <0> d           2.201   1.664  -0.900  0.00  0.00     0.071 H 
ENDROOT
BRANCH   1   6
ATOM      6  S1  <0> d          -0.022   1.758   0.012  0.00  0.00    -0.074 SA
BRANCH   6   7
ATOM      7  C2  <0> d           0.002  -0.004   0.002  0.00  0.00     0.209 A 
ATOM      8  N1  <0> d          -1.076  -0.823   0.013  0.00  0.00    -0.230 N 
ATOM      9  N4  <0> d          -0.549  -2.127  -0.004  0.00  0.00    -0.044 NA
ATOM     10  N3  <0> d           0.735  -2.011  -0.015  0.00  0.00    -0.022 NA
ATOM     11  N2  <0> d           1.071  -0.771  -0.012  0.00  0.00    -0.102 NA
BRANCH   8  12
ATOM     12  C1  <0> d          -2.488  -0.435   0.036  0.00  0.00     0.006 C 
ATOM     13  H1  <0> d          -2.854  -0.333  -0.985  0.00  0.00     0.059 H 
ATOM     14  H2  <0> d          -3.067  -1.199   0.554  0.00  0.00     0.059 H 
ATOM     15  H3  <0> d          -2.595   0.517   0.557  0.00  0.00     0.059 H 
ENDBRANCH   8  12
ENDBRANCH   6   7
ENDBRANCH   1   6
TORSDOF 3
