REMARK  1 active torsions:
REMARK  status: ('A' for Active; 'I' for Inactive)
REMARK    1  A    between atoms: C6_6  and  C7_7 
ROOT
ATOM      1  C1  <0> d          -0.017   1.393   0.010  0.00  0.00    -0.065 A 
ATOM      2  C2  <0> d           1.169   2.096   0.002  0.00  0.00    -0.061 A 
ATOM      3  C3  <0> d           2.378   1.419  -0.013  0.00  0.00     0.034 A 
ATOM      4  C4  <0> d           2.404   0.034  -0.021  0.00  0.00    -0.061 A 
ATOM      5  C5  <0> d           1.225  -0.680  -0.013  0.00  0.00    -0.065 A 
ATOM      6  C6  <0> d           0.002  -0.004   0.002  0.00  0.00     0.040 A 
ATOM      7 Cl1  <0> d           3.867   2.312  -0.024  0.00  0.00    -0.084 Cl
ATOM      8  H1  <0> d          -0.959   1.922   0.026  0.00  0.00     0.085 H 
ATOM      9  H2  <0> d           1.156   3.176   0.008  0.00  0.00     0.086 H 
ATOM     10  H3  <0> d           3.350  -0.487  -0.034  0.00  0.00     0.086 H 
ATOM     11  H4  <0> d           1.247  -1.760  -0.020  0.00  0.00     0.085 H 
ENDROOT
BRANCH   6  12
ATOM     12  C7  <0> d          -1.263  -0.762   0.011  0.00  0.00     0.209 C 
ATOM     13  O1  <0> d          -2.332  -0.168   0.024  0.00  0.00    -0.644 OA
ATOM     14  O2  <0> d          -1.243  -1.985   0.004  0.00  0.00    -0.644 OA
ENDBRANCH   6  12
TORSDOF 1
