REMARK  0 active torsions:
REMARK  status: ('A' for Active; 'I' for Inactive)
ROOT
ATOM      1  C1  <0> d           2.338   1.315  -0.011  0.00  0.00     0.020 A 
ATOM      2  C2  <0> d           1.123   1.989   0.002  0.00  0.00     0.021 A 
ATOM      3  N1  <0> d          -0.016   1.321   0.009  0.00  0.00    -0.238 NA
ATOM      4  C3  <0> d           0.002  -0.004   0.002  0.00  0.00     0.185 A 
ATOM      5  C4  <0> d           1.234  -0.684  -0.013  0.00  0.00     0.174 A 
ATOM      6  N2  <0> d           2.371  -0.003  -0.020  0.00  0.00    -0.250 NA
ATOM      7  C5  <0> d           1.205  -2.161  -0.021  0.00  0.00     0.300 A 
ATOM      8  O1  <0> d           2.237  -2.808  -0.034  0.00  0.00    -0.263 OA
ATOM      9  N3  <0> d           0.005  -2.771  -0.014  0.00  0.00    -0.201 NA
ATOM     10  C6  <0> d          -1.109  -2.092   0.000  0.00  0.00     0.093 A 
ATOM     11  N4  <0> d          -1.157  -0.748   0.009  0.00  0.00    -0.220 NA
ATOM     12  H1  <0> d           3.262   1.874  -0.017  0.00  0.00     0.117 H 
ATOM     13  H2  <0> d           1.110   3.069   0.008  0.00  0.00     0.117 H 
ATOM     14  H3  <0> d          -2.041  -2.637   0.005  0.00  0.00     0.146 H 
ENDROOT
TORSDOF 0
