REMARK  7 active torsions:
REMARK  status: ('A' for Active; 'I' for Inactive)
REMARK    1  A    between atoms: C2_2  and  C3_3 
REMARK    2  A    between atoms: C3_3  and  O1_4 
REMARK    3  A    between atoms: O1_4  and  C4_5 
REMARK    4  A    between atoms: C4_5  and  C5_6 
REMARK    5  A    between atoms: C5_6  and  C6_8 
REMARK    6  A    between atoms: C5_6  and  O3_10 
REMARK    7  A    between atoms: C6_8  and  O2_9 
ROOT
ATOM      1  C1  <0> d          -1.760   1.603   6.923  0.00  0.00    -0.152 C 
ATOM      2  C2  <0> d          -1.096   1.255   6.019  0.00  0.00    -0.091 C 
ATOM      3  H2  <0> d          -2.355   1.914   7.730  0.00  0.00     0.166 H 
ENDROOT
BRANCH   2   4
ATOM      4  C3  <0> d          -0.262   0.819   4.887  0.00  0.00     0.073 C 
ATOM      5  H3  <0> d          -0.250  -0.271   4.843  0.00  0.00     0.093 H 
ATOM      6  H4  <0> d           0.754   1.188   5.021  0.00  0.00     0.093 H 
BRANCH   4   7
ATOM      7  O1  <0> d          -0.802   1.338   3.670  0.00  0.00    -0.377 OA
BRANCH   7   8
ATOM      8  C4  <0> d          -0.064   0.971   2.503  0.00  0.00     0.046 C 
ATOM      9  H5  <0> d          -0.047  -0.115   2.410  0.00  0.00     0.078 H 
ATOM     10  H6  <0> d           0.957   1.344   2.587  0.00  0.00     0.078 H 
BRANCH   8  11
ATOM     11  C5  <0> d          -0.729   1.579   1.267  0.00  0.00     0.076 C 
ATOM     12  H1  <0> d          -1.776   1.277   1.232  0.00  0.00     0.089 H 
BRANCH  11  13
ATOM     13  C6  <0> d          -0.013   1.086   0.008  0.00  0.00     0.042 C 
ATOM     14  H7  <0> d           0.002  -0.004   0.002  0.00  0.00     0.078 H 
ATOM     15  H8  <0> d           1.010   1.463   0.000  0.00  0.00     0.078 H 
BRANCH  13  16
ATOM     16  O2  <0> d          -0.704   1.559  -1.150  0.00  0.00    -0.398 OA
ATOM     17  H9  <0> d          -0.304   1.284  -1.986  0.00  0.00     0.209 HD
ENDBRANCH  13  16
ENDBRANCH  11  13
BRANCH  11  18
ATOM     18  O3  <0> d          -0.647   3.004   1.334  0.00  0.00    -0.391 OA
ATOM     19  H10 <0> d           0.258   3.345   1.368  0.00  0.00     0.210 HD
ENDBRANCH  11  18
ENDBRANCH   8  11
ENDBRANCH   7   8
ENDBRANCH   4   7
ENDBRANCH   2   4
TORSDOF 7
