REMARK  1 active torsions:
REMARK  status: ('A' for Active; 'I' for Inactive)
REMARK    1  A    between atoms: C5_6  and  C6_7 
ROOT
ATOM      1  C6  <0> d          -0.013   1.086   0.008  0.00  0.00     0.018 C 
ATOM      2  C7  <0> d          -0.702   1.560   1.219  0.00  0.00     0.059 C 
ATOM      3  N1  <0> d          -1.233   1.927   2.154  0.00  0.00    -0.197 NA
ATOM      4  H10 <0> d           0.002  -0.004   0.002  0.00  0.00     0.055 H 
ATOM      5  H11 <0> d           1.010   1.463   0.000  0.00  0.00     0.055 H 
ENDROOT
BRANCH   1   6
ATOM      6  C5  <0> d          -0.753   1.593  -1.232  0.00  0.00    -0.039 C 
ATOM      7  C1  <0> d          -2.144   0.956  -1.294  0.00  0.00    -0.041 C 
ATOM      8  C2  <0> d          -2.847   1.407  -2.577  0.00  0.00     0.020 C 
ATOM      9  H1  <0> d          -2.048  -0.130  -1.294  0.00  0.00     0.036 H 
ATOM     10  H2  <0> d          -2.728   1.271  -0.429  0.00  0.00     0.036 H 
ATOM     11  O1  <0> d          -2.051   1.044  -3.707  0.00  0.00    -0.391 OA
ATOM     12  H3  <0> d          -2.979   2.489  -2.558  0.00  0.00     0.074 H 
ATOM     13  H4  <0> d          -3.821   0.923  -2.648  0.00  0.00     0.074 H 
ATOM     14  C3  <0> d          -0.756   1.647  -3.727  0.00  0.00     0.020 C 
ATOM     15  C4  <0> d           0.030   1.206  -2.490  0.00  0.00    -0.041 C 
ATOM     16  H5  <0> d          -0.861   2.732  -3.723  0.00  0.00     0.074 H 
ATOM     17  H6  <0> d          -0.224   1.337  -4.626  0.00  0.00     0.074 H 
ATOM     18  H7  <0> d           1.002   1.700  -2.480  0.00  0.00     0.036 H 
ATOM     19  H8  <0> d           0.171   0.125  -2.514  0.00  0.00     0.036 H 
ATOM     20  H9  <0> d          -0.849   2.677  -1.181  0.00  0.00     0.041 H 
ENDBRANCH   1   6
TORSDOF 1
