REMARK  2 active torsions:
REMARK  status: ('A' for Active; 'I' for Inactive)
REMARK    1  A    between atoms: C7_7  and  C9_11 
REMARK    2  A    between atoms: C9_11  and  O1_12 
ROOT
ATOM      1  C1  <0> d          -0.017   1.362   0.009  0.00  0.00    -0.082 A 
ATOM      2  C2  <0> d           1.170   2.083   0.002  0.00  0.00    -0.081 A 
ATOM      3  C3  <0> d           2.386   1.436  -0.013  0.00  0.00    -0.056 A 
ATOM      4  C4  <0> d           2.428   0.046  -0.021  0.00  0.00     0.043 A 
ATOM      5  C5  <0> d           1.223  -0.681  -0.013  0.00  0.00     0.000 A 
ATOM      6  C6  <0> d           0.002  -0.004   0.002  0.00  0.00    -0.070 A 
ATOM      7  C7  <0> d           1.604  -2.095  -0.025  0.00  0.00    -0.007 A 
ATOM      8  C8  <0> d           2.945  -2.141  -0.038  0.00  0.00    -0.013 A 
ATOM      9  N1  <0> d           3.455  -0.871  -0.036  0.00  0.00    -0.365 N 
ATOM     10  H1  <0> d           4.399  -0.650  -0.044  0.00  0.00     0.165 HD
ATOM     11  H2  <0> d          -0.961   1.885   0.026  0.00  0.00     0.083 H 
ATOM     12  H3  <0> d           1.139   3.163   0.008  0.00  0.00     0.083 H 
ATOM     13  H4  <0> d           3.303   2.006  -0.020  0.00  0.00     0.086 H 
ATOM     14  H5  <0> d          -0.925  -0.559   0.008  0.00  0.00     0.084 H 
ATOM     15  H6  <0> d           3.535  -3.046  -0.049  0.00  0.00     0.112 H 
ENDROOT
BRANCH   7  16
ATOM     16  C9  <0> d           0.666  -3.275  -0.021  0.00  0.00     0.043 C 
ATOM     17  H7  <0> d           0.047  -3.245   0.875  0.00  0.00     0.081 H 
ATOM     18  H8  <0> d           0.029  -3.236  -0.904  0.00  0.00     0.081 H 
BRANCH  16  19
ATOM     19  O1  <0> d           1.425  -4.486  -0.035  0.00  0.00    -0.396 OA
ATOM     20  H9  <0> d           0.885  -5.289  -0.034  0.00  0.00     0.209 HD
ENDBRANCH  16  19
ENDBRANCH   7  16
TORSDOF 2
