REMARK  2 active torsions:
REMARK  status: ('A' for Active; 'I' for Inactive)
REMARK    1  A    between atoms: C1_1  and  C2_2 
REMARK    2  A    between atoms: C5_8  and  C6_10 
ROOT
ATOM      1  C2  <0> d           2.296   0.610   0.044  0.00  0.00    -0.015 C 
ATOM      2  H1  <0> d           2.712   0.391  -0.939  0.00  0.00     0.044 H 
ATOM      3  C3  <0> d           1.295  -0.486   0.475  0.00  0.00     0.033 C 
ATOM      4  O1  <0> d           0.002  -0.004   0.002  0.00  0.00    -0.320 OA
ATOM      5  C4  <0> d          -0.016   1.336   0.009  0.00  0.00     0.273 C 
ATOM      6  O2  <0> d          -1.014   2.018   0.018  0.00  0.00    -0.264 OA
ATOM      7  C5  <0> d           1.401   1.869  -0.001  0.00  0.00     0.119 C 
ATOM      8  H2  <0> d           1.578   2.492   0.875  0.00  0.00     0.073 H 
ATOM      9  H6  <0> d           1.289  -0.590   1.560  0.00  0.00     0.075 H 
ATOM     10  H7  <0> d           1.543  -1.436   0.001  0.00  0.00     0.075 H 
ENDROOT
BRANCH   1  11
ATOM     11  C1  <0> d           3.409   0.770   1.081  0.00  0.00    -0.070 C 
ATOM     12  H3  <0> d           3.962  -0.165   1.168  0.00  0.00     0.028 H 
ATOM     13  H4  <0> d           4.086   1.565   0.768  0.00  0.00     0.028 H 
ATOM     14  H5  <0> d           2.972   1.025   2.047  0.00  0.00     0.028 H 
ENDBRANCH   1  11
BRANCH   7  15
ATOM     15  C6  <0> d           1.658   2.651  -1.264  0.00  0.00     0.187 C 
ATOM     16  O3  <0> d           2.514   2.288  -2.035  0.00  0.00    -0.647 OA
ATOM     17  O4  <0> d           0.936   3.750  -1.531  0.00  0.00    -0.647 OA
ENDBRANCH   7  15
TORSDOF 2
