REMARK  3 active torsions:
REMARK  status: ('A' for Active; 'I' for Inactive)
REMARK    1  A    between atoms: C1_1  and  O1_2 
REMARK    2  A    between atoms: O1_2  and  C2_3 
REMARK    3  A    between atoms: C6_8  and  C8_11 
ROOT
ATOM      1  C2  <0> d           1.280   2.024   0.001  0.00  0.00     0.038 C 
ATOM      2  H1  <0> d           1.978   1.371  -0.523  0.00  0.00     0.083 H 
ATOM      3  C3  <0> d           1.757   2.230   1.440  0.00  0.00    -0.041 C 
ATOM      4  C4  <0> d           0.777   3.146   2.175  0.00  0.00    -0.062 C 
ATOM      5  C5  <0> d           0.710   4.498   1.462  0.00  0.00    -0.052 C 
ATOM      6  C6  <0> d           0.233   4.292   0.023  0.00  0.00     0.033 C 
ATOM      7  H2  <0> d          -0.757   3.835   0.030  0.00  0.00     0.056 H 
ATOM      8  C7  <0> d           1.213   3.376  -0.713  0.00  0.00    -0.028 C 
ATOM      9  H6  <0> d           1.805   1.267   1.948  0.00  0.00     0.036 H 
ATOM     10  H7  <0> d           2.747   2.687   1.433  0.00  0.00     0.036 H 
ATOM     11  H8  <0> d           1.117   3.293   3.201  0.00  0.00     0.033 H 
ATOM     12  H9  <0> d          -0.212   2.689   2.182  0.00  0.00     0.033 H 
ATOM     13  H10 <0> d           1.700   4.955   1.455  0.00  0.00     0.034 H 
ATOM     14  H11 <0> d           0.012   5.151   1.986  0.00  0.00     0.034 H 
ATOM     15  H12 <0> d           2.202   3.832  -0.720  0.00  0.00     0.038 H 
ATOM     16  H13 <0> d           0.873   3.229  -1.738  0.00  0.00     0.038 H 
ENDROOT
BRANCH   1  17
ATOM     17  O1  <0> d          -0.017   1.425   0.010  0.00  0.00    -0.391 OA
BRANCH  17  18
ATOM     18  C1  <0> d           0.002  -0.004   0.002  0.00  0.00     0.004 C 
ATOM     19  H3  <0> d          -1.020  -0.381   0.010  0.00  0.00     0.066 H 
ATOM     20  H4  <0> d           0.512  -0.356  -0.895  0.00  0.00     0.066 H 
ATOM     21  H5  <0> d           0.529  -0.365   0.885  0.00  0.00     0.066 H 
ENDBRANCH  17  18
ENDBRANCH   1  17
BRANCH   6  22
ATOM     22  C8  <0> d           0.167   5.624  -0.680  0.00  0.00     0.177 C 
ATOM     23  O2  <0> d           0.834   5.819  -1.667  0.00  0.00    -0.648 OA
ATOM     24  O3  <0> d          -0.634   6.592  -0.208  0.00  0.00    -0.648 OA
ENDBRANCH   6  22
TORSDOF 3
