REMARK  3 active torsions:
REMARK  status: ('A' for Active; 'I' for Inactive)
REMARK    1  A    between atoms: C3_3  and  O1_7 
REMARK    2  A    between atoms: O1_7  and  C6_8 
REMARK    3  A    between atoms: C6_8  and  C7_9 
REMARK       I    between atoms: C7_9  and  N2_11 
ROOT
ATOM      1  C1  <0> d          -0.013   1.076   0.008  0.00  0.00    -0.063 A 
ATOM      2  C2  <0> d          -1.217   1.760   0.017  0.00  0.00    -0.048 A 
ATOM      3  C3  <0> d          -1.187   3.151   0.029  0.00  0.00     0.086 A 
ATOM      4  C4  <0> d           0.040   3.799   0.022  0.00  0.00     0.034 A 
ATOM      5  N1  <0> d           1.164   3.110   0.008  0.00  0.00    -0.270 NA
ATOM      6  C5  <0> d           1.170   1.791   0.001  0.00  0.00     0.002 A 
ATOM      7  H1  <0> d           0.002  -0.004   0.002  0.00  0.00     0.085 H 
ATOM      8  H2  <0> d          -2.157   1.227   0.019  0.00  0.00     0.087 H 
ATOM      9  H3  <0> d           0.075   4.878   0.027  0.00  0.00     0.119 H 
ATOM     10  H4  <0> d           2.112   1.263  -0.011  0.00  0.00     0.114 H 
ENDROOT
BRANCH   3  11
ATOM     11  O1  <0> d          -2.344   3.865   0.043  0.00  0.00    -0.341 OA
BRANCH  11  12
ATOM     12  C6  <0> d          -2.226   5.290   0.050  0.00  0.00     0.099 C 
ATOM     13  H5  <0> d          -1.676   5.605   0.936  0.00  0.00     0.089 H 
ATOM     14  H6  <0> d          -1.692   5.614  -0.844  0.00  0.00     0.089 H 
BRANCH  12  15
ATOM     15  C7  <0> d          -3.601   5.907   0.065  0.00  0.00     0.239 C 
ATOM     16  O2  <0> d          -4.584   5.197   0.070  0.00  0.00    -0.271 OA
ATOM     17  N2  <0> d          -3.737   7.248   0.073  0.00  0.00    -0.368 N 
ATOM     18  H7  <0> d          -2.951   7.815   0.069  0.00  0.00     0.159 HD
ATOM     19  H8  <0> d          -4.622   7.645   0.083  0.00  0.00     0.159 HD
ENDBRANCH  12  15
ENDBRANCH  11  12
ENDBRANCH   3  11
TORSDOF 3
