REMARK  4 active torsions:
REMARK  status: ('A' for Active; 'I' for Inactive)
REMARK    1  A    between atoms: C1_1  and  C2_2 
REMARK    2  A    between atoms: C3_4  and  C4_7 
REMARK    3  A    between atoms: C4_7  and  C5_9 
REMARK    4  A    between atoms: C4_7  and  O2_10 
ROOT
ATOM      1  C2  <0> d           0.002  -0.004   0.002  0.00  0.00     0.152 A 
ATOM      2  N1  <0> d           0.008  -0.776  -1.091  0.00  0.00    -0.207 NA
ATOM      3  C3  <0> d           0.026  -2.034  -0.750  0.00  0.00     0.201 A 
ATOM      4  O1  <0> d           0.033  -2.107   0.587  0.00  0.00    -0.193 OA
ATOM      5  N2  <0> d           0.023  -0.767   1.057  0.00  0.00    -0.111 NA
ENDROOT
BRANCH   3   6
ATOM      6  C4  <0> d           0.038  -3.206  -1.697  0.00  0.00     0.098 C 
ATOM      7  H1  <0> d           0.295  -2.861  -2.699  0.00  0.00     0.095 H 
BRANCH   6   8
ATOM      8  C5  <0> d          -1.347  -3.856  -1.721  0.00  0.00    -0.045 C 
ATOM      9  H5  <0> d          -1.604  -4.202  -0.720  0.00  0.00     0.031 H 
ATOM     10  H6  <0> d          -2.085  -3.127  -2.055  0.00  0.00     0.031 H 
ATOM     11  H7  <0> d          -1.339  -4.704  -2.407  0.00  0.00     0.031 H 
ENDBRANCH   6   8
BRANCH   6  12
ATOM     12  O2  <0> d           1.006  -4.163  -1.260  0.00  0.00    -0.388 OA
ATOM     13  H8  <0> d           1.068  -4.945  -1.825  0.00  0.00     0.210 HD
ENDBRANCH   6  12
ENDBRANCH   3   6
BRANCH   1  14
ATOM     14  C1  <0> d          -0.018   1.503   0.010  0.00  0.00    -0.017 C 
ATOM     15  H2  <0> d           1.004   1.880   0.003  0.00  0.00     0.038 H 
ATOM     16  H3  <0> d          -0.545   1.864  -0.873  0.00  0.00     0.038 H 
ATOM     17  H4  <0> d          -0.529   1.854   0.907  0.00  0.00     0.038 H 
ENDBRANCH   1  14
TORSDOF 4
