REMARK  4 active torsions:
REMARK  status: ('A' for Active; 'I' for Inactive)
REMARK    1  A    between atoms: C1_1  and  C2_2 
REMARK    2  A    between atoms: C2_2  and  O1_3 
REMARK    3  A    between atoms: O1_3  and  C3_4 
REMARK    4  A    between atoms: C3_4  and  C4_6 
ROOT
ATOM      1  C4  <0> d          -2.881  -2.427   0.017  0.00  0.00     0.065 A 
ATOM      2  H1  <0> d          -3.638  -1.863  -0.529  0.00  0.00     0.060 H 
ATOM      3  C5  <0> d          -2.993  -3.953   0.006  0.00  0.00     0.005 A 
ATOM      4  H2  <0> d          -2.094  -4.561  -0.088  0.00  0.00     0.051 H 
ATOM      5  C6  <0> d          -3.325  -3.159   1.284  0.00  0.00     0.064 A 
ATOM      6  H3  <0> d          -2.668  -3.171   2.155  0.00  0.00     0.086 H 
ATOM      7  O3  <0> d          -4.723  -3.400   1.488  0.00  0.00    -0.356 OA
ATOM      8  C7  <0> d          -5.208  -4.202   0.523  0.00  0.00     0.010 A 
ATOM      9  C8  <0> d          -4.315  -4.577  -0.391  0.00  0.00    -0.075 A 
ATOM     10  H9  <0> d          -6.242  -4.513   0.485  0.00  0.00     0.122 H 
ATOM     11  H10 <0> d          -4.484  -5.219  -1.243  0.00  0.00     0.080 H 
ENDROOT
BRANCH   1  12
ATOM     12  C3  <0> d          -1.496  -1.832   0.006  0.00  0.00     0.266 C 
ATOM     13  O2  <0> d          -0.528  -2.555  -0.007  0.00  0.00    -0.265 OA
BRANCH  12  14
ATOM     14  O1  <0> d          -1.339  -0.499   0.012  0.00  0.00    -0.321 OA
BRANCH  14  15
ATOM     15  C2  <0> d           0.002  -0.004   0.002  0.00  0.00     0.025 C 
ATOM     16  H7  <0> d           0.512  -0.356  -0.895  0.00  0.00     0.074 H 
ATOM     17  H8  <0> d           0.529  -0.365   0.885  0.00  0.00     0.074 H 
BRANCH  15  18
ATOM     18  C1  <0> d          -0.019   1.526   0.010  0.00  0.00    -0.056 C 
ATOM     19  H4  <0> d           1.004   1.903   0.003  0.00  0.00     0.030 H 
ATOM     20  H5  <0> d          -0.546   1.887  -0.873  0.00  0.00     0.030 H 
ATOM     21  H6  <0> d          -0.529   1.877   0.907  0.00  0.00     0.030 H 
ENDBRANCH  15  18
ENDBRANCH  14  15
ENDBRANCH  12  14
ENDBRANCH   1  12
TORSDOF 4
