REMARK  0 active torsions:
REMARK  status: ('A' for Active; 'I' for Inactive)
ROOT
ATOM      1  C1  <0> d          -0.019   1.555   0.011  0.00  0.00    -0.060 C 
ATOM      2  C2  <0> d           1.471   1.966  -0.001  0.00  0.00    -0.045 C 
ATOM      3  C3  <0> d           2.252   0.617  -0.016  0.00  0.00     0.037 C 
ATOM      4  C4  <0> d           2.020   0.016   1.404  0.00  0.00    -0.045 C 
ATOM      5  C5  <0> d           0.530  -0.395   1.416  0.00  0.00    -0.060 C 
ATOM      6  C6  <0> d           0.002  -0.004   0.002  0.00  0.00    -0.052 C 
ATOM      7  C7  <0> d           1.280  -0.272  -0.869  0.00  0.00    -0.042 C 
ATOM      8 Cl1  <0> d           3.961   0.701  -0.586  0.00  0.00    -0.119 Cl
ATOM      9  H1  <0> d          -0.508   1.923   0.913  0.00  0.00     0.033 H 
ATOM     10  H2  <0> d          -0.525   1.933  -0.878  0.00  0.00     0.033 H 
ATOM     11  H3  <0> d           1.698   2.546  -0.896  0.00  0.00     0.035 H 
ATOM     12  H4  <0> d           1.715   2.537   0.895  0.00  0.00     0.035 H 
ATOM     13  H5  <0> d           2.656  -0.856   1.556  0.00  0.00     0.035 H 
ATOM     14  H6  <0> d           2.214   0.767   2.170  0.00  0.00     0.035 H 
ATOM     15  H7  <0> d           0.434  -1.469   1.574  0.00  0.00     0.033 H 
ATOM     16  H8  <0> d          -0.009   0.153   2.188  0.00  0.00     0.033 H 
ATOM     17  H9  <0> d          -0.920  -0.491  -0.314  0.00  0.00     0.040 H 
ATOM     18  H10 <0> d           1.168   0.105  -1.886  0.00  0.00     0.036 H 
ATOM     19  H11 <0> d           1.570  -1.323  -0.857  0.00  0.00     0.036 H 
ENDROOT
TORSDOF 0
