REMARK  2 active torsions:
REMARK  status: ('A' for Active; 'I' for Inactive)
REMARK    1  A    between atoms: C1_1  and  C2_2 
REMARK    2  A    between atoms: C2_2  and  C3_3 
ROOT
ATOM      1  C3  <0> d          -2.879   1.642   0.078  0.00  0.00     0.030 C 
ATOM      2  H1  <0> d          -2.975   2.726   0.011  0.00  0.00     0.055 H 
ATOM      3  C4  <0> d          -2.206   1.103  -1.190  0.00  0.00    -0.051 C 
ATOM      4  C5  <0> d          -0.756   1.594  -1.231  0.00  0.00    -0.044 C 
ATOM      5  C6  <0> d          -0.013   1.086   0.008  0.00  0.00     0.029 C 
ATOM      6  O1  <0> d          -0.696   1.556   1.204  0.00  0.00    -0.321 OA
ATOM      7  C7  <0> d          -2.017   1.280   1.267  0.00  0.00     0.263 C 
ATOM      8  O2  <0> d          -2.495   0.758   2.246  0.00  0.00    -0.265 OA
ATOM      9  H7  <0> d          -2.739   1.467  -2.068  0.00  0.00     0.034 H 
ATOM     10  H8  <0> d          -2.222   0.013  -1.178  0.00  0.00     0.034 H 
ATOM     11  H9  <0> d          -0.741   2.684  -1.242  0.00  0.00     0.036 H 
ATOM     12  H10 <0> d          -0.268   1.215  -2.128  0.00  0.00     0.036 H 
ATOM     13  H11 <0> d           0.002  -0.004   0.002  0.00  0.00     0.075 H 
ATOM     14  H12 <0> d           1.010   1.464   0.000  0.00  0.00     0.075 H 
ENDROOT
BRANCH   1  15
ATOM     15  C2  <0> d          -4.264   1.011   0.235  0.00  0.00    -0.057 C 
ATOM     16  H5  <0> d          -4.846   1.183  -0.670  0.00  0.00     0.033 H 
ATOM     17  H6  <0> d          -4.158  -0.061   0.400  0.00  0.00     0.033 H 
BRANCH  15  18
ATOM     18  C1  <0> d          -4.981   1.643   1.430  0.00  0.00    -0.076 C 
ATOM     19  H2  <0> d          -5.087   2.715   1.264  0.00  0.00     0.027 H 
ATOM     20  H3  <0> d          -5.967   1.192   1.541  0.00  0.00     0.027 H 
ATOM     21  H4  <0> d          -4.398   1.470   2.335  0.00  0.00     0.027 H 
ENDBRANCH  15  18
ENDBRANCH   1  15
TORSDOF 2
