REMARK  5 active torsions:
REMARK  status: ('A' for Active; 'I' for Inactive)
REMARK    1  A    between atoms: C1_1  and  C2_2 
REMARK    2  A    between atoms: C2_2  and  C3_3 
REMARK    3  A    between atoms: C3_3  and  C4_4 
REMARK    4  A    between atoms: C4_4  and  O1_5 
REMARK    5  A    between atoms: O1_5  and  C5_6 
ROOT
ATOM      1  C4  <0> d          -0.735   2.019   1.269  0.00  0.00     0.023 C 
ATOM      2  H9  <0> d          -1.757   1.642   1.277  0.00  0.00     0.074 H 
ATOM      3  H10 <0> d          -0.208   1.658   2.152  0.00  0.00     0.074 H 
ENDROOT
BRANCH   1   4
ATOM      4  C3  <0> d          -0.019   1.526   0.010  0.00  0.00    -0.045 C 
ATOM      5  H7  <0> d           1.004   1.903   0.003  0.00  0.00     0.036 H 
ATOM      6  H8  <0> d          -0.546   1.887  -0.873  0.00  0.00     0.036 H 
BRANCH   4   7
ATOM      7  C2  <0> d           0.002  -0.004   0.002  0.00  0.00    -0.067 C 
ATOM      8  H5  <0> d           0.529  -0.365   0.885  0.00  0.00     0.032 H 
ATOM      9  H6  <0> d          -1.020  -0.381   0.010  0.00  0.00     0.032 H 
BRANCH   7  10
ATOM     10  C1  <0> d           0.718  -0.497  -1.257  0.00  0.00    -0.076 C 
ATOM     11  H2  <0> d           0.191  -0.136  -2.140  0.00  0.00     0.027 H 
ATOM     12  H3  <0> d           1.741  -0.120  -1.264  0.00  0.00     0.027 H 
ATOM     13  H4  <0> d           0.733  -1.587  -1.263  0.00  0.00     0.027 H 
ENDBRANCH   7  10
ENDBRANCH   4   7
ENDBRANCH   1   4
BRANCH   1  14
ATOM     14  O1  <0> d          -0.754   3.448   1.277  0.00  0.00    -0.361 OA
BRANCH  14  15
ATOM     15  C5  <0> d          -1.404   4.014   2.417  0.00  0.00     0.131 C 
ATOM     16  H1  <0> d          -2.364   3.526   2.587  0.00  0.00     0.129 H 
ATOM     17  O2  <0> d          -0.563   3.896   3.585  0.00  0.00    -0.361 OA
ATOM     18  C8  <0> d          -1.054   4.891   4.509  0.00  0.00     0.023 C 
ATOM     19  C7  <0> d          -1.364   6.125   3.633  0.00  0.00    -0.041 C 
ATOM     20  H15 <0> d          -0.289   5.133   5.247  0.00  0.00     0.074 H 
ATOM     21  H16 <0> d          -1.959   4.538   5.002  0.00  0.00     0.074 H 
ATOM     22  C6  <0> d          -1.600   5.534   2.224  0.00  0.00    -0.017 C 
ATOM     23  H13 <0> d          -0.516   6.809   3.623  0.00  0.00     0.036 H 
ATOM     24  H14 <0> d          -2.261   6.631   3.990  0.00  0.00     0.036 H 
ATOM     25  H11 <0> d          -0.868   5.927   1.518  0.00  0.00     0.040 H 
ATOM     26  H12 <0> d          -2.612   5.749   1.883  0.00  0.00     0.040 H 
ENDBRANCH  14  15
ENDBRANCH   1  14
TORSDOF 5
