REMARK  4 active torsions:
REMARK  status: ('A' for Active; 'I' for Inactive)
REMARK    1  A    between atoms: C1_1  and  C2_2 
REMARK    2  A    between atoms: C3_4  and  N4_10 
REMARK    3  A    between atoms: C4_6  and  S1_8 
REMARK    4  A    between atoms: S1_8  and  C5_9 
ROOT
ATOM      1  C2  <0> d           0.002  -0.004   0.002  0.00  0.00     0.144 A 
ATOM      2  N1  <0> d           0.022  -0.669   1.144  0.00  0.00    -0.048 NA
ATOM      3  C3  <0> d           0.040  -2.000   1.141  0.00  0.00     0.724 A 
ATOM      4  N2  <0> d           0.038  -2.660  -0.011  0.00  0.00    -0.036 NA
ATOM      5  C4  <0> d           0.018  -1.988  -1.158  0.00  0.00     0.208 A 
ATOM      6  N3  <0> d          -0.005  -0.657  -1.147  0.00  0.00    -0.207 NA
ENDROOT
BRANCH   5   7
ATOM      7  S1  <0> d           0.015  -2.858  -2.691  0.00  0.00    -0.094 SA
BRANCH   7   8
ATOM      8  C5  <0> d           0.044  -4.563  -2.085  0.00  0.00    -0.027 C 
ATOM      9  H4  <0> d           0.942  -4.721  -1.487  0.00  0.00     0.042 H 
ATOM     10  H5  <0> d          -0.837  -4.745  -1.470  0.00  0.00     0.042 H 
ATOM     11  H6  <0> d           0.046  -5.250  -2.931  0.00  0.00     0.042 H 
ENDBRANCH   7   8
ENDBRANCH   5   7
BRANCH   3  12
ATOM     12  N4  <0> d           0.060  -2.693   2.334  0.00  0.00    -0.231 N 
ATOM     13  H7  <0> d           0.061  -2.211   3.176  0.00  0.00     0.174 HD
ATOM     14  H8  <0> d           0.073  -3.663   2.332  0.00  0.00     0.174 HD
ENDBRANCH   3  12
BRANCH   1  15
ATOM     15  C1  <0> d          -0.018   1.503   0.010  0.00  0.00    -0.019 C 
ATOM     16  H1  <0> d           1.004   1.880   0.003  0.00  0.00     0.037 H 
ATOM     17  H2  <0> d          -0.545   1.864  -0.873  0.00  0.00     0.037 H 
ATOM     18  H3  <0> d          -0.529   1.854   0.907  0.00  0.00     0.037 H 
ENDBRANCH   1  15
TORSDOF 4
