REMARK  2 active torsions:
REMARK  status: ('A' for Active; 'I' for Inactive)
REMARK    1  A    between atoms: C1_1  and  C2_2 
REMARK    2  A    between atoms: C9_9  and  O1_12 
ROOT
ATOM      1  C2  <0> d           5.035   3.315  -2.253  0.00  0.00    -0.061 A 
ATOM      2  C3  <0> d           5.625   3.576  -1.017  0.00  0.00    -0.075 A 
ATOM      3  C4  <0> d           4.986   3.270   0.144  0.00  0.00    -0.054 A 
ATOM      4  C5  <0> d           3.710   2.680   0.105  0.00  0.00     0.067 A 
ATOM      5  C6  <0> d           3.112   2.416  -1.152  0.00  0.00    -0.004 A 
ATOM      6  C7  <0> d           3.800   2.746  -2.331  0.00  0.00    -0.065 A 
ATOM      7  C8  <0> d           1.835   1.827  -1.191  0.00  0.00    -0.037 A 
ATOM      8  C9  <0> d           1.223   1.532  -0.001  0.00  0.00     0.084 A 
ATOM      9  C10 <0> d           1.868   1.825   1.204  0.00  0.00     0.035 A 
ATOM     10  N1  <0> d           3.060   2.370   1.231  0.00  0.00    -0.258 NA
ATOM     11  H4  <0> d           6.604   4.028  -0.982  0.00  0.00     0.084 H 
ATOM     12  H5  <0> d           5.458   3.478   1.093  0.00  0.00     0.087 H 
ATOM     13  H6  <0> d           3.354   2.549  -3.295  0.00  0.00     0.085 H 
ATOM     14  H7  <0> d           1.352   1.612  -2.133  0.00  0.00     0.089 H 
ATOM     15  H8  <0> d           1.374   1.593   2.135  0.00  0.00     0.119 H 
ENDROOT
BRANCH   1  16
ATOM     16  C1  <0> d           5.773   3.667  -3.518  0.00  0.00    -0.051 C 
ATOM     17  H1  <0> d           6.382   2.820  -3.832  0.00  0.00     0.033 H 
ATOM     18  H2  <0> d           5.055   3.909  -4.302  0.00  0.00     0.033 H 
ATOM     19  H3  <0> d           6.416   4.529  -3.336  0.00  0.00     0.033 H 
ENDBRANCH   1  16
BRANCH   8  20
ATOM     20  O1  <0> d          -0.011   0.963   0.007  0.00  0.00    -0.359 OA
ATOM     21  H9  <0> d           0.002  -0.004   0.002  0.00  0.00     0.217 HD
ENDBRANCH   8  20
TORSDOF 2
