REMARK  1 active torsions:
REMARK  status: ('A' for Active; 'I' for Inactive)
REMARK    1  A    between atoms: C1_1  and  C3_9 
ROOT
ATOM      1  C1  <0> d          -0.722   1.881   1.250  0.00  0.00     0.235 A 
ATOM      2  N1  <0> d          -0.923   3.196   1.591  0.00  0.00    -0.286 N 
ATOM      3  H1  <0> d          -0.635   3.966   1.077  0.00  0.00     0.172 HD
ATOM      4  C2  <0> d          -1.591   3.233   2.762  0.00  0.00     0.342 A 
ATOM      5  O1  <0> d          -1.940   4.234   3.362  0.00  0.00    -0.245 OA
ATOM      6  N2  <0> d          -1.796   1.956   3.150  0.00  0.00    -0.227 N 
ATOM      7  H2  <0> d          -2.248   1.667   3.957  0.00  0.00     0.194 HD
ATOM      8  N3  <0> d          -1.233   1.128   2.169  0.00  0.00    -0.147 NA
ENDROOT
BRANCH   1   9
ATOM      9  C3  <0> d          -0.017   1.395   0.010  0.00  0.00     0.453 C 
ATOM     10  F1  <0> d           0.002  -0.004   0.002  0.00  0.00    -0.163 F 
ATOM     11  F2  <0> d           1.296   1.879  -0.000  0.00  0.00    -0.163 F 
ATOM     12  F3  <0> d          -0.694   1.858  -1.124  0.00  0.00    -0.163 F 
ENDBRANCH   1   9
TORSDOF 1
