REMARK  2 active torsions:
REMARK  status: ('A' for Active; 'I' for Inactive)
REMARK    1  A    between atoms: C1_1  and  C2_2 
REMARK    2  A    between atoms: C6_6  and  C8_9 
ROOT
ATOM      1  C2  <0> d           0.002  -0.004   0.002  0.00  0.00    -0.023 A 
ATOM      2  C3  <0> d           0.006  -0.689  -1.198  0.00  0.00    -0.074 A 
ATOM      3  C4  <0> d           0.025  -2.071  -1.206  0.00  0.00    -0.082 A 
ATOM      4  C5  <0> d           0.040  -2.770  -0.014  0.00  0.00    -0.074 A 
ATOM      5  C6  <0> d           0.036  -2.087   1.188  0.00  0.00    -0.023 A 
ATOM      6  C7  <0> d           0.023  -0.703   1.197  0.00  0.00     0.128 A 
ATOM      7  F1  <0> d           0.025  -0.035   2.371  0.00  0.00    -0.205 F 
ATOM      8  H4  <0> d          -0.007  -0.144  -2.131  0.00  0.00     0.084 H 
ATOM      9  H5  <0> d           0.028  -2.605  -2.145  0.00  0.00     0.083 H 
ATOM     10  H6  <0> d           0.054  -3.850  -0.021  0.00  0.00     0.084 H 
ENDROOT
BRANCH   1  11
ATOM     11  C1  <0> d          -0.018   1.503   0.010  0.00  0.00    -0.048 C 
ATOM     12  H1  <0> d           1.004   1.880   0.003  0.00  0.00     0.033 H 
ATOM     13  H2  <0> d          -0.545   1.864  -0.873  0.00  0.00     0.033 H 
ATOM     14  H3  <0> d          -0.529   1.854   0.907  0.00  0.00     0.033 H 
ENDBRANCH   1  11
BRANCH   5  15
ATOM     15  C8  <0> d           0.052  -2.850   2.488  0.00  0.00    -0.048 C 
ATOM     16  H7  <0> d           1.084  -3.020   2.797  0.00  0.00     0.033 H 
ATOM     17  H8  <0> d          -0.466  -2.273   3.254  0.00  0.00     0.033 H 
ATOM     18  H9  <0> d          -0.450  -3.808   2.353  0.00  0.00     0.033 H 
ENDBRANCH   5  15
TORSDOF 2
