REMARK  6 active torsions:
REMARK  status: ('A' for Active; 'I' for Inactive)
REMARK    1  A    between atoms: C1_1  and  C2_2 
REMARK    2  A    between atoms: C2_2  and  C3_3 
REMARK    3  A    between atoms: C2_2  and  O1_4 
REMARK    4  A    between atoms: O1_4  and  C4_5 
REMARK    5  A    between atoms: C4_5  and  C5_6 
REMARK    6  A    between atoms: C5_6  and  C6_7 
ROOT
ATOM      1  C2  <0> d          -4.870   0.772   0.029  0.00  0.00     0.031 C 
ATOM      2  H4  <0> d          -4.631  -0.156  -0.491  0.00  0.00     0.082 H 
ENDROOT
BRANCH   1   3
ATOM      3  C1  <0> d          -5.272   0.459   1.472  0.00  0.00    -0.052 C 
ATOM      4  H1  <0> d          -5.511   1.386   1.992  0.00  0.00     0.030 H 
ATOM      5  H2  <0> d          -6.145  -0.194   1.473  0.00  0.00     0.030 H 
ATOM      6  H3  <0> d          -4.446  -0.039   1.979  0.00  0.00     0.030 H 
ENDBRANCH   1   3
BRANCH   1   7
ATOM      7  C3  <0> d          -6.030   1.471  -0.683  0.00  0.00    -0.052 C 
ATOM      8  H5  <0> d          -5.744   1.694  -1.710  0.00  0.00     0.030 H 
ATOM      9  H6  <0> d          -6.903   0.818  -0.682  0.00  0.00     0.030 H 
ATOM     10  H7  <0> d          -6.270   2.398  -0.163  0.00  0.00     0.030 H 
ENDBRANCH   1   7
BRANCH   1  11
ATOM     11  O1  <0> d          -3.726   1.627   0.029  0.00  0.00    -0.386 OA
BRANCH  11  12
ATOM     12  C4  <0> d          -2.479   0.930   0.019  0.00  0.00     0.029 C 
ATOM     13  H8  <0> d          -2.417   0.309  -0.875  0.00  0.00     0.075 H 
ATOM     14  H9  <0> d          -2.408   0.299   0.905  0.00  0.00     0.075 H 
BRANCH  12  15
ATOM     15  C5  <0> d          -1.329   1.940   0.019  0.00  0.00     0.035 C 
ATOM     16  H10 <0> d          -1.391   2.561   0.913  0.00  0.00     0.052 H 
ATOM     17  H11 <0> d          -1.400   2.570  -0.867  0.00  0.00     0.052 H 
BRANCH  15  18
ATOM     18  C6  <0> d          -0.014   1.204   0.009  0.00  0.00     0.174 C 
ATOM     19  O2  <0> d           0.002  -0.004   0.002  0.00  0.00    -0.648 OA
ATOM     20  O3  <0> d           1.139   1.891   0.001  0.00  0.00    -0.648 OA
ENDBRANCH  15  18
ENDBRANCH  12  15
ENDBRANCH  11  12
ENDBRANCH   1  11
TORSDOF 6
