REMARK  5 active torsions:
REMARK  status: ('A' for Active; 'I' for Inactive)
REMARK    1  A    between atoms: C1_1  and  C2_2 
REMARK    2  A    between atoms: C2_2  and  C3_4 
REMARK    3  A    between atoms: C2_2  and  O4_9 
REMARK    4  A    between atoms: C3_4  and  O1_5 
REMARK    5  A    between atoms: O1_5  and  C4_6 
ROOT
ATOM      1  C2  <0> d          -0.729   1.579   1.267  0.00  0.00     0.053 C 
ATOM      2  H1  <0> d          -0.892   2.666   1.232  0.00  0.00     0.085 H 
ENDROOT
BRANCH   1   3
ATOM      3  C1  <0> d           0.079   1.179   2.503  0.00  0.00    -0.050 C 
ATOM      4  H2  <0> d          -0.436   1.533   3.408  0.00  0.00     0.031 H 
ATOM      5  H3  <0> d           1.080   1.631   2.450  0.00  0.00     0.031 H 
ATOM      6  H4  <0> d           0.173   0.083   2.540  0.00  0.00     0.031 H 
ENDBRANCH   1   3
BRANCH   1   7
ATOM      7  C3  <0> d          -0.013   1.086   0.008  0.00  0.00     0.055 C 
ATOM      8  H5  <0> d           1.019   1.467   0.000  0.00  0.00     0.079 H 
ATOM      9  H6  <0> d           0.002  -0.014   0.002  0.00  0.00     0.079 H 
BRANCH   7  10
ATOM     10  O1  <0> d          -0.715   1.567  -1.168  0.00  0.00    -0.293 OA
BRANCH  10  11
ATOM     11  C4  <0> d          -0.210   1.219  -2.366  0.00  0.00     0.332 C 
ATOM     12  O2  <0> d           0.789   0.532  -2.427  0.00  0.00    -0.624 OA
ATOM     13  O3  <0> d          -0.813   1.631  -3.495  0.00  0.00    -0.624 OA
ENDBRANCH  10  11
ENDBRANCH   7  10
ENDBRANCH   1   7
BRANCH   1  14
ATOM     14  O4  <0> d          -2.030   0.991   1.336  0.00  0.00    -0.394 OA
ATOM     15  H7  <0> d          -2.757   1.168   0.530  0.00  0.00     0.210 HD
ENDBRANCH   1  14
TORSDOF 5
