REMARK  3 active torsions:
REMARK  status: ('A' for Active; 'I' for Inactive)
REMARK    1  A    between atoms: C1_1  and  O1_2 
REMARK    2  A    between atoms: O1_2  and  C2_3 
REMARK    3  A    between atoms: C4_6  and  C6_9 
ROOT
ATOM      1  C2  <0> d          -0.151   1.184   2.374  0.00  0.00     0.267 A 
ATOM      2  N1  <0> d           0.938   0.429   2.389  0.00  0.00    -0.218 NA
ATOM      3  C3  <0> d           1.490   0.058   3.529  0.00  0.00     0.024 A 
ATOM      4  C4  <0> d           0.900   0.465   4.734  0.00  0.00     0.076 A 
ATOM      5  C5  <0> d          -0.254   1.257   4.672  0.00  0.00     0.024 A 
ATOM      6  N2  <0> d          -0.739   1.589   3.490  0.00  0.00    -0.218 NA
ATOM      7  H4  <0> d           2.380  -0.553   3.534  0.00  0.00     0.116 H 
ATOM      8  H5  <0> d          -0.739   1.591   5.577  0.00  0.00     0.116 H 
ENDROOT
BRANCH   1   9
ATOM      9  O1  <0> d          -0.682   1.547   1.184  0.00  0.00    -0.324 OA
BRANCH   9  10
ATOM     10  C1  <0> d          -0.013   1.086   0.008  0.00  0.00     0.013 C 
ATOM     11  H1  <0> d           0.002  -0.004   0.002  0.00  0.00     0.067 H 
ATOM     12  H2  <0> d           1.010   1.463   0.000  0.00  0.00     0.067 H 
ATOM     13  H3  <0> d          -0.540   1.447  -0.875  0.00  0.00     0.067 H 
ENDBRANCH   9  10
ENDBRANCH   1   9
BRANCH   4  14
ATOM     14  C6  <0> d           1.478   0.069   6.031  0.00  0.00     0.212 C 
ATOM     15  O2  <0> d           0.953   0.430   7.066  0.00  0.00    -0.644 OA
ATOM     16  O3  <0> d           2.588  -0.694   6.070  0.00  0.00    -0.644 OA
ENDBRANCH   4  14
TORSDOF 3
