REMARK  2 active torsions:
REMARK  status: ('A' for Active; 'I' for Inactive)
REMARK    1  A    between atoms: C1_1  and  C2_2 
REMARK    2  A    between atoms: C2_2  and  C3_4 
ROOT
ATOM      1  C3  <0> d          -0.017   1.396   0.010  0.00  0.00     0.048 A 
ATOM      2  C4  <0> d           0.002  -0.004   0.002  0.00  0.00    -0.064 A 
ATOM      3  C5  <0> d           1.205  -0.673  -0.013  0.00  0.00    -0.045 A 
ATOM      4  C6  <0> d           2.399   0.035  -0.021  0.00  0.00     0.119 A 
ATOM      5  C7  <0> d           2.391   1.420  -0.013  0.00  0.00    -0.007 A 
ATOM      6  C8  <0> d           1.192   2.107   0.002  0.00  0.00     0.133 A 
ATOM      7  F1  <0> d           1.184   3.458   0.009  0.00  0.00    -0.205 F 
ATOM      8  F2  <0> d           3.575  -0.630  -0.035  0.00  0.00    -0.206 F 
ATOM      9  H4  <0> d          -0.925  -0.558   0.007  0.00  0.00     0.085 H 
ATOM     10  H5  <0> d           1.219  -1.753  -0.019  0.00  0.00     0.088 H 
ATOM     11  H6  <0> d           3.323   1.965  -0.019  0.00  0.00     0.093 H 
ENDROOT
BRANCH   1  12
ATOM     12  C2  <0> d          -1.296   2.117   0.020  0.00  0.00     0.158 C 
ATOM     13  O1  <0> d          -1.309   3.330   0.026  0.00  0.00    -0.293 OA
BRANCH  12  14
ATOM     14  C1  <0> d          -2.593   1.349   0.022  0.00  0.00    -0.016 C 
ATOM     15  H1  <0> d          -2.636   0.769   0.835  0.00  0.00     0.038 H 
ATOM     16  H2  <0> d          -3.429   2.049   0.029  0.00  0.00     0.038 H 
ATOM     17  H3  <0> d          -2.648   0.727  -0.871  0.00  0.00     0.038 H 
ENDBRANCH  12  14
ENDBRANCH   1  12
TORSDOF 2
