REMARK  1 active torsions:
REMARK  status: ('A' for Active; 'I' for Inactive)
REMARK    1  A    between atoms: C3_3  and  N2_8 
ROOT
ATOM      1  C1  <0> d          -0.017   1.386   0.010  0.00  0.00    -0.041 A 
ATOM      2  C2  <0> d           1.190   2.062   0.002  0.00  0.00    -0.036 A 
ATOM      3  C3  <0> d           2.374   1.333  -0.013  0.00  0.00     0.120 A 
ATOM      4  N1  <0> d           2.352   0.010  -0.020  0.00  0.00    -0.241 NA
ATOM      5  C4  <0> d           1.217  -0.664  -0.013  0.00  0.00     0.042 A 
ATOM      6  C5  <0> d           0.002  -0.004   0.002  0.00  0.00     0.134 A 
ATOM      7  F1  <0> d          -1.154  -0.703   0.010  0.00  0.00    -0.205 F 
ATOM      8  H1  <0> d          -0.952   1.925   0.017  0.00  0.00     0.088 H 
ATOM      9  H2  <0> d           1.212   3.142   0.007  0.00  0.00     0.089 H 
ATOM     10  H3  <0> d           1.238  -1.744  -0.019  0.00  0.00     0.119 H 
ENDROOT
BRANCH   3  11
ATOM     11  N2  <0> d           3.595   2.002  -0.021  0.00  0.00    -0.384 N 
ATOM     12  H4  <0> d           4.535   1.430  -0.032  0.00  0.00     0.157 HD
ATOM     13  H5  <0> d           3.619   3.101  -0.015  0.00  0.00     0.157 HD
ENDBRANCH   3  11
TORSDOF 1
