REMARK  4 active torsions:
REMARK  status: ('A' for Active; 'I' for Inactive)
REMARK    1  A    between atoms: C1_1  and  C2_2 
REMARK    2  A    between atoms: C2_2  and  C3_3 
REMARK    3  A    between atoms: C3_3  and  C4_4 
REMARK    4  A    between atoms: C4_4  and  N1_5 
ROOT
ATOM      1  C4  <0> d           1.411   4.389   0.012  0.00  0.00     0.002 C 
ATOM      2  H8  <0> d           2.429   4.152   0.356  0.00  0.00     0.065 H 
ATOM      3  H9  <0> d           0.960   5.131   0.687  0.00  0.00     0.065 H 
ENDROOT
BRANCH   1   4
ATOM      4  C3  <0> d           1.472   4.960  -1.406  0.00  0.00    -0.050 C 
ATOM      5  H6  <0> d           0.454   5.197  -1.750  0.00  0.00     0.035 H 
ATOM      6  H7  <0> d           1.923   4.218  -2.081  0.00  0.00     0.035 H 
BRANCH   4   7
ATOM      7  C2  <0> d           2.320   6.233  -1.407  0.00  0.00    -0.067 C 
ATOM      8  H4  <0> d           3.338   5.996  -1.064  0.00  0.00     0.032 H 
ATOM      9  H5  <0> d           1.869   6.975  -0.732  0.00  0.00     0.032 H 
BRANCH   7  10
ATOM     10  C1  <0> d           2.381   6.804  -2.825  0.00  0.00    -0.076 C 
ATOM     11  H1  <0> d           2.991   7.719  -2.826  0.00  0.00     0.027 H 
ATOM     12  H2  <0> d           1.363   7.041  -3.169  0.00  0.00     0.027 H 
ATOM     13  H3  <0> d           2.833   6.062  -3.500  0.00  0.00     0.027 H 
ENDBRANCH   7  10
ENDBRANCH   4   7
ENDBRANCH   1   4
BRANCH   1  14
ATOM     14  N1  <0> d           0.599   3.170   0.013  0.00  0.00    -0.331 N 
ATOM     15  C7  <0> d          -0.750   3.105   0.026  0.00  0.00     0.203 A 
ATOM     16  N2  <0> d          -1.109   1.849   0.017  0.00  0.00    -0.231 NA
ATOM     17 Cl1  <0> d          -1.829   4.466   0.044  0.00  0.00    -0.043 Cl
ATOM     18  C6  <0> d          -0.013   1.076   0.008  0.00  0.00     0.020 A 
ATOM     19  C5  <0> d           1.066   1.881   0.002  0.00  0.00    -0.001 A 
ATOM     20  H11 <0> d           0.002  -0.004   0.002  0.00  0.00     0.117 H 
ATOM     21  H10 <0> d           2.100   1.572  -0.010  0.00  0.00     0.113 H 
ENDBRANCH   1  14
TORSDOF 4
