REMARK  8 active torsions:
REMARK  status: ('A' for Active; 'I' for Inactive)
REMARK    1  A    between atoms: C1_1  and  C2_2 
REMARK    2  A    between atoms: C2_2  and  C3_3 
REMARK    3  A    between atoms: C3_3  and  C4_4 
REMARK    4  A    between atoms: C4_4  and  C5_5 
REMARK    5  A    between atoms: C5_5  and  C6_7 
REMARK    6  A    between atoms: C6_7  and  C7_8 
REMARK    7  A    between atoms: C7_8  and  C8_9 
REMARK    8  A    between atoms: C7_8  and  C9_10 
ROOT
ATOM      1  C5  <0> d           2.187   1.018   1.151  0.00  0.00     0.127 C 
ATOM      2  O1  <0> d           1.640   0.249   1.904  0.00  0.00    -0.298 OA
ENDROOT
BRANCH   1   3
ATOM      3  C4  <0> d           3.634   1.382   1.364  0.00  0.00    -0.010 C 
ATOM      4  H8  <0> d           4.166   1.119   0.560  0.00  0.00     0.044 H 
ATOM      5  H9  <0> d           3.719   2.457   1.520  0.00  0.00     0.044 H 
BRANCH   3   6
ATOM      6  C3  <0> d           4.169   0.644   2.593  0.00  0.00    -0.059 C 
ATOM      7  H6  <0> d           3.589   0.931   3.470  0.00  0.00     0.033 H 
ATOM      8  H7  <0> d           4.084  -0.431   2.437  0.00  0.00     0.033 H 
BRANCH   6   9
ATOM      9  C2  <0> d           5.638   1.013   2.810  0.00  0.00    -0.068 C 
ATOM     10  H4  <0> d           6.218   0.726   1.933  0.00  0.00     0.032 H 
ATOM     11  H5  <0> d           5.723   2.089   2.966  0.00  0.00     0.032 H 
BRANCH   9  12
ATOM     12  C1  <0> d           6.173   0.276   4.039  0.00  0.00    -0.077 C 
ATOM     13  H1  <0> d           7.219   0.538   4.194  0.00  0.00     0.027 H 
ATOM     14  H2  <0> d           5.593   0.563   4.917  0.00  0.00     0.027 H 
ATOM     15  H3  <0> d           6.088  -0.800   3.883  0.00  0.00     0.027 H 
ENDBRANCH   9  12
ENDBRANCH   6   9
ENDBRANCH   3   6
ENDBRANCH   1   3
BRANCH   1  16
ATOM     16  C6  <0> d           1.423   1.615  -0.003  0.00  0.00    -0.007 C 
ATOM     17  H10 <0> d           1.865   1.362  -0.863  0.00  0.00     0.044 H 
ATOM     18  H11 <0> d           1.410   2.701   0.093  0.00  0.00     0.044 H 
BRANCH  16  19
ATOM     19  C7  <0> d          -0.013   1.086   0.008  0.00  0.00    -0.055 C 
ATOM     20  H12 <0> d           0.002  -0.004   0.002  0.00  0.00     0.039 H 
BRANCH  19  21
ATOM     21  C8  <0> d          -0.753   1.593  -1.232  0.00  0.00    -0.073 C 
ATOM     22  H13 <0> d          -0.242   1.241  -2.128  0.00  0.00     0.028 H 
ATOM     23  H14 <0> d          -1.775   1.215  -1.224  0.00  0.00     0.028 H 
ATOM     24  H15 <0> d          -0.767   2.683  -1.226  0.00  0.00     0.028 H 
ENDBRANCH  19  21
BRANCH  19  25
ATOM     25  C9  <0> d          -0.729   1.579   1.267  0.00  0.00    -0.073 C 
ATOM     26  H16 <0> d          -1.751   1.202   1.275  0.00  0.00     0.028 H 
ATOM     27  H17 <0> d          -0.202   1.218   2.150  0.00  0.00     0.028 H 
ATOM     28  H18 <0> d          -0.744   2.669   1.273  0.00  0.00     0.028 H 
ENDBRANCH  19  25
ENDBRANCH  16  19
ENDBRANCH   1  16
TORSDOF 8
