REMARK  3 active torsions:
REMARK  status: ('A' for Active; 'I' for Inactive)
REMARK    1  A    between atoms: C1_1  and  C2_2 
REMARK    2  A    between atoms: C4_5  and  C9_12 
REMARK    3  A    between atoms: C6_7  and  C8_11 
ROOT
ATOM      1  C2  <0> d          -1.302   3.079   0.087  0.00  0.00     0.037 C 
ATOM      2  H1  <0> d          -2.351   3.374   0.049  0.00  0.00     0.060 H 
ATOM      3  C3  <0> d          -0.690   3.565   1.372  0.00  0.00    -0.085 C 
ATOM      4  C4  <0> d           0.591   3.371   1.634  0.00  0.00    -0.063 C 
ATOM      5  C5  <0> d           1.490   2.695   0.711  0.00  0.00    -0.056 C 
ATOM      6  C6  <0> d           1.188   1.627  -0.001  0.00  0.00     0.008 C 
ATOM      7  N1  <0> d          -0.011   0.966   0.007  0.00  0.00    -0.331 N 
ATOM      8  C7  <0> d          -1.200   1.580   0.017  0.00  0.00     0.229 C 
ATOM      9  O1  <0> d          -2.214   0.916  -0.029  0.00  0.00    -0.272 OA
ATOM     10  H5  <0> d          -1.307   4.082   2.093  0.00  0.00     0.079 H 
ATOM     11  H6  <0> d           2.485   3.100   0.600  0.00  0.00     0.087 H 
ATOM     12  H7  <0> d           0.002  -0.004   0.002  0.00  0.00     0.168 HD
ENDROOT
BRANCH   1  13
ATOM     13  C1  <0> d          -0.556   3.694  -1.099  0.00  0.00    -0.061 C 
ATOM     14  H2  <0> d           0.492   3.398  -1.062  0.00  0.00     0.029 H 
ATOM     15  H3  <0> d          -1.000   3.342  -2.030  0.00  0.00     0.029 H 
ATOM     16  H4  <0> d          -0.629   4.781  -1.050  0.00  0.00     0.029 H 
ENDBRANCH   1  13
BRANCH   4  17
ATOM     17  C9  <0> d           1.143   3.870   2.945  0.00  0.00    -0.051 C 
ATOM     18  H11 <0> d           2.205   3.633   3.005  0.00  0.00     0.033 H 
ATOM     19  H12 <0> d           1.008   4.950   3.008  0.00  0.00     0.033 H 
ATOM     20  H13 <0> d           0.616   3.390   3.768  0.00  0.00     0.033 H 
ENDBRANCH   4  17
BRANCH   6  21
ATOM     21  C8  <0> d           2.262   1.084  -0.908  0.00  0.00    -0.037 C 
ATOM     22  H8  <0> d           1.884   0.208  -1.435  0.00  0.00     0.035 H 
ATOM     23  H9  <0> d           2.547   1.848  -1.631  0.00  0.00     0.035 H 
ATOM     24  H10 <0> d           3.132   0.804  -0.314  0.00  0.00     0.035 H 
ENDBRANCH   6  21
TORSDOF 3
