REMARK  4 active torsions:
REMARK  status: ('A' for Active; 'I' for Inactive)
REMARK    1  A    between atoms: C1_1  and  C2_2 
REMARK    2  A    between atoms: C2_2  and  C3_3 
REMARK    3  A    between atoms: C6_7  and  C7_10 
REMARK    4  A    between atoms: C7_10  and  C8_11 
ROOT
ATOM      1  C3  <0> d          -0.753   1.593  -1.232  0.00  0.00     0.038 C 
ATOM      2  H1  <0> d          -0.917   2.677  -1.147  0.00  0.00     0.083 H 
ATOM      3  C4  <0> d           0.029   1.207  -2.502  0.00  0.00    -0.039 C 
ATOM      4  C5  <0> d          -0.973   0.357  -3.321  0.00  0.00    -0.039 C 
ATOM      5  C6  <0> d          -2.334   0.793  -2.722  0.00  0.00     0.038 C 
ATOM      6  H2  <0> d          -2.746   1.725  -3.138  0.00  0.00     0.083 H 
ATOM      7  O1  <0> d          -2.045   0.969  -1.319  0.00  0.00    -0.381 OA
ATOM      8  H8  <0> d           0.330   2.120  -3.038  0.00  0.00     0.036 H 
ATOM      9  H9  <0> d           0.925   0.634  -2.222  0.00  0.00     0.036 H 
ATOM     10  H10 <0> d          -0.874   0.601  -4.389  0.00  0.00     0.036 H 
ATOM     11  H11 <0> d          -0.758  -0.711  -3.167  0.00  0.00     0.036 H 
ENDROOT
BRANCH   1  12
ATOM     12  C2  <0> d          -0.013   1.086   0.008  0.00  0.00    -0.044 C 
ATOM     13  H6  <0> d           1.019   1.466   0.000  0.00  0.00     0.036 H 
ATOM     14  H7  <0> d           0.002  -0.014   0.002  0.00  0.00     0.036 H 
BRANCH  12  15
ATOM     15  C1  <0> d          -0.729   1.579   1.267  0.00  0.00    -0.074 C 
ATOM     16  H3  <0> d          -0.197   1.215   2.158  0.00  0.00     0.027 H 
ATOM     17  H4  <0> d          -1.761   1.198   1.275  0.00  0.00     0.027 H 
ATOM     18  H5  <0> d          -0.744   2.679   1.273  0.00  0.00     0.027 H 
ENDBRANCH  12  15
ENDBRANCH   1  12
BRANCH   5  19
ATOM     19  C7  <0> d          -3.386  -0.299  -2.923  0.00  0.00    -0.044 C 
ATOM     20  H12 <0> d          -3.451  -0.554  -3.991  0.00  0.00     0.036 H 
ATOM     21  H13 <0> d          -3.101  -1.193  -2.349  0.00  0.00     0.036 H 
BRANCH  19  22
ATOM     22  C8  <0> d          -4.746   0.206  -2.437  0.00  0.00    -0.074 C 
ATOM     23  H14 <0> d          -5.502  -0.579  -2.581  0.00  0.00     0.027 H 
ATOM     24  H15 <0> d          -5.032   1.100  -3.011  0.00  0.00     0.027 H 
ATOM     25  H16 <0> d          -4.681   0.461  -1.369  0.00  0.00     0.027 H 
ENDBRANCH  19  22
ENDBRANCH   5  19
TORSDOF 4
