REMARK  2 active torsions:
REMARK  status: ('A' for Active; 'I' for Inactive)
REMARK    1  A    between atoms: C1_1  and  C2_2 
REMARK    2  A    between atoms: C4_4  and  O2_10 
ROOT
ATOM      1  C2  <0> d          -0.051   3.716   0.022  0.00  0.00    -0.053 A 
ATOM      2  C3  <0> d          -1.241   2.987   0.030  0.00  0.00    -0.028 A 
ATOM      3  C4  <0> d          -1.203   1.623   0.017  0.00  0.00     0.143 A 
ATOM      4  N1  <0> d          -0.011   0.966   0.007  0.00  0.00    -0.304 N 
ATOM      5  H1  <0> d           0.002  -0.004   0.002  0.00  0.00     0.171 HD
ATOM      6  C5  <0> d           1.150   1.648  -0.000  0.00  0.00     0.247 A 
ATOM      7  O1  <0> d           2.211   1.044  -0.013  0.00  0.00    -0.268 OA
ATOM      8  C6  <0> d           1.143   3.049   0.007  0.00  0.00    -0.011 A 
ATOM      9  H5  <0> d          -2.191   3.502   0.041  0.00  0.00     0.090 H 
ATOM     10  H6  <0> d           2.073   3.598   0.001  0.00  0.00     0.092 H 
ENDROOT
BRANCH   1  11
ATOM     11  C1  <0> d          -0.081   5.223   0.031  0.00  0.00    -0.051 C 
ATOM     12  H2  <0> d           0.939   5.606   0.024  0.00  0.00     0.033 H 
ATOM     13  H3  <0> d          -0.610   5.581  -0.852  0.00  0.00     0.033 H 
ATOM     14  H4  <0> d          -0.594   5.571   0.928  0.00  0.00     0.033 H 
ENDBRANCH   1  11
BRANCH   3  15
ATOM     15  O2  <0> d          -2.357   0.919   0.018  0.00  0.00    -0.346 OA
ATOM     16  H7  <0> d          -2.232  -0.040   0.013  0.00  0.00     0.219 HD
ENDBRANCH   3  15
TORSDOF 2
