REMARK  4 active torsions:
REMARK  status: ('A' for Active; 'I' for Inactive)
REMARK    1  A    between atoms: C2_2  and  C3_3 
REMARK    2  A    between atoms: C3_3  and  N1_4 
REMARK    3  A    between atoms: N1_4  and  C4_5 
REMARK    4  A    between atoms: C4_5  and  C5_6 
ROOT
ATOM      1  C1  <0> d           0.018  -1.178  -0.004  0.00  0.00    -0.152 C 
ATOM      2  C2  <0> d           0.002  -0.004   0.002  0.00  0.00    -0.087 C 
ATOM      3  H2  <0> d           0.032  -2.228  -0.010  0.00  0.00     0.166 H 
ENDROOT
BRANCH   2   4
ATOM      4  C3  <0> d          -0.018   1.468   0.010  0.00  0.00     0.164 C 
ATOM      5  H3  <0> d          -0.545   1.829  -0.873  0.00  0.00     0.099 H 
ATOM      6  H4  <0> d          -0.528   1.819   0.907  0.00  0.00     0.099 H 
BRANCH   4   7
ATOM      7  N1  <0> d           1.360   1.976  -0.000  0.00  0.00     0.096 N 
ATOM      8  H5  <0> d           1.889   1.604   0.774  0.00  0.00     0.317 HD
BRANCH   7   9
ATOM      9  C4  <0> d           1.379   3.445   0.007  0.00  0.00     0.136 C 
ATOM     10  H6  <0> d           0.862   3.820  -0.876  0.00  0.00     0.083 H 
ATOM     11  H7  <0> d           0.879   3.810   0.904  0.00  0.00     0.083 H 
BRANCH   9  12
ATOM     12  C5  <0> d           2.829   3.936  -0.004  0.00  0.00     0.064 C 
ATOM     13  H1  <0> d           3.345   3.568  -0.890  0.00  0.00     0.086 H 
ATOM     14  O1  <0> d           3.510   3.506   1.185  0.00  0.00    -0.384 OA
ATOM     15  C8  <0> d           4.416   4.527   1.624  0.00  0.00     0.020 C 
ATOM     16  C7  <0> d           4.277   5.723   0.658  0.00  0.00    -0.043 C 
ATOM     17  H12 <0> d           5.438   4.148   1.599  0.00  0.00     0.074 H 
ATOM     18  H13 <0> d           4.161   4.839   2.637  0.00  0.00     0.074 H 
ATOM     19  C6  <0> d           2.872   5.484   0.039  0.00  0.00    -0.037 C 
ATOM     20  H10 <0> d           5.049   5.693  -0.111  0.00  0.00     0.036 H 
ATOM     21  H11 <0> d           4.306   6.667   1.202  0.00  0.00     0.036 H 
ATOM     22  H8  <0> d           2.807   5.907  -0.963  0.00  0.00     0.036 H 
ATOM     23  H9  <0> d           2.087   5.882   0.683  0.00  0.00     0.036 H 
ENDBRANCH   9  12
ENDBRANCH   7   9
ENDBRANCH   4   7
ENDBRANCH   2   4
TORSDOF 4
