REMARK  4 active torsions:
REMARK  status: ('A' for Active; 'I' for Inactive)
REMARK    1  A    between atoms: C1_1  and  C2_2 
REMARK    2  A    between atoms: C2_2  and  C3_3 
REMARK    3  A    between atoms: C3_3  and  C4_4 
REMARK    4  A    between atoms: C4_4  and  C5_5 
ROOT
ATOM      1  C4  <0> d           0.739  -2.027  -1.265  0.00  0.00    -0.010 C 
ATOM      2  H9  <0> d           1.266  -2.388  -0.382  0.00  0.00     0.044 H 
ATOM      3  H10 <0> d          -0.284  -2.405  -1.258  0.00  0.00     0.044 H 
ENDROOT
BRANCH   1   4
ATOM      4  C3  <0> d           0.718  -0.497  -1.257  0.00  0.00    -0.059 C 
ATOM      5  H7  <0> d           0.191  -0.136  -2.140  0.00  0.00     0.033 H 
ATOM      6  H8  <0> d           1.741  -0.120  -1.264  0.00  0.00     0.033 H 
BRANCH   4   7
ATOM      7  C2  <0> d           0.002  -0.004   0.002  0.00  0.00    -0.068 C 
ATOM      8  H5  <0> d           0.529  -0.365   0.885  0.00  0.00     0.032 H 
ATOM      9  H6  <0> d          -1.020  -0.381   0.010  0.00  0.00     0.032 H 
BRANCH   7  10
ATOM     10  C1  <0> d          -0.019   1.526   0.010  0.00  0.00    -0.077 C 
ATOM     11  H2  <0> d           1.004   1.903   0.003  0.00  0.00     0.027 H 
ATOM     12  H3  <0> d          -0.546   1.887  -0.873  0.00  0.00     0.027 H 
ATOM     13  H4  <0> d          -0.529   1.877   0.907  0.00  0.00     0.027 H 
ENDBRANCH   7  10
ENDBRANCH   4   7
ENDBRANCH   1   4
BRANCH   1  14
ATOM     14  C5  <0> d           1.444  -2.513  -2.505  0.00  0.00     0.103 A 
ATOM     15  N1  <0> d           1.623  -3.816  -2.796  0.00  0.00    -0.369 N 
ATOM     16  C6  <0> d           2.347  -3.852  -4.080  0.00  0.00     0.069 A 
ATOM     17  H1  <0> d           1.333  -4.576  -2.269  0.00  0.00     0.161 HD
ATOM     18  C7  <0> d           2.520  -2.382  -4.414  0.00  0.00     0.262 A 
ATOM     19  H11 <0> d           3.316  -4.337  -3.963  0.00  0.00     0.078 H 
ATOM     20  H12 <0> d           1.753  -4.354  -4.844  0.00  0.00     0.078 H 
ATOM     21  O1  <0> d           3.066  -1.910  -5.391  0.00  0.00    -0.269 OA
ATOM     22  N2  <0> d           1.940  -1.717  -3.409  0.00  0.00    -0.200 NA
ENDBRANCH   1  14
TORSDOF 4
