REMARK  2 active torsions:
REMARK  status: ('A' for Active; 'I' for Inactive)
REMARK    1  A    between atoms: C1_1  and  N1_2 
REMARK    2  A    between atoms: N1_2  and  C2_3 
ROOT
ATOM      1  C2  <0> d           1.177   2.059   0.002  0.00  0.00     0.105 A 
ATOM      2  C3  <0> d           1.153   3.449   0.010  0.00  0.00     0.145 A 
ATOM      3  C4  <0> d          -0.057   4.118   0.025  0.00  0.00    -0.043 A 
ATOM      4  C5  <0> d          -1.243   3.406   0.032  0.00  0.00    -0.077 A 
ATOM      5  C6  <0> d          -1.223   2.023   0.019  0.00  0.00    -0.043 A 
ATOM      6  C7  <0> d          -0.016   1.347   0.009  0.00  0.00     0.145 A 
ATOM      7  F1  <0> d           0.002  -0.004   0.002  0.00  0.00    -0.204 F 
ATOM      8  F2  <0> d           2.311   4.145   0.002  0.00  0.00    -0.204 F 
ATOM      9  H5  <0> d          -0.077   5.197   0.030  0.00  0.00     0.088 H 
ATOM     10  H6  <0> d          -2.186   3.931   0.044  0.00  0.00     0.083 H 
ATOM     11  H7  <0> d          -2.151   1.470   0.020  0.00  0.00     0.088 H 
ENDROOT
BRANCH   1  12
ATOM     12  N1  <0> d           2.401   1.378  -0.014  0.00  0.00    -0.389 N 
ATOM     13  H4  <0> d           2.805   0.664   0.718  0.00  0.00     0.159 HD
BRANCH  12  14
ATOM     14  C1  <0> d           3.183   1.728  -1.207  0.00  0.00    -0.021 C 
ATOM     15  H1  <0> d           4.136   1.181  -1.194  0.00  0.00     0.056 H 
ATOM     16  H2  <0> d           3.381   2.810  -1.212  0.00  0.00     0.056 H 
ATOM     17  H3  <0> d           2.616   1.456  -2.110  0.00  0.00     0.056 H 
ENDBRANCH  12  14
ENDBRANCH   1  12
TORSDOF 2
