REMARK  4 active torsions:
REMARK  status: ('A' for Active; 'I' for Inactive)
REMARK    1  A    between atoms: C1_1  and  O1_2 
REMARK    2  A    between atoms: O1_2  and  C2_3 
REMARK    3  A    between atoms: C6_7  and  C8_9 
REMARK    4  A    between atoms: C8_9  and  O2_10 
ROOT
ATOM      1  C2  <0> d           2.399   0.031  -0.021  0.00  0.00     0.069 A 
ATOM      2  C3  <0> d           1.207  -0.679  -0.013  0.00  0.00    -0.048 A 
ATOM      3  C4  <0> d           0.002  -0.004   0.002  0.00  0.00    -0.042 A 
ATOM      4  C5  <0> d          -0.017   1.381   0.010  0.00  0.00     0.124 A 
ATOM      5  C6  <0> d           1.172   2.090   0.002  0.00  0.00     0.006 A 
ATOM      6  C7  <0> d           2.379   1.418  -0.013  0.00  0.00    -0.040 A 
ATOM      7  F1  <0> d          -1.196   2.039   0.019  0.00  0.00    -0.205 F 
ATOM      8  H4  <0> d           1.222  -1.759  -0.020  0.00  0.00     0.087 H 
ATOM      9  H5  <0> d          -0.926  -0.556   0.008  0.00  0.00     0.088 H 
ATOM     10  H6  <0> d           3.306   1.972  -0.018  0.00  0.00     0.088 H 
ENDROOT
BRANCH   1  11
ATOM     11  O1  <0> d           3.586  -0.632  -0.037  0.00  0.00    -0.356 OA
BRANCH  11  12
ATOM     12  C1  <0> d           3.531  -2.060  -0.045  0.00  0.00     0.010 C 
ATOM     13  H1  <0> d           4.544  -2.462  -0.057  0.00  0.00     0.066 H 
ATOM     14  H2  <0> d           3.013  -2.409   0.848  0.00  0.00     0.066 H 
ATOM     15  H3  <0> d           2.995  -2.398  -0.932  0.00  0.00     0.066 H 
ENDBRANCH  11  12
ENDBRANCH   1  11
BRANCH   5  16
ATOM     16  C8  <0> d           1.149   3.597   0.010  0.00  0.00     0.043 C 
ATOM     17  H7  <0> d           0.622   3.957  -0.873  0.00  0.00     0.081 H 
ATOM     18  H8  <0> d           0.639   3.948   0.906  0.00  0.00     0.081 H 
BRANCH  16  19
ATOM     19  O2  <0> d           2.489   4.093  -0.000  0.00  0.00    -0.396 OA
ATOM     20  H9  <0> d           2.551   5.058   0.004  0.00  0.00     0.209 HD
ENDBRANCH  16  19
ENDBRANCH   5  16
TORSDOF 4
