REMARK  4 active torsions:
REMARK  status: ('A' for Active; 'I' for Inactive)
REMARK    1  A    between atoms: C1_1  and  C2_2 
REMARK    2  A    between atoms: C2_2  and  C3_4 
REMARK    3  A    between atoms: C2_2  and  O1_12 
REMARK    4  A    between atoms: C4_5  and  C5_6 
ROOT
ATOM      1  C3  <0> d           4.806   1.346  -0.037  0.00  0.00    -0.074 C 
ATOM      2  C4  <0> d           3.675   2.037  -0.022  0.00  0.00    -0.056 C 
ATOM      3  H5  <0> d           4.780   0.267  -0.043  0.00  0.00     0.080 H 
ATOM      4  H6  <0> d           3.701   3.116  -0.017  0.00  0.00     0.086 H 
ENDROOT
BRANCH   2   5
ATOM      5  C5  <0> d           2.377   1.329  -0.014  0.00  0.00     0.056 A 
ATOM      6  N1  <0> d           2.351   0.002  -0.021  0.00  0.00    -0.261 NA
ATOM      7  C9  <0> d           1.216  -0.666  -0.013  0.00  0.00     0.003 A 
ATOM      8  C8  <0> d           0.002  -0.004   0.002  0.00  0.00    -0.066 A 
ATOM      9  H10 <0> d           1.233  -1.746  -0.019  0.00  0.00     0.114 H 
ATOM     10  C7  <0> d          -0.017   1.384   0.010  0.00  0.00    -0.079 A 
ATOM     11  H9  <0> d          -0.923  -0.562   0.008  0.00  0.00     0.085 H 
ATOM     12  C6  <0> d           1.190   2.061   0.002  0.00  0.00    -0.055 A 
ATOM     13  H8  <0> d          -0.952   1.923   0.017  0.00  0.00     0.083 H 
ATOM     14  H7  <0> d           1.212   3.141   0.007  0.00  0.00     0.087 H 
ENDBRANCH   2   5
BRANCH   1  15
ATOM     15  C2  <0> d           6.129   2.068  -0.046  0.00  0.00     0.048 C 
ATOM     16  H1  <0> d           5.956   3.144  -0.038  0.00  0.00     0.088 H 
BRANCH  15  17
ATOM     17  C1  <0> d           6.934   1.672   1.194  0.00  0.00    -0.049 C 
ATOM     18  H2  <0> d           7.107   0.596   1.186  0.00  0.00     0.031 H 
ATOM     19  H3  <0> d           7.891   2.194   1.187  0.00  0.00     0.031 H 
ATOM     20  H4  <0> d           6.378   1.945   2.091  0.00  0.00     0.031 H 
ENDBRANCH  15  17
BRANCH  15  21
ATOM     21  O1  <0> d           6.859   1.711  -1.222  0.00  0.00    -0.392 OA
ATOM     22  H11 <0> d           7.049   0.766  -1.294  0.00  0.00     0.210 HD
ENDBRANCH  15  21
ENDBRANCH   1  15
TORSDOF 4
