REMARK  5 active torsions:
REMARK  status: ('A' for Active; 'I' for Inactive)
REMARK    1  A    between atoms: C1_1  and  C2_2 
REMARK    2  A    between atoms: C2_2  and  O1_3 
REMARK    3  A    between atoms: C2_2  and  O2_5 
REMARK    4  A    between atoms: O1_3  and  C3_4 
REMARK    5  A    between atoms: O2_5  and  C4_6 
ROOT
ATOM      1  C2  <0> d          -0.226   0.881   0.294  0.00  0.00     0.126 C 
ATOM      2  H4  <0> d          -0.231  -0.170   0.586  0.00  0.00     0.128 H 
ENDROOT
BRANCH   1   3
ATOM      3  C1  <0> d          -1.047   1.692   1.299  0.00  0.00    -0.031 C 
ATOM      4  H1  <0> d          -2.073   1.324   1.312  0.00  0.00     0.034 H 
ATOM      5  H2  <0> d          -0.611   1.589   2.292  0.00  0.00     0.034 H 
ATOM      6  H3  <0> d          -1.042   2.743   1.008  0.00  0.00     0.034 H 
ENDBRANCH   1   3
BRANCH   1   7
ATOM      7  O1  <0> d           1.118   1.364   0.277  0.00  0.00    -0.367 OA
BRANCH   7   8
ATOM      8  C3  <0> d           2.055   0.456  -0.305  0.00  0.00     0.007 C 
ATOM      9  H5  <0> d           3.069   0.794  -0.094  0.00  0.00     0.066 H 
ATOM     10  H6  <0> d           1.908  -0.538   0.118  0.00  0.00     0.066 H 
ATOM     11  H7  <0> d           1.902   0.417  -1.384  0.00  0.00     0.066 H 
ENDBRANCH   7   8
ENDBRANCH   1   7
BRANCH   1  12
ATOM     12  O2  <0> d          -0.798   1.017  -1.008  0.00  0.00    -0.367 OA
BRANCH  12  13
ATOM     13  C4  <0> d          -0.364   0.025  -1.940  0.00  0.00     0.007 C 
ATOM     14  H8  <0> d          -1.064  -0.022  -2.774  0.00  0.00     0.066 H 
ATOM     15  H9  <0> d           0.627   0.284  -2.312  0.00  0.00     0.066 H 
ATOM     16  H10 <0> d          -0.324  -0.946  -1.445  0.00  0.00     0.066 H 
ENDBRANCH  12  13
ENDBRANCH   1  12
TORSDOF 5
