REMARK  1 active torsions:
REMARK  status: ('A' for Active; 'I' for Inactive)
REMARK    1  A    between atoms: C1_1  and  N1_2 
ROOT
ATOM      1  N1  <0> d           0.002  -0.004   0.002  0.00  0.00    -0.356 N 
ATOM      2  C2  <0> d           0.008  -0.794  -1.106  0.00  0.00    -0.020 A 
ATOM      3  C3  <0> d           0.030  -2.098  -0.720  0.00  0.00    -0.059 A 
ATOM      4  C4  <0> d           0.037  -2.125   0.663  0.00  0.00    -0.023 A 
ATOM      5  C5  <0> d           0.023  -0.805   1.101  0.00  0.00     0.108 A 
ATOM      6  C6  <0> d           0.028  -0.498   2.536  0.00  0.00     0.268 C 
ATOM      7  O1  <0> d          -0.215   0.621   2.950  0.00  0.00    -0.266 OA
ATOM      8  N2  <0> d           0.314  -1.518   3.378  0.00  0.00    -0.355 N 
ATOM      9  C7  <0> d           0.773  -2.820   2.913  0.00  0.00    -0.001 C 
ATOM     10  C8  <0> d           0.062  -3.275   1.634  0.00  0.00    -0.024 C 
ATOM     11  H4  <0> d          -0.002  -0.442  -2.127  0.00  0.00     0.111 H 
ATOM     12  H5  <0> d           0.039  -2.956  -1.375  0.00  0.00     0.086 H 
ATOM     13  H6  <0> d           0.208  -1.377   4.332  0.00  0.00     0.162 HD
ATOM     14  H7  <0> d           1.845  -2.768   2.725  0.00  0.00     0.064 H 
ATOM     15  H8  <0> d           0.591  -3.557   3.696  0.00  0.00     0.064 H 
ATOM     16  H9  <0> d          -0.959  -3.583   1.862  0.00  0.00     0.042 H 
ATOM     17  H10 <0> d           0.609  -4.111   1.197  0.00  0.00     0.042 H 
ENDROOT
BRANCH   1  18
ATOM     18  C1  <0> d          -0.018   1.461   0.010  0.00  0.00    -0.014 C 
ATOM     19  H1  <0> d           1.005   1.838   0.002  0.00  0.00     0.057 H 
ATOM     20  H2  <0> d          -0.545   1.822  -0.873  0.00  0.00     0.057 H 
ATOM     21  H3  <0> d          -0.528   1.812   0.907  0.00  0.00     0.057 H 
ENDBRANCH   1  18
TORSDOF 1
