REMARK  4 active torsions:
REMARK  status: ('A' for Active; 'I' for Inactive)
REMARK    1  A    between atoms: C1_1  and  C2_2 
REMARK    2  A    between atoms: C2_2  and  O1_3 
REMARK    3  A    between atoms: O1_3  and  C3_4 
REMARK    4  A    between atoms: C3_4  and  C4_6 
ROOT
ATOM      1  C3  <0> d          -0.014   1.210   0.009  0.00  0.00     0.314 C 
ATOM      2  O2  <0> d           0.002  -0.004   0.002  0.00  0.00    -0.257 OA
ENDROOT
BRANCH   1   3
ATOM      3  O1  <0> d           1.142   1.899   0.001  0.00  0.00    -0.317 OA
BRANCH   3   4
ATOM      4  C2  <0> d           2.371   1.125  -0.015  0.00  0.00     0.026 C 
ATOM      5  H4  <0> d           2.396   0.495  -0.916  0.00  0.00     0.074 H 
ATOM      6  H5  <0> d           2.413   0.486   0.880  0.00  0.00     0.074 H 
BRANCH   4   7
ATOM      7  C1  <0> d           3.571   2.073  -0.021  0.00  0.00    -0.056 C 
ATOM      8  H1  <0> d           4.502   1.487  -0.033  0.00  0.00     0.030 H 
ATOM      9  H2  <0> d           3.546   2.703   0.881  0.00  0.00     0.030 H 
ATOM     10  H3  <0> d           3.529   2.712  -0.915  0.00  0.00     0.030 H 
ENDBRANCH   4   7
ENDBRANCH   3   4
ENDBRANCH   1   3
BRANCH   1  11
ATOM     11  C4  <0> d          -1.308   1.934   0.019  0.00  0.00     0.161 A 
ATOM     12  N1  <0> d          -1.484   3.232   0.026  0.00  0.00    -0.123 NA
ATOM     13  O3  <0> d          -2.659   3.518   0.033  0.00  0.00    -0.225 OA
ATOM     14  C6  <0> d          -3.438   2.428   0.031  0.00  0.00     0.046 A 
ATOM     15  C5  <0> d          -2.610   1.359   0.016  0.00  0.00    -0.023 A 
ATOM     16  H7  <0> d          -4.518   2.408   0.035  0.00  0.00     0.126 H 
ATOM     17  H6  <0> d          -2.875   0.312   0.007  0.00  0.00     0.090 H 
ENDBRANCH   1  11
TORSDOF 4
