REMARK  7 active torsions:
REMARK  status: ('A' for Active; 'I' for Inactive)
REMARK    1  A    between atoms: C1_1  and  C2_2 
REMARK    2  A    between atoms: C2_2  and  C3_4 
REMARK    3  A    between atoms: C2_2  and  O2_7 
REMARK    4  A    between atoms: C3_4  and  O1_5 
REMARK    5  A    between atoms: O1_5  and  C4_6 
REMARK    6  A    between atoms: O2_7  and  C5_8 
REMARK    7  A    between atoms: C5_8  and  C6_10 
ROOT
ATOM      1  C2  <0> d          -0.729   1.579   1.267  0.00  0.00     0.065 C 
ATOM      2  H1  <0> d          -0.255   1.146   2.148  0.00  0.00     0.086 H 
ENDROOT
BRANCH   1   3
ATOM      3  C1  <0> d          -2.198   1.155   1.217  0.00  0.00    -0.050 C 
ATOM      4  H2  <0> d          -2.261   0.068   1.166  0.00  0.00     0.031 H 
ATOM      5  H3  <0> d          -2.708   1.506   2.114  0.00  0.00     0.031 H 
ATOM      6  H4  <0> d          -2.672   1.588   0.336  0.00  0.00     0.031 H 
ENDBRANCH   1   3
BRANCH   1   7
ATOM      7  C3  <0> d          -0.013   1.086   0.008  0.00  0.00     0.043 C 
ATOM      8  H5  <0> d           0.002  -0.004   0.002  0.00  0.00     0.078 H 
ATOM      9  H6  <0> d           1.010   1.463   0.000  0.00  0.00     0.078 H 
BRANCH   7  10
ATOM     10  O1  <0> d          -0.704   1.559  -1.150  0.00  0.00    -0.393 OA
BRANCH  10  11
ATOM     11  C4  <0> d          -0.114   1.152  -2.386  0.00  0.00     0.004 C 
ATOM     12  H7  <0> d           0.907   1.531  -2.443  0.00  0.00     0.066 H 
ATOM     13  H8  <0> d          -0.101   0.064  -2.442  0.00  0.00     0.066 H 
ATOM     14  H9  <0> d          -0.697   1.552  -3.216  0.00  0.00     0.066 H 
ENDBRANCH  10  11
ENDBRANCH   7  10
ENDBRANCH   1   7
BRANCH   1  15
ATOM     15  O2  <0> d          -0.645   3.027   1.335  0.00  0.00    -0.315 OA
BRANCH  15  16
ATOM     16  C5  <0> d          -0.635   3.580   2.558  0.00  0.00     0.255 C 
ATOM     17  O3  <0> d          -0.693   2.877   3.539  0.00  0.00    -0.266 OA
BRANCH  16  18
ATOM     18  C6  <0> d          -0.550   5.077   2.707  0.00  0.00     0.004 C 
ATOM     19  H10 <0> d          -1.555   5.498   2.725  0.00  0.00     0.041 H 
ATOM     20  H11 <0> d          -0.037   5.321   3.638  0.00  0.00     0.041 H 
ATOM     21  H12 <0> d           0.004   5.495   1.867  0.00  0.00     0.041 H 
ENDBRANCH  16  18
ENDBRANCH  15  16
ENDBRANCH   1  15
TORSDOF 7
