REMARK  0 active torsions:
REMARK  status: ('A' for Active; 'I' for Inactive)
ROOT
ATOM      1  C1  <0> d          -1.952   2.209   1.303  0.00  0.00    -0.037 C 
ATOM      2  C2  <0> d          -2.294   3.632   1.678  0.00  0.00    -0.106 C 
ATOM      3  C3  <0> d          -1.329   4.526   1.682  0.00  0.00    -0.105 C 
ATOM      4  C4  <0> d           0.073   4.079   1.312  0.00  0.00    -0.030 C 
ATOM      5  C5  <0> d           0.004   3.249   0.028  0.00  0.00     0.027 A 
ATOM      6  H1  <0> d           0.034   3.859  -0.875  0.00  0.00     0.074 H 
ATOM      7  C6  <0> d          -1.120   2.221   0.018  0.00  0.00     0.046 A 
ATOM      8  H2  <0> d          -1.720   2.230  -0.892  0.00  0.00     0.058 H 
ATOM      9  C7  <0> d          -0.014   1.209   0.009  0.00  0.00     0.224 A 
ATOM     10  O1  <0> d           0.002  -0.004   0.002  0.00  0.00    -0.273 OA
ATOM     11  N1  <0> d           0.948   2.139   0.004  0.00  0.00    -0.355 N 
ATOM     12  H3  <0> d          -2.870   1.644   1.139  0.00  0.00     0.040 H 
ATOM     13  H4  <0> d          -1.377   1.748   2.106  0.00  0.00     0.040 H 
ATOM     14  H5  <0> d          -3.306   3.908   1.937  0.00  0.00     0.076 H 
ATOM     15  H6  <0> d          -1.529   5.555   1.943  0.00  0.00     0.076 H 
ATOM     16  H7  <0> d           0.491   3.473   2.116  0.00  0.00     0.042 H 
ATOM     17  H8  <0> d           0.704   4.953   1.148  0.00  0.00     0.042 H 
ATOM     18  H9  <0> d           1.917   2.091  -0.009  0.00  0.00     0.162 HD
ENDROOT
TORSDOF 0
