REMARK  6 active torsions:
REMARK  status: ('A' for Active; 'I' for Inactive)
REMARK    1  A    between atoms: C1_1  and  O1_2 
REMARK    2  A    between atoms: O1_2  and  C2_3 
REMARK    3  A    between atoms: C2_3  and  C3_4 
REMARK    4  A    between atoms: C2_3  and  O2_8 
REMARK    5  A    between atoms: C3_4  and  C4_5 
REMARK    6  A    between atoms: O2_8  and  C6_9 
ROOT
ATOM      1  C4  <0> d           0.974   1.548   0.883  0.00  0.00     0.019 C 
ATOM      2  C5  <0> d           1.196   0.103   1.058  0.00  0.00     0.059 C 
ATOM      3  N1  <0> d           1.367  -1.012   1.193  0.00  0.00    -0.197 NA
ATOM      4  H7  <0> d           1.881   2.090   1.153  0.00  0.00     0.055 H 
ATOM      5  H8  <0> d           0.724   1.754  -0.157  0.00  0.00     0.055 H 
ENDROOT
BRANCH   1   6
ATOM      6  C3  <0> d          -0.177   2.000   1.784  0.00  0.00    -0.008 C 
ATOM      7  H5  <0> d          -1.084   1.458   1.514  0.00  0.00     0.041 H 
ATOM      8  H6  <0> d           0.073   1.794   2.824  0.00  0.00     0.041 H 
BRANCH   6   9
ATOM      9  C2  <0> d          -0.408   3.501   1.602  0.00  0.00     0.130 C 
ATOM     10  H4  <0> d           0.523   4.037   1.786  0.00  0.00     0.128 H 
BRANCH   9  11
ATOM     11  O1  <0> d          -0.849   3.757   0.267  0.00  0.00    -0.366 OA
BRANCH  11  12
ATOM     12  C1  <0> d          -0.549   5.074  -0.202  0.00  0.00     0.007 C 
ATOM     13  H1  <0> d          -1.016   5.228  -1.175  0.00  0.00     0.066 H 
ATOM     14  H2  <0> d          -0.934   5.808   0.506  0.00  0.00     0.066 H 
ATOM     15  H3  <0> d           0.531   5.189  -0.294  0.00  0.00     0.066 H 
ENDBRANCH  11  12
ENDBRANCH   9  11
BRANCH   9  16
ATOM     16  O2  <0> d          -1.404   3.945   2.526  0.00  0.00    -0.366 OA
BRANCH  16  17
ATOM     17  C6  <0> d          -1.476   5.366   2.664  0.00  0.00     0.007 C 
ATOM     18  H9  <0> d          -2.030   5.615   3.569  0.00  0.00     0.066 H 
ATOM     19  H10 <0> d          -0.468   5.776   2.731  0.00  0.00     0.066 H 
ATOM     20  H11 <0> d          -1.984   5.790   1.798  0.00  0.00     0.066 H 
ENDBRANCH  16  17
ENDBRANCH   9  16
ENDBRANCH   6   9
ENDBRANCH   1   6
TORSDOF 6
