REMARK  5 active torsions:
REMARK  status: ('A' for Active; 'I' for Inactive)
REMARK    1  A    between atoms: C1_1  and  C2_2 
REMARK    2  A    between atoms: C2_2  and  C3_3 
REMARK    3  A    between atoms: C3_3  and  C4_5 
REMARK    4  A    between atoms: C3_3  and  N1_7 
REMARK       I    between atoms: N1_7  and  C5_8 
REMARK    5  A    between atoms: C5_8  and  C6_10 
ROOT
ATOM      1  C3  <0> d          -2.164   1.050   1.278  0.00  0.00     0.096 C 
ATOM      2  H1  <0> d          -2.152  -0.036   1.182  0.00  0.00     0.089 H 
ENDROOT
BRANCH   1   3
ATOM      3  C2  <0> d          -0.729   1.579   1.267  0.00  0.00    -0.040 C 
ATOM      4  H5  <0> d          -0.202   1.218   2.150  0.00  0.00     0.036 H 
ATOM      5  H6  <0> d          -0.744   2.669   1.273  0.00  0.00     0.036 H 
BRANCH   3   6
ATOM      6  C1  <0> d          -0.013   1.086   0.008  0.00  0.00    -0.074 C 
ATOM      7  H2  <0> d           0.002  -0.004   0.002  0.00  0.00     0.027 H 
ATOM      8  H3  <0> d           1.010   1.463   0.000  0.00  0.00     0.027 H 
ATOM      9  H4  <0> d          -0.540   1.447  -0.875  0.00  0.00     0.027 H 
ENDBRANCH   3   6
ENDBRANCH   1   3
BRANCH   1  10
ATOM     10  C4  <0> d          -2.831   1.432   2.574  0.00  0.00     0.196 C 
ATOM     11  O1  <0> d          -3.825   2.119   2.562  0.00  0.00    -0.646 OA
ATOM     12  O3  <0> d          -2.321   1.010   3.741  0.00  0.00    -0.646 OA
ENDBRANCH   1  10
BRANCH   1  13
ATOM     13  N1  <0> d          -2.907   1.630   0.156  0.00  0.00    -0.347 N 
ATOM     14  C5  <0> d          -3.975   0.983  -0.351  0.00  0.00     0.214 C 
ATOM     15  O2  <0> d          -4.320  -0.080   0.120  0.00  0.00    -0.274 OA
ATOM     16  H7  <0> d          -2.631   2.480  -0.221  0.00  0.00     0.163 HD
BRANCH  14  17
ATOM     17  C6  <0> d          -4.739   1.580  -1.505  0.00  0.00    -0.003 C 
ATOM     18  H8  <0> d          -4.310   1.231  -2.444  0.00  0.00     0.040 H 
ATOM     19  H9  <0> d          -5.784   1.273  -1.446  0.00  0.00     0.040 H 
ATOM     20  H10 <0> d          -4.677   2.667  -1.458  0.00  0.00     0.040 H 
ENDBRANCH  14  17
ENDBRANCH   1  13
TORSDOF 5
