REMARK  0 active torsions:
REMARK  status: ('A' for Active; 'I' for Inactive)
ROOT
ATOM      1  C1  <0> d           0.692   3.064   0.012  0.00  0.00    -0.040 A 
ATOM      2  C2  <0> d           1.085   1.773   0.001  0.00  0.00    -0.020 A 
ATOM      3  N1  <0> d          -0.011   0.966   0.007  0.00  0.00    -0.360 N 
ATOM      4  H1  <0> d           0.111  -0.127   0.005  0.00  0.00     0.165 HD
ATOM      5  C3  <0> d          -1.140   1.751   0.016  0.00  0.00     0.130 A 
ATOM      6  C4  <0> d          -0.719   3.086   0.025  0.00  0.00     0.067 A 
ATOM      7  N2  <0> d          -1.644   4.075   0.039  0.00  0.00    -0.349 N 
ATOM      8  C5  <0> d          -2.917   3.802   0.049  0.00  0.00     0.068 A 
ATOM      9  N3  <0> d          -3.382   2.526   0.047  0.00  0.00    -0.203 NA
ATOM     10  C6  <0> d          -2.524   1.482   0.034  0.00  0.00     0.297 A 
ATOM     11  O1  <0> d          -2.937   0.334   0.033  0.00  0.00    -0.264 OA
ATOM     12  H2  <0> d           1.341   3.926   0.010  0.00  0.00     0.089 H 
ATOM     13  H3  <0> d           2.110   1.434  -0.010  0.00  0.00     0.111 H 
ATOM     14  H4  <0> d          -3.626   4.616   0.060  0.00  0.00     0.143 H 
ATOM     15  H5  <0> d          -1.324   5.127   0.042  0.00  0.00     0.167 HD
ENDROOT
TORSDOF 0
