REMARK  4 active torsions:
REMARK  status: ('A' for Active; 'I' for Inactive)
REMARK    1  A    between atoms: C1_1  and  C2_2 
REMARK    2  A    between atoms: C4_4  and  C9_10 
REMARK    3  A    between atoms: C6_6  and  S1_8 
REMARK    4  A    between atoms: S1_8  and  C8_9 
ROOT
ATOM      1  C2  <0> d          -0.017   1.379   0.010  0.00  0.00    -0.060 A 
ATOM      2  C3  <0> d           0.002  -0.004   0.002  0.00  0.00    -0.071 A 
ATOM      3  C4  <0> d           1.207  -0.683  -0.013  0.00  0.00    -0.060 A 
ATOM      4  C5  <0> d           2.396   0.019  -0.021  0.00  0.00    -0.061 A 
ATOM      5  C6  <0> d           2.381   1.409  -0.013  0.00  0.00     0.001 A 
ATOM      6  C7  <0> d           1.169   2.087   0.002  0.00  0.00    -0.061 A 
ATOM      7  H4  <0> d          -0.927  -0.555   0.008  0.00  0.00     0.085 H 
ATOM      8  H5  <0> d           3.337  -0.511  -0.033  0.00  0.00     0.086 H 
ATOM      9  H6  <0> d           1.153   3.167   0.008  0.00  0.00     0.086 H 
ENDROOT
BRANCH   5  10
ATOM     10  S1  <0> d           3.897   2.308  -0.024  0.00  0.00    -0.134 SA
BRANCH  10  11
ATOM     11  C8  <0> d           3.375   4.046  -0.009  0.00  0.00    -0.030 C 
ATOM     12  H7  <0> d           4.255   4.689  -0.014  0.00  0.00     0.042 H 
ATOM     13  H8  <0> d           2.770   4.251  -0.892  0.00  0.00     0.042 H 
ATOM     14  H9  <0> d           2.788   4.241   0.888  0.00  0.00     0.042 H 
ENDBRANCH  10  11
ENDBRANCH   5  10
BRANCH   3  15
ATOM     15  C9  <0> d           1.222  -2.189  -0.021  0.00  0.00    -0.051 C 
ATOM     16  H10 <0> d           1.216  -2.548  -1.050  0.00  0.00     0.033 H 
ATOM     17  H11 <0> d           2.121  -2.546   0.482  0.00  0.00     0.033 H 
ATOM     18  H12 <0> d           0.341  -2.564   0.500  0.00  0.00     0.033 H 
ENDBRANCH   3  15
BRANCH   1  19
ATOM     19  C1  <0> d          -1.332   2.114   0.020  0.00  0.00    -0.051 C 
ATOM     20  H1  <0> d          -1.645   2.285   1.050  0.00  0.00     0.033 H 
ATOM     21  H2  <0> d          -1.218   3.071  -0.489  0.00  0.00     0.033 H 
ATOM     22  H3  <0> d          -2.086   1.516  -0.494  0.00  0.00     0.033 H 
ENDBRANCH   1  19
TORSDOF 4
