REMARK  0 active torsions:
REMARK  status: ('A' for Active; 'I' for Inactive)
ROOT
ATOM      1  C1  <0> d          -0.639   5.630   0.038  0.00  0.00    -0.042 A 
ATOM      2  C2  <0> d           0.750   5.601   0.025  0.00  0.00    -0.040 A 
ATOM      3  C3  <0> d           1.428   4.401   0.013  0.00  0.00     0.144 A 
ATOM      4  C4  <0> d           0.718   3.201   0.012  0.00  0.00     0.084 A 
ATOM      5  C5  <0> d          -0.687   3.231   0.026  0.00  0.00     0.034 A 
ATOM      6  C6  <0> d          -1.360   4.457   0.039  0.00  0.00     0.129 A 
ATOM      7  F1  <0> d          -2.711   4.490   0.052  0.00  0.00    -0.205 F 
ATOM      8  C7  <0> d          -1.122   1.832   0.017  0.00  0.00    -0.053 A 
ATOM      9  C8  <0> d          -0.013   1.076   0.008  0.00  0.00    -0.021 A 
ATOM     10  N1  <0> d           1.097   1.877   0.002  0.00  0.00    -0.363 N 
ATOM     11  H1  <0> d           2.164   1.610  -0.010  0.00  0.00     0.165 HD
ATOM     12  F2  <0> d           2.779   4.387  -0.000  0.00  0.00    -0.204 F 
ATOM     13  H2  <0> d          -1.156   6.579   0.048  0.00  0.00     0.088 H 
ATOM     14  H3  <0> d           1.304   6.528   0.025  0.00  0.00     0.088 H 
ATOM     15  H4  <0> d          -2.142   1.476   0.019  0.00  0.00     0.087 H 
ATOM     16  H5  <0> d           0.002  -0.004   0.002  0.00  0.00     0.111 H 
ENDROOT
TORSDOF 0
