REMARK  3 active torsions:
REMARK  status: ('A' for Active; 'I' for Inactive)
REMARK    1  A    between atoms: C3_3  and  C5_6 
REMARK    2  A    between atoms: C5_6  and  C6_7 
REMARK    3  A    between atoms: C6_7  and  C7_8 
ROOT
ATOM      1  C5  <0> d           2.565   1.272  -0.015  0.00  0.00    -0.026 C 
ATOM      2  H4  <0> d           3.212   1.984   0.496  0.00  0.00     0.041 H 
ATOM      3  H5  <0> d           2.612   0.309   0.493  0.00  0.00     0.041 H 
ENDROOT
BRANCH   1   4
ATOM      4  C3  <0> d           1.146   1.780   0.001  0.00  0.00    -0.017 A 
ATOM      5  C2  <0> d          -0.013   1.076   0.008  0.00  0.00    -0.070 A 
ATOM      6  C1  <0> d          -1.213   1.761   0.017  0.00  0.00    -0.076 A 
ATOM      7  H2  <0> d           0.002  -0.004   0.002  0.00  0.00     0.085 H 
ATOM      8  C4  <0> d          -1.196   3.116   0.030  0.00  0.00    -0.045 A 
ATOM      9  H1  <0> d          -2.150   1.224   0.018  0.00  0.00     0.084 H 
ATOM     10  S1  <0> d           0.555   3.464   0.015  0.00  0.00    -0.106 SA
ATOM     11  H3  <0> d          -2.027   3.807   0.041  0.00  0.00     0.095 H 
ENDBRANCH   1   4
BRANCH   1  12
ATOM     12  C6  <0> d           3.031   1.107  -1.463  0.00  0.00     0.020 C 
ATOM     13  H6  <0> d           2.385   0.394  -1.974  0.00  0.00     0.049 H 
ATOM     14  H7  <0> d           2.984   2.070  -1.972  0.00  0.00     0.049 H 
BRANCH  12  15
ATOM     15  C7  <0> d           4.450   0.599  -1.479  0.00  0.00     0.172 C 
ATOM     16  O1  <0> d           5.029   0.390  -0.439  0.00  0.00    -0.648 OA
ATOM     17  O2  <0> d           5.071   0.379  -2.648  0.00  0.00    -0.648 OA
ENDBRANCH  12  15
ENDBRANCH   1  12
TORSDOF 3
