REMARK  2 active torsions:
REMARK  status: ('A' for Active; 'I' for Inactive)
REMARK    1  A    between atoms: C1_1  and  S1_2 
REMARK    2  A    between atoms: S1_2  and  C2_3 
ROOT
ATOM      1  C2  <0> d          -1.226   1.755   0.017  0.00  0.00     0.003 A 
ATOM      2  C3  <0> d          -0.013   1.076   0.008  0.00  0.00    -0.067 A 
ATOM      3  C4  <0> d           1.173   1.783   0.000  0.00  0.00    -0.079 A 
ATOM      4  C5  <0> d           1.157   3.165   0.008  0.00  0.00    -0.046 A 
ATOM      5  C6  <0> d          -0.049   3.846   0.023  0.00  0.00     0.117 A 
ATOM      6  C7  <0> d          -1.241   3.144   0.031  0.00  0.00    -0.029 A 
ATOM      7  F1  <0> d          -0.062   5.197   0.030  0.00  0.00    -0.206 F 
ATOM      8  H4  <0> d           0.002  -0.004   0.002  0.00  0.00     0.085 H 
ATOM      9  H5  <0> d           2.116   1.255  -0.012  0.00  0.00     0.083 H 
ATOM     10  H6  <0> d           2.086   3.716   0.002  0.00  0.00     0.088 H 
ATOM     11  H7  <0> d          -2.181   3.674   0.043  0.00  0.00     0.090 H 
ENDROOT
BRANCH   1  12
ATOM     12  S1  <0> d          -2.741   0.855   0.019  0.00  0.00    -0.134 SA
BRANCH  12  13
ATOM     13  C1  <0> d          -4.016   2.145   0.032  0.00  0.00    -0.030 C 
ATOM     14  H1  <0> d          -3.903   2.759   0.925  0.00  0.00     0.042 H 
ATOM     15  H2  <0> d          -3.911   2.769  -0.855  0.00  0.00     0.042 H 
ATOM     16  H3  <0> d          -5.003   1.680   0.034  0.00  0.00     0.042 H 
ENDBRANCH  12  13
ENDBRANCH   1  12
TORSDOF 2
