REMARK  2 active torsions:
REMARK  status: ('A' for Active; 'I' for Inactive)
REMARK    1  A    between atoms: C6_8  and  O2_13 
REMARK    2  A    between atoms: C7_10  and  O1_12 
ROOT
ATOM      1  C1  <0> d          -2.296   1.098  -0.756  0.00  0.00    -0.059 C 
ATOM      2  C2  <0> d          -2.291   1.078   0.790  0.00  0.00    -0.059 C 
ATOM      3  C3  <0> d          -0.877   1.656   1.187  0.00  0.00    -0.026 C 
ATOM      4  H1  <0> d          -0.560   1.466   2.223  0.00  0.00     0.044 H 
ATOM      5  C4  <0> d          -0.013   1.086   0.008  0.00  0.00    -0.054 C 
ATOM      6  C5  <0> d          -0.900   1.669  -1.148  0.00  0.00    -0.026 C 
ATOM      7  H2  <0> d          -0.603   1.481  -2.191  0.00  0.00     0.044 H 
ATOM      8  C6  <0> d          -0.945   3.175  -0.746  0.00  0.00     0.064 C 
ATOM      9  H3  <0> d          -1.776   3.745  -1.186  0.00  0.00     0.087 H 
ATOM     10  C7  <0> d          -0.930   3.166   0.802  0.00  0.00     0.064 C 
ATOM     11  H4  <0> d          -0.137   3.785   1.247  0.00  0.00     0.087 H 
ATOM     12  H5  <0> d          -3.085   1.753  -1.153  0.00  0.00     0.033 H 
ATOM     13  H6  <0> d          -2.412   0.088  -1.177  0.00  0.00     0.033 H 
ATOM     14  H7  <0> d          -3.111   1.705   1.168  0.00  0.00     0.033 H 
ATOM     15  H8  <0> d          -2.425   0.045   1.144  0.00  0.00     0.033 H 
ATOM     16  H9  <0> d           1.009   1.489   0.074  0.00  0.00     0.034 H 
ATOM     17  H10 <0> d           0.021  -0.012   0.075  0.00  0.00     0.034 H 
ENDROOT
BRANCH   8  18
ATOM     18  O2  <0> d           0.203   3.860  -1.250  0.00  0.00    -0.393 OA
ATOM     19  H12 <0> d           0.331   4.935  -1.057  0.00  0.00     0.210 HD
ENDBRANCH   8  18
BRANCH  10  20
ATOM     20  O1  <0> d          -2.118   3.771   1.318  0.00  0.00    -0.393 OA
ATOM     21  H11 <0> d          -2.315   4.838   1.137  0.00  0.00     0.210 HD
ENDBRANCH  10  20
TORSDOF 2
