REMARK  2 active torsions:
REMARK  status: ('A' for Active; 'I' for Inactive)
REMARK    1  A    between atoms: C1_1  and  C2_2 
REMARK    2  A    between atoms: C4_4  and  C6_8 
ROOT
ATOM      1  C2  <0> d          -1.126   1.848   0.017  0.00  0.00    -0.044 A 
ATOM      2  C3  <0> d          -0.720   3.185   0.025  0.00  0.00    -0.043 A 
ATOM      3  C4  <0> d           0.660   3.187   0.012  0.00  0.00     0.110 A 
ATOM      4  N1  <0> d           1.075   1.875   0.002  0.00  0.00    -0.360 N 
ATOM      5  H1  <0> d           1.997   1.574  -0.008  0.00  0.00     0.165 HD
ATOM      6  C5  <0> d          -0.013   1.076   0.008  0.00  0.00    -0.017 A 
ATOM      7  H5  <0> d          -1.364   4.052   0.036  0.00  0.00     0.088 H 
ATOM      8  H6  <0> d           0.002  -0.004   0.002  0.00  0.00     0.112 H 
ENDROOT
BRANCH   1   9
ATOM      9  C1  <0> d          -2.549   1.352   0.020  0.00  0.00    -0.050 C 
ATOM     10  H2  <0> d          -2.888   1.227   1.048  0.00  0.00     0.033 H 
ATOM     11  H3  <0> d          -3.187   2.076  -0.488  0.00  0.00     0.033 H 
ATOM     12  H4  <0> d          -2.602   0.395  -0.499  0.00  0.00     0.033 H 
ENDBRANCH   1   9
BRANCH   3  13
ATOM     13  C6  <0> d           1.525   4.370   0.011  0.00  0.00     0.226 C 
ATOM     14  O1  <0> d           1.034   5.482   0.022  0.00  0.00    -0.643 OA
ATOM     15  O2  <0> d           2.866   4.225  -0.002  0.00  0.00    -0.643 OA
ENDBRANCH   3  13
TORSDOF 2
