REMARK  4 active torsions:
REMARK  status: ('A' for Active; 'I' for Inactive)
REMARK    1  A    between atoms: C1_1  and  C2_2 
REMARK    2  A    between atoms: C2_2  and  C3_3 
REMARK    3  A    between atoms: C3_3  and  C4_5 
REMARK    4  A    between atoms: C3_3  and  O1_11 
ROOT
ATOM      1  C4  <0> d           0.657  -2.014   1.298  0.00  0.00    -0.030 A 
ATOM      2  C5  <0> d           1.572  -2.785   0.606  0.00  0.00    -0.074 A 
ATOM      3  C6  <0> d           1.494  -4.164   0.657  0.00  0.00    -0.082 A 
ATOM      4  C7  <0> d           0.500  -4.773   1.401  0.00  0.00    -0.083 A 
ATOM      5  C8  <0> d          -0.414  -4.002   2.094  0.00  0.00    -0.082 A 
ATOM      6  C9  <0> d          -0.334  -2.623   2.046  0.00  0.00    -0.074 A 
ATOM      7  H7  <0> d           2.348  -2.310   0.024  0.00  0.00     0.084 H 
ATOM      8  H8  <0> d           2.209  -4.766   0.116  0.00  0.00     0.083 H 
ATOM      9  H9  <0> d           0.439  -5.850   1.441  0.00  0.00     0.083 H 
ATOM     10  H10 <0> d          -1.191  -4.478   2.675  0.00  0.00     0.083 H 
ATOM     11  H11 <0> d          -1.046  -2.021   2.590  0.00  0.00     0.084 H 
ENDROOT
BRANCH   1  12
ATOM     12  C3  <0> d           0.742  -0.511   1.242  0.00  0.00     0.060 C 
ATOM     13  H1  <0> d           0.285  -0.087   2.136  0.00  0.00     0.090 H 
BRANCH  12  14
ATOM     14  C2  <0> d           0.002  -0.004   0.002  0.00  0.00    -0.041 C 
ATOM     15  H5  <0> d          -1.020  -0.381   0.010  0.00  0.00     0.036 H 
ATOM     16  H6  <0> d           0.512  -0.356  -0.895  0.00  0.00     0.036 H 
BRANCH  14  17
ATOM     17  C1  <0> d          -0.019   1.526   0.010  0.00  0.00    -0.074 C 
ATOM     18  H2  <0> d           1.004   1.903   0.003  0.00  0.00     0.027 H 
ATOM     19  H3  <0> d          -0.546   1.887  -0.873  0.00  0.00     0.027 H 
ATOM     20  H4  <0> d          -0.529   1.877   0.907  0.00  0.00     0.027 H 
ENDBRANCH  14  17
ENDBRANCH  12  14
BRANCH  12  21
ATOM     21  O1  <0> d           2.113  -0.114   1.173  0.00  0.00    -0.391 OA
ATOM     22  H12 <0> d           2.583  -0.455   0.401  0.00  0.00     0.210 HD
ENDBRANCH  12  21
ENDBRANCH   1  12
TORSDOF 4
