REMARK  7 active torsions:
REMARK  status: ('A' for Active; 'I' for Inactive)
REMARK    1  A    between atoms: C1_1  and  C2_2 
REMARK    2  A    between atoms: C2_2  and  C3_4 
REMARK    3  A    between atoms: C2_2  and  O3_10 
REMARK    4  A    between atoms: C3_4  and  O2_6 
REMARK    5  A    between atoms: O2_6  and  C4_7 
REMARK    6  A    between atoms: C4_7  and  C5_8 
REMARK    7  A    between atoms: C4_7  and  C6_9 
ROOT
ATOM      1  O2  <0> d           0.178  -0.251  -2.448  0.00  0.00    -0.315 OA
ENDROOT
BRANCH   1   2
ATOM      2  C3  <0> d           0.707  -0.490  -1.238  0.00  0.00     0.287 C 
ATOM      3  O1  <0> d           1.749  -1.095  -1.143  0.00  0.00    -0.262 OA
BRANCH   2   4
ATOM      4  C2  <0> d           0.002  -0.004   0.002  0.00  0.00     0.115 C 
ATOM      5  H1  <0> d          -1.020  -0.381   0.010  0.00  0.00     0.098 H 
BRANCH   4   6
ATOM      6  C1  <0> d          -0.019   1.526   0.010  0.00  0.00    -0.044 C 
ATOM      7  H2  <0> d           1.004   1.903   0.003  0.00  0.00     0.031 H 
ATOM      8  H3  <0> d          -0.546   1.887  -0.873  0.00  0.00     0.031 H 
ATOM      9  H4  <0> d          -0.529   1.877   0.907  0.00  0.00     0.031 H 
ENDBRANCH   4   6
BRANCH   4  10
ATOM     10  O3  <0> d           0.693  -0.477   1.160  0.00  0.00    -0.386 OA
ATOM     11  H12 <0> d           0.294  -0.202   1.996  0.00  0.00     0.210 HD
ENDBRANCH   4  10
ENDBRANCH   2   4
ENDBRANCH   1   2
BRANCH   1  12
ATOM     12  C4  <0> d           0.901  -0.741  -3.580  0.00  0.00     0.041 C 
ATOM     13  H5  <0> d           1.966  -0.755  -3.352  0.00  0.00     0.083 H 
BRANCH  12  14
ATOM     14  C5  <0> d           0.430  -2.158  -3.911  0.00  0.00    -0.052 C 
ATOM     15  H6  <0> d           0.981  -2.532  -4.774  0.00  0.00     0.030 H 
ATOM     16  H7  <0> d           0.610  -2.810  -3.056  0.00  0.00     0.030 H 
ATOM     17  H8  <0> d          -0.636  -2.143  -4.139  0.00  0.00     0.030 H 
ENDBRANCH  12  14
BRANCH  12  18
ATOM     18  C6  <0> d           0.648   0.174  -4.780  0.00  0.00    -0.052 C 
ATOM     19  H9  <0> d           0.984   1.184  -4.545  0.00  0.00     0.030 H 
ATOM     20  H10 <0> d           1.199  -0.200  -5.644  0.00  0.00     0.030 H 
ATOM     21  H11 <0> d          -0.417   0.189  -5.008  0.00  0.00     0.030 H 
ENDBRANCH  12  18
ENDBRANCH   1  12
TORSDOF 7
