REMARK  6 active torsions:
REMARK  status: ('A' for Active; 'I' for Inactive)
REMARK    1  A    between atoms: C1_1  and  C2_2 
REMARK    2  A    between atoms: C4_6  and  C5_8 
REMARK    3  A    between atoms: C4_6  and  C6_9 
REMARK    4  A    between atoms: C6_9  and  C7_10 
REMARK    5  A    between atoms: C7_10  and  C8_11 
REMARK    6  A    between atoms: C7_10  and  C9_12 
ROOT
ATOM      1  C2  <0> d          -3.701  -1.714   0.146  0.00  0.00     0.059 C 
ATOM      2  H1  <0> d          -3.996  -1.215  -0.777  0.00  0.00     0.086 H 
ATOM      3  C3  <0> d          -2.238  -2.215   0.059  0.00  0.00     0.047 C 
ATOM      4  O1  <0> d          -1.500  -1.019   0.398  0.00  0.00    -0.353 OA
ATOM      5  C4  <0> d          -2.297  -0.361   1.397  0.00  0.00     0.161 C 
ATOM      6  O2  <0> d          -3.660  -0.777   1.242  0.00  0.00    -0.348 OA
ATOM      7  H5  <0> d          -2.054  -3.008   0.784  0.00  0.00     0.078 H 
ATOM      8  H6  <0> d          -1.999  -2.549  -0.950  0.00  0.00     0.078 H 
ENDROOT
BRANCH   5   9
ATOM      9  C5  <0> d          -1.797  -0.748   2.790  0.00  0.00    -0.025 C 
ATOM     10  H7  <0> d          -2.408  -0.254   3.545  0.00  0.00     0.035 H 
ATOM     11  H8  <0> d          -1.869  -1.829   2.915  0.00  0.00     0.035 H 
ATOM     12  H9  <0> d          -0.758  -0.438   2.902  0.00  0.00     0.035 H 
ENDBRANCH   5   9
BRANCH   5  13
ATOM     13  C6  <0> d          -2.198   1.155   1.217  0.00  0.00    -0.011 C 
ATOM     14  H10 <0> d          -2.886   1.648   1.904  0.00  0.00     0.041 H 
ATOM     15  H11 <0> d          -2.458   1.417   0.192  0.00  0.00     0.041 H 
BRANCH  13  16
ATOM     16  C7  <0> d          -0.768   1.611   1.513  0.00  0.00    -0.056 C 
ATOM     17  H12 <0> d          -0.468   1.251   2.498  0.00  0.00     0.039 H 
BRANCH  16  18
ATOM     18  C8  <0> d           0.178   1.043   0.454  0.00  0.00    -0.073 C 
ATOM     19  H13 <0> d           0.243  -0.039   0.567  0.00  0.00     0.028 H 
ATOM     20  H14 <0> d           1.168   1.482   0.578  0.00  0.00     0.028 H 
ATOM     21  H15 <0> d          -0.203   1.282  -0.539  0.00  0.00     0.028 H 
ENDBRANCH  16  18
BRANCH  16  22
ATOM     22  C9  <0> d          -0.704   3.139   1.488  0.00  0.00    -0.073 C 
ATOM     23  H16 <0> d          -1.004   3.499   0.503  0.00  0.00     0.028 H 
ATOM     24  H17 <0> d          -1.379   3.544   2.243  0.00  0.00     0.028 H 
ATOM     25  H18 <0> d           0.314   3.464   1.698  0.00  0.00     0.028 H 
ENDBRANCH  16  22
ENDBRANCH  13  16
ENDBRANCH   5  13
BRANCH   1  26
ATOM     26  C1  <0> d          -4.652  -2.871   0.460  0.00  0.00    -0.050 C 
ATOM     27  H2  <0> d          -5.661  -2.484   0.603  0.00  0.00     0.031 H 
ATOM     28  H3  <0> d          -4.647  -3.579  -0.368  0.00  0.00     0.031 H 
ATOM     29  H4  <0> d          -4.324  -3.374   1.370  0.00  0.00     0.031 H 
ENDBRANCH   1  26
TORSDOF 6
