REMARK  5 active torsions:
REMARK  status: ('A' for Active; 'I' for Inactive)
REMARK    1  A    between atoms: C1_1  and  C2_2 
REMARK    2  A    between atoms: C3_3  and  O2_10 
REMARK    3  A    between atoms: C6_7  and  O1_8 
REMARK    4  A    between atoms: O1_8  and  C7_9 
REMARK    5  A    between atoms: O2_10  and  C8_11 
ROOT
ATOM      1  C2  <0> d           0.002  -0.004   0.002  0.00  0.00     0.024 A 
ATOM      2  C3  <0> d           0.006  -0.703  -1.200  0.00  0.00     0.079 A 
ATOM      3  C4  <0> d           0.025  -2.096  -1.157  0.00  0.00    -0.033 A 
ATOM      4  C5  <0> d           0.039  -2.731   0.067  0.00  0.00     0.008 A 
ATOM      5  N1  <0> d           0.035  -2.037   1.191  0.00  0.00    -0.236 NA
ATOM      6  C6  <0> d           0.023  -0.714   1.193  0.00  0.00     0.172 A 
ATOM      7  H4  <0> d           0.028  -2.671  -2.071  0.00  0.00     0.090 H 
ATOM      8  H5  <0> d           0.054  -3.810   0.107  0.00  0.00     0.115 H 
ENDROOT
BRANCH   2   9
ATOM      9  O2  <0> d          -0.009  -0.044  -2.387  0.00  0.00    -0.355 OA
BRANCH   9  10
ATOM     10  C8  <0> d          -0.004  -0.843  -3.572  0.00  0.00     0.010 C 
ATOM     11  H9  <0> d           0.895  -1.460  -3.591  0.00  0.00     0.066 H 
ATOM     12  H10 <0> d          -0.885  -1.484  -3.582  0.00  0.00     0.066 H 
ATOM     13  H11 <0> d          -0.017  -0.194  -4.448  0.00  0.00     0.066 H 
ENDBRANCH   9  10
ENDBRANCH   2   9
BRANCH   1  14
ATOM     14  C1  <0> d          -0.018   1.503   0.010  0.00  0.00    -0.044 C 
ATOM     15  H1  <0> d           1.004   1.880   0.003  0.00  0.00     0.033 H 
ATOM     16  H2  <0> d          -0.545   1.864  -0.873  0.00  0.00     0.033 H 
ATOM     17  H3  <0> d          -0.529   1.854   0.907  0.00  0.00     0.033 H 
ENDBRANCH   1  14
BRANCH   6  18
ATOM     18  O1  <0> d           0.026  -0.044   2.373  0.00  0.00    -0.339 OA
BRANCH  18  19
ATOM     19  C7  <0> d           0.048  -0.832   3.566  0.00  0.00     0.012 C 
ATOM     20  H6  <0> d          -0.834  -1.472   3.594  0.00  0.00     0.067 H 
ATOM     21  H7  <0> d           0.946  -1.449   3.577  0.00  0.00     0.067 H 
ATOM     22  H8  <0> d           0.047  -0.174   4.435  0.00  0.00     0.067 H 
ENDBRANCH  18  19
ENDBRANCH   6  18
TORSDOF 5
