REMARK  1 active torsions:
REMARK  status: ('A' for Active; 'I' for Inactive)
REMARK    1  A    between atoms: C4_6  and  C5_7 
ROOT
ATOM      1  C1  <0> d           1.323  -0.402  -0.013  0.00  0.00    -0.028 A 
ATOM      2  C2  <0> d           2.102   0.760  -0.014  0.00  0.00     0.051 A 
ATOM      3  C3  <0> d           1.262   1.823  -0.000  0.00  0.00    -0.001 A 
ATOM      4  N1  <0> d          -0.017   1.373   0.010  0.00  0.00    -0.359 N 
ATOM      5  H1  <0> d          -0.812   1.928   0.017  0.00  0.00     0.165 HD
ATOM      6  C4  <0> d           0.002  -0.004   0.002  0.00  0.00     0.111 A 
ATOM      7 Cl1  <0> d           3.837   0.827  -0.030  0.00  0.00    -0.083 Cl
ATOM      8  H2  <0> d           1.688  -1.419  -0.021  0.00  0.00     0.090 H 
ATOM      9  H3  <0> d           1.562   2.861   0.002  0.00  0.00     0.113 H 
ENDROOT
BRANCH   6  10
ATOM     10  C5  <0> d          -1.168  -0.886   0.008  0.00  0.00     0.226 C 
ATOM     11  O1  <0> d          -1.019  -2.093   0.001  0.00  0.00    -0.643 OA
ATOM     12  O2  <0> d          -2.409  -0.359   0.023  0.00  0.00    -0.643 OA
ENDBRANCH   6  10
TORSDOF 1
