REMARK  1 active torsions:
REMARK  status: ('A' for Active; 'I' for Inactive)
REMARK    1  A    between atoms: C5_6  and  C6_8 
ROOT
ATOM      1  C1  <0> d           2.491   1.007  -0.016  0.00  0.00    -0.046 C 
ATOM      2  C2  <0> d           3.616   1.874   0.602  0.00  0.00    -0.009 C 
ATOM      3  C3  <0> d           2.922   2.679   1.685  0.00  0.00     0.127 C 
ATOM      4  O1  <0> d           3.443   3.167   2.659  0.00  0.00    -0.298 OA
ATOM      5  C4  <0> d           1.454   2.757   1.319  0.00  0.00     0.003 C 
ATOM      6  C5  <0> d           1.280   1.975   0.000  0.00  0.00     0.037 C 
ATOM      7  H1  <0> d           1.318   2.650  -0.855  0.00  0.00     0.057 H 
ATOM      8  H2  <0> d           2.294   0.130   0.600  0.00  0.00     0.034 H 
ATOM      9  H3  <0> d           2.741   0.717  -1.037  0.00  0.00     0.034 H 
ATOM     10  H4  <0> d           4.332   1.279   0.968  0.00  0.00     0.044 H 
ATOM     11  H5  <0> d           4.044   2.535  -0.152  0.00  0.00     0.044 H 
ATOM     12  H6  <0> d           1.189   3.714   1.207  0.00  0.00     0.045 H 
ATOM     13  H7  <0> d           0.850   2.302   2.104  0.00  0.00     0.045 H 
ENDROOT
BRANCH   6  14
ATOM     14  C6  <0> d          -0.014   1.204   0.009  0.00  0.00     0.177 C 
ATOM     15  O2  <0> d           0.002  -0.004   0.002  0.00  0.00    -0.648 OA
ATOM     16  O3  <0> d          -1.186   1.859   0.018  0.00  0.00    -0.648 OA
ENDBRANCH   6  14
TORSDOF 1
