REMARK  3 active torsions:
REMARK  status: ('A' for Active; 'I' for Inactive)
REMARK    1  A    between atoms: C1_1  and  O1_2 
REMARK    2  A    between atoms: O1_2  and  C2_3 
REMARK    3  A    between atoms: C5_6  and  C6_9 
ROOT
ATOM      1  C2  <0> d          -3.610   3.330   0.038  0.00  0.00     0.185 A 
ATOM      2  C3  <0> d          -3.691   1.939   0.031  0.00  0.00    -0.028 A 
ATOM      3  C4  <0> d          -2.509   1.218   0.021  0.00  0.00    -0.043 A 
ATOM      4  C5  <0> d          -1.304   1.932   0.019  0.00  0.00     0.155 A 
ATOM      5  N1  <0> d          -1.325   3.260   0.032  0.00  0.00    -0.141 NA
ATOM      6  N2  <0> d          -2.423   3.924   0.036  0.00  0.00    -0.124 NA
ATOM      7  H4  <0> d          -4.647   1.437   0.032  0.00  0.00     0.090 H 
ATOM      8  H5  <0> d          -2.516   0.138   0.014  0.00  0.00     0.087 H 
ENDROOT
BRANCH   1   9
ATOM      9  O1  <0> d          -4.742   4.075   0.048  0.00  0.00    -0.338 OA
BRANCH   9  10
ATOM     10  C1  <0> d          -4.583   5.495   0.055  0.00  0.00     0.012 C 
ATOM     11  H1  <0> d          -5.573   5.974   0.062  0.00  0.00     0.067 H 
ATOM     12  H2  <0> d          -4.031   5.807  -0.844  0.00  0.00     0.067 H 
ATOM     13  H3  <0> d          -4.023   5.797   0.952  0.00  0.00     0.067 H 
ENDBRANCH   9  10
ENDBRANCH   1   9
BRANCH   4  14
ATOM     14  C6  <0> d          -0.014   1.210   0.009  0.00  0.00     0.230 C 
ATOM     15  O2  <0> d           0.002  -0.004   0.002  0.00  0.00    -0.643 OA
ATOM     16  O3  <0> d           1.143   1.900   0.001  0.00  0.00    -0.643 OA
ENDBRANCH   4  14
TORSDOF 3
