REMARK  2 active torsions:
REMARK  status: ('A' for Active; 'I' for Inactive)
REMARK    1  A    between atoms: C1_1  and  C2_2 
REMARK    2  A    between atoms: C7_7  and  C8_8 
ROOT
ATOM      1  C8  <0> d           0.025  -0.005   2.452  0.00  0.00    -0.077 C 
ATOM      2  C9  <0> d           0.027   0.573   3.474  0.00  0.00    -0.149 C 
ATOM      3  H8  <0> d           0.029   1.089   4.388  0.00  0.00     0.166 H 
ENDROOT
BRANCH   1   4
ATOM      4  C7  <0> d           0.023  -0.710   1.206  0.00  0.00     0.022 A 
ATOM      5  C2  <0> d           0.002  -0.004   0.002  0.00  0.00    -0.043 A 
ATOM      6  C3  <0> d           0.006  -0.689  -1.196  0.00  0.00    -0.076 A 
ATOM      7  C4  <0> d           0.025  -2.072  -1.205  0.00  0.00    -0.082 A 
ATOM      8  H4  <0> d          -0.006  -0.144  -2.128  0.00  0.00     0.084 H 
ATOM      9  C5  <0> d           0.040  -2.778  -0.015  0.00  0.00    -0.082 A 
ATOM     10  H5  <0> d           0.027  -2.603  -2.146  0.00  0.00     0.083 H 
ATOM     11  C6  <0> d           0.037  -2.105   1.189  0.00  0.00    -0.064 A 
ATOM     12  H6  <0> d           0.055  -3.857  -0.029  0.00  0.00     0.083 H 
ATOM     13  H7  <0> d           0.048  -2.657   2.117  0.00  0.00     0.085 H 
BRANCH   5  14
ATOM     14  C1  <0> d          -0.018   1.503   0.010  0.00  0.00    -0.050 C 
ATOM     15  H1  <0> d           1.004   1.880   0.003  0.00  0.00     0.033 H 
ATOM     16  H2  <0> d          -0.545   1.864  -0.873  0.00  0.00     0.033 H 
ATOM     17  H3  <0> d          -0.529   1.854   0.907  0.00  0.00     0.033 H 
ENDBRANCH   5  14
ENDBRANCH   1   4
TORSDOF 2
