REMARK  8 active torsions:
REMARK  status: ('A' for Active; 'I' for Inactive)
REMARK    1  A    between atoms: C1_1  and  C2_2 
REMARK    2  A    between atoms: C2_2  and  C3_3 
REMARK    3  A    between atoms: C2_2  and  C4_4 
REMARK    4  A    between atoms: C2_2  and  O2_9 
REMARK    5  A    between atoms: C5_5  and  C6_6 
REMARK    6  A    between atoms: C6_6  and  O1_7 
REMARK    7  A    between atoms: O1_7  and  C7_8 
REMARK    8  A    between atoms: O2_9  and  C8_10 
ROOT
ATOM      1  C2  <0> d          -3.861  -1.429   0.031  0.00  0.00     0.116 C 
ENDROOT
BRANCH   1   2
ATOM      2  C1  <0> d          -4.577  -0.936   1.290  0.00  0.00    -0.038 C 
ATOM      3  H1  <0> d          -4.592   0.154   1.296  0.00  0.00     0.033 H 
ATOM      4  H2  <0> d          -5.600  -1.313   1.298  0.00  0.00     0.033 H 
ATOM      5  H3  <0> d          -4.050  -1.297   2.173  0.00  0.00     0.033 H 
ENDBRANCH   1   2
BRANCH   1   6
ATOM      6  C3  <0> d          -4.601  -0.923  -1.208  0.00  0.00    -0.038 C 
ATOM      7  H4  <0> d          -4.091  -1.274  -2.105  0.00  0.00     0.033 H 
ATOM      8  H5  <0> d          -5.624  -1.300  -1.200  0.00  0.00     0.033 H 
ATOM      9  H6  <0> d          -4.616   0.167  -1.202  0.00  0.00     0.033 H 
ENDBRANCH   1   6
BRANCH   1  10
ATOM     10  C4  <0> d          -2.480  -0.920   0.021  0.00  0.00    -0.067 C 
ATOM     11  C5  <0> d          -1.379  -0.514   0.013  0.00  0.00    -0.077 C 
BRANCH  11  12
ATOM     12  C6  <0> d           0.002  -0.004   0.002  0.00  0.00     0.073 C 
ATOM     13  H7  <0> d           0.512  -0.356  -0.895  0.00  0.00     0.093 H 
ATOM     14  H8  <0> d           0.529  -0.365   0.885  0.00  0.00     0.093 H 
BRANCH  12  15
ATOM     15  O1  <0> d          -0.017   1.425   0.010  0.00  0.00    -0.384 OA
BRANCH  15  16
ATOM     16  C7  <0> d           1.280   2.024   0.001  0.00  0.00     0.005 C 
ATOM     17  H9  <0> d           1.179   3.109   0.007  0.00  0.00     0.066 H 
ATOM     18  H10 <0> d           1.834   1.705   0.884  0.00  0.00     0.066 H 
ATOM     19  H11 <0> d           1.817   1.714  -0.896  0.00  0.00     0.066 H 
ENDBRANCH  15  16
ENDBRANCH  12  15
ENDBRANCH  11  12
ENDBRANCH   1  10
BRANCH   1  20
ATOM     20  O2  <0> d          -3.842  -2.858   0.023  0.00  0.00    -0.373 OA
BRANCH  20  21
ATOM     21  C8  <0> d          -5.139  -3.457   0.033  0.00  0.00     0.006 C 
ATOM     22  H12 <0> d          -5.038  -4.543   0.026  0.00  0.00     0.066 H 
ATOM     23  H13 <0> d          -5.676  -3.148   0.929  0.00  0.00     0.066 H 
ATOM     24  H14 <0> d          -5.693  -3.138  -0.851  0.00  0.00     0.066 H 
ENDBRANCH  20  21
ENDBRANCH   1  20
TORSDOF 8
