REMARK  1 active torsions:
REMARK  status: ('A' for Active; 'I' for Inactive)
REMARK    1  A    between atoms: C5_5  and  O1_7 
ROOT
ATOM      1  C1  <0> d          -2.104   4.820  -2.276  0.00  0.00    -0.078 A 
ATOM      2  C2  <0> d          -1.642   3.517  -2.308  0.00  0.00    -0.055 A 
ATOM      3  C3  <0> d          -1.208   2.906  -1.141  0.00  0.00     0.064 A 
ATOM      4  C4  <0> d          -1.232   3.602   0.063  0.00  0.00     0.128 A 
ATOM      5  C5  <0> d          -1.698   4.912   0.088  0.00  0.00     0.101 A 
ATOM      6  C6  <0> d          -2.132   5.516  -1.083  0.00  0.00    -0.048 A 
ATOM      7  O2  <0> d          -0.804   3.018   1.214  0.00  0.00    -0.344 OA
ATOM      8  C7  <0> d          -0.750   1.590   1.257  0.00  0.00     0.041 C 
ATOM      9  C8  <0> d          -0.013   1.086   0.008  0.00  0.00     0.013 C 
ATOM     10  N1  <0> d          -0.742   1.582  -1.171  0.00  0.00    -0.386 N 
ATOM     11  H1  <0> d          -2.442   5.295  -3.186  0.00  0.00     0.083 H 
ATOM     12  H2  <0> d          -1.621   2.974  -3.242  0.00  0.00     0.087 H 
ATOM     13  H3  <0> d          -2.493   6.534  -1.062  0.00  0.00     0.087 H 
ATOM     14  H5  <0> d          -0.211   1.271   2.162  0.00  0.00     0.077 H 
ATOM     15  H6  <0> d          -1.772   1.184   1.276  0.00  0.00     0.077 H 
ATOM     16  H7  <0> d           1.018   1.470   0.010  0.00  0.00     0.067 H 
ATOM     17  H8  <0> d           0.006  -0.014   0.012  0.00  0.00     0.067 H 
ATOM     18  H9  <0> d          -0.906   0.921  -2.035  0.00  0.00     0.159 HD
ENDROOT
BRANCH   5  19
ATOM     19  O1  <0> d          -1.727   5.601   1.260  0.00  0.00    -0.358 OA
ATOM     20  H4  <0> d          -2.096   6.638   1.280  0.00  0.00     0.217 HD
ENDBRANCH   5  19
TORSDOF 1
