REMARK  4 active torsions:
REMARK  status: ('A' for Active; 'I' for Inactive)
REMARK    1  A    between atoms: C1_1  and  C2_2 
REMARK    2  A    between atoms: C2_2  and  C3_3 
REMARK    3  A    between atoms: C2_2  and  C4_4 
REMARK    4  A    between atoms: C5_6  and  N3_9 
ROOT
ATOM      1  C2  <0> d           0.002  -0.004   0.002  0.00  0.00     0.001 C 
ATOM      2  H4  <0> d          -1.020  -0.381   0.010  0.00  0.00     0.051 H 
ENDROOT
BRANCH   1   3
ATOM      3  C1  <0> d          -0.019   1.526   0.010  0.00  0.00    -0.066 C 
ATOM      4  H1  <0> d           1.004   1.903   0.003  0.00  0.00     0.028 H 
ATOM      5  H2  <0> d          -0.546   1.887  -0.873  0.00  0.00     0.028 H 
ATOM      6  H3  <0> d          -0.529   1.877   0.907  0.00  0.00     0.028 H 
ENDBRANCH   1   3
BRANCH   1   7
ATOM      7  C3  <0> d           0.718  -0.497  -1.257  0.00  0.00    -0.066 C 
ATOM      8  H5  <0> d           1.741  -0.120  -1.264  0.00  0.00     0.028 H 
ATOM      9  H6  <0> d           0.733  -1.587  -1.263  0.00  0.00     0.028 H 
ATOM     10  H7  <0> d           0.191  -0.136  -2.140  0.00  0.00     0.028 H 
ENDBRANCH   1   7
BRANCH   1  11
ATOM     11  C4  <0> d           0.731  -0.503   1.223  0.00  0.00     0.161 A 
ATOM     12  N2  <0> d           1.971  -0.240   1.523  0.00  0.00    -0.109 NA
ATOM     13  O1  <0> d           2.245  -0.905   2.747  0.00  0.00    -0.173 OA
ATOM     14  C5  <0> d           1.113  -1.540   3.091  0.00  0.00     0.267 A 
ATOM     15  N1  <0> d           0.211  -1.291   2.168  0.00  0.00    -0.189 NA
BRANCH  14  16
ATOM     16  N3  <0> d           0.929  -2.313   4.212  0.00  0.00    -0.362 N 
ATOM     17  H8  <0> d           0.070  -2.733   4.376  0.00  0.00     0.159 HD
ATOM     18  H9  <0> d           1.659  -2.439   4.839  0.00  0.00     0.159 HD
ENDBRANCH  14  16
ENDBRANCH   1  11
TORSDOF 4
