REMARK  2 active torsions:
REMARK  status: ('A' for Active; 'I' for Inactive)
REMARK    1  A    between atoms: C1_1  and  N1_2 
REMARK    2  A    between atoms: C4_6  and  N3_11 
ROOT
ATOM      1  N1  <0> d           1.165  -0.681  -0.013  0.00  0.00    -0.271 N 
ATOM      2  C2  <0> d           2.341  -0.023  -0.020  0.00  0.00     0.254 A 
ATOM      3  O1  <0> d           3.390  -0.643  -0.034  0.00  0.00    -0.268 OA
ATOM      4  C3  <0> d           2.350   1.380  -0.013  0.00  0.00     0.025 A 
ATOM      5  C4  <0> d           1.159   2.052   0.002  0.00  0.00     0.107 A 
ATOM      6  N2  <0> d          -0.016   1.341   0.009  0.00  0.00    -0.294 N 
ATOM      7  H1  <0> d          -0.864   1.812   0.016  0.00  0.00     0.172 HD
ATOM      8  C5  <0> d           0.002  -0.004   0.002  0.00  0.00     0.330 A 
ATOM      9  O2  <0> d          -1.048  -0.617   0.008  0.00  0.00    -0.246 OA
ATOM     10  H5  <0> d           3.284   1.922  -0.018  0.00  0.00     0.098 H 
ENDROOT
BRANCH   1  11
ATOM     11  C1  <0> d           1.152  -2.146  -0.021  0.00  0.00    -0.007 C 
ATOM     12  H2  <0> d           1.139  -2.504  -1.050  0.00  0.00     0.057 H 
ATOM     13  H3  <0> d           2.044  -2.520   0.483  0.00  0.00     0.057 H 
ATOM     14  H4  <0> d           0.264  -2.504   0.500  0.00  0.00     0.057 H 
ENDBRANCH   1  11
BRANCH   5  15
ATOM     15  N3  <0> d           1.139   3.424   0.010  0.00  0.00    -0.385 N 
ATOM     16  H6  <0> d           0.292   3.896   0.021  0.00  0.00     0.157 HD
ATOM     17  H7  <0> d           1.972   3.921   0.005  0.00  0.00     0.157 HD
ENDBRANCH   5  15
TORSDOF 2
