REMARK  2 active torsions:
REMARK  status: ('A' for Active; 'I' for Inactive)
REMARK    1  A    between atoms: C1_1  and  O1_2 
REMARK    2  A    between atoms: O1_2  and  C2_3 
ROOT
ATOM      1  C2  <0> d           1.153   1.670  -0.009  0.00  0.00     0.269 A 
ATOM      2  N1  <0> d          -0.011   0.966   0.003  0.00  0.00    -0.151 NA
ATOM      3  C3  <0> d          -1.184   1.633   0.017  0.00  0.00     0.347 A 
ATOM      4  O2  <0> d          -2.239   1.021   0.019  0.00  0.00    -0.245 OA
ATOM      5  N2  <0> d          -1.182   2.971   0.029  0.00  0.00    -0.314 N 
ATOM      6  C4  <0> d          -0.044   3.635   0.021  0.00  0.00     0.142 A 
ATOM      7  N3  <0> d           1.118   2.992  -0.002  0.00  0.00    -0.219 NA
ATOM      8  H4  <0> d          -0.004   4.219  -0.789  0.00  0.00     0.116 H 
ATOM      9  H5  <0> d          -2.133   3.523   0.045  0.00  0.00     0.166 HD
ENDROOT
BRANCH   1  10
ATOM     10  O1  <0> d           2.335   1.024  -0.029  0.00  0.00    -0.324 OA
BRANCH  10  11
ATOM     11  C1  <0> d           3.534   1.844  -0.041  0.00  0.00     0.013 C 
ATOM     12  H1  <0> d           4.421   1.194  -0.056  0.00  0.00     0.067 H 
ATOM     13  H2  <0> d           3.556   2.474   0.861  0.00  0.00     0.067 H 
ATOM     14  H3  <0> d           3.531   2.483  -0.935  0.00  0.00     0.067 H 
ENDBRANCH  10  11
ENDBRANCH   1  10
TORSDOF 2
