REMARK  4 active torsions:
REMARK  status: ('A' for Active; 'I' for Inactive)
REMARK    1  A    between atoms: C1_1  and  C2_2 
REMARK    2  A    between atoms: C2_2  and  O2_10 
REMARK    3  A    between atoms: C3_3  and  C6_8 
REMARK    4  A    between atoms: C3_3  and  C7_9 
ROOT
ATOM      1  C2  <0> d           0.002  -0.004   0.002  0.00  0.00     0.137 C 
ATOM      2  C3  <0> d          -1.438  -0.559   0.076  0.00  0.00     0.010 C 
ATOM      3  C4  <0> d          -1.618  -0.767   1.597  0.00  0.00     0.020 C 
ATOM      4  C5  <0> d          -0.207  -0.940   2.118  0.00  0.00     0.220 C 
ATOM      5  O1  <0> d           0.082  -1.399   3.202  0.00  0.00    -0.274 OA
ATOM      6  N1  <0> d           0.678  -0.509   1.202  0.00  0.00    -0.329 N 
ATOM      7  H4  <0> d          -2.087   0.106   2.050  0.00  0.00     0.048 H 
ATOM      8  H5  <0> d          -2.208  -1.663   1.793  0.00  0.00     0.048 H 
ATOM      9  H6  <0> d           1.641  -0.530   1.320  0.00  0.00     0.165 HD
ENDROOT
BRANCH   2  10
ATOM     10  C6  <0> d          -2.445   0.461  -0.460  0.00  0.00    -0.065 C 
ATOM     11  H7  <0> d          -2.212   0.690  -1.499  0.00  0.00     0.028 H 
ATOM     12  H8  <0> d          -3.451   0.045  -0.396  0.00  0.00     0.028 H 
ATOM     13  H9  <0> d          -2.391   1.373   0.135  0.00  0.00     0.028 H 
ENDBRANCH   2  10
BRANCH   2  14
ATOM     14  C7  <0> d          -1.553  -1.886  -0.676  0.00  0.00    -0.065 C 
ATOM     15  H10 <0> d          -0.874  -2.615  -0.233  0.00  0.00     0.028 H 
ATOM     16  H11 <0> d          -2.576  -2.255  -0.609  0.00  0.00     0.028 H 
ATOM     17  H12 <0> d          -1.290  -1.734  -1.723  0.00  0.00     0.028 H 
ENDBRANCH   2  14
BRANCH   1  18
ATOM     18  C1  <0> d          -0.019   1.526   0.010  0.00  0.00    -0.030 C 
ATOM     19  H1  <0> d           1.004   1.903   0.003  0.00  0.00     0.034 H 
ATOM     20  H2  <0> d          -0.546   1.887  -0.873  0.00  0.00     0.034 H 
ATOM     21  H3  <0> d          -0.529   1.877   0.907  0.00  0.00     0.034 H 
ENDBRANCH   1  18
BRANCH   1  22
ATOM     22  O2  <0> d           0.658  -0.483  -1.174  0.00  0.00    -0.370 OA
ATOM     23  H13 <0> d           1.573  -0.182  -1.263  0.00  0.00     0.212 HD
ENDBRANCH   1  22
TORSDOF 4
