REMARK  1 active torsions:
REMARK  status: ('A' for Active; 'I' for Inactive)
REMARK    1  A    between atoms: C2_2  and  C4_7 
REMARK       I    between atoms: C4_7  and  N1_9 
ROOT
ATOM      1  C1  <0> d          -2.609   1.105   0.020  0.00  0.00    -0.017 A 
ATOM      2  C2  <0> d          -1.330   1.944   0.019  0.00  0.00     0.060 A 
ATOM      3  H1  <0> d          -1.341   2.880   0.579  0.00  0.00     0.059 H 
ATOM      4  C3  <0> d          -2.194   1.864  -1.241  0.00  0.00     0.126 A 
ATOM      5 Cl1  <0> d          -3.153   3.325  -1.687  0.00  0.00    -0.101 Cl
ATOM      6 Cl2  <0> d          -1.560   0.897  -2.625  0.00  0.00    -0.101 Cl
ATOM      7  H2  <0> d          -2.499   0.020   0.014  0.00  0.00     0.039 H 
ATOM      8  H3  <0> d          -3.461   1.488   0.581  0.00  0.00     0.039 H 
ENDROOT
BRANCH   2   9
ATOM      9  C4  <0> d          -0.014   1.209   0.009  0.00  0.00     0.222 C 
ATOM     10  O1  <0> d           0.002  -0.004   0.002  0.00  0.00    -0.273 OA
ATOM     11  N1  <0> d           1.143   1.898   0.001  0.00  0.00    -0.370 N 
ATOM     12  H4  <0> d           1.990   1.425  -0.009  0.00  0.00     0.159 HD
ATOM     13  H5  <0> d           1.130   2.868   0.007  0.00  0.00     0.159 HD
ENDBRANCH   2   9
TORSDOF 1
