REMARK  3 active torsions:
REMARK  status: ('A' for Active; 'I' for Inactive)
REMARK    1  A    between atoms: C1_1  and  C2_2 
REMARK    2  A    between atoms: C2_2  and  C3_3 
REMARK    3  A    between atoms: C4_5  and  C7_11 
ROOT
ATOM      1  C3  <0> d          -2.205   1.785   0.683  0.00  0.00     0.028 C 
ATOM      2  H1  <0> d          -2.680   2.662   1.123  0.00  0.00     0.055 H 
ATOM      3  C4  <0> d          -0.775   1.603   1.248  0.00  0.00    -0.030 C 
ATOM      4  H2  <0> d          -0.761   0.865   2.050  0.00  0.00     0.043 H 
ATOM      5  C5  <0> d          -0.013   1.086   0.008  0.00  0.00    -0.001 C 
ATOM      6  N1  <0> d          -0.759   1.590  -1.151  0.00  0.00    -0.360 N 
ATOM      7  C6  <0> d          -1.996   1.984  -0.801  0.00  0.00     0.222 C 
ATOM      8  O1  <0> d          -2.823   2.434  -1.565  0.00  0.00    -0.273 OA
ATOM      9  H8  <0> d           0.002  -0.004   0.002  0.00  0.00     0.064 H 
ATOM     10  H9  <0> d           1.005   1.476   0.000  0.00  0.00     0.064 H 
ATOM     11  H10 <0> d          -0.405   1.633  -2.053  0.00  0.00     0.162 HD
ENDROOT
BRANCH   1  12
ATOM     12  C2  <0> d          -3.049   0.535   0.942  0.00  0.00    -0.057 C 
ATOM     13  H6  <0> d          -2.597  -0.319   0.438  0.00  0.00     0.033 H 
ATOM     14  H7  <0> d          -3.094   0.342   2.014  0.00  0.00     0.033 H 
BRANCH  12  15
ATOM     15  C1  <0> d          -4.464   0.755   0.404  0.00  0.00    -0.076 C 
ATOM     16  H3  <0> d          -5.065  -0.136   0.588  0.00  0.00     0.027 H 
ATOM     17  H4  <0> d          -4.916   1.609   0.908  0.00  0.00     0.027 H 
ATOM     18  H5  <0> d          -4.419   0.947  -0.668  0.00  0.00     0.027 H 
ENDBRANCH  12  15
ENDBRANCH   1  12
BRANCH   3  19
ATOM     19  C7  <0> d          -0.200   2.938   1.726  0.00  0.00    -0.071 C 
ATOM     20  H11 <0> d          -0.263   3.670   0.920  0.00  0.00     0.028 H 
ATOM     21  H12 <0> d          -0.771   3.293   2.584  0.00  0.00     0.028 H 
ATOM     22  H13 <0> d           0.842   2.803   2.014  0.00  0.00     0.028 H 
ENDBRANCH   3  19
TORSDOF 3
