REMARK  1 active torsions:
REMARK  status: ('A' for Active; 'I' for Inactive)
REMARK    1  A    between atoms: C3_4  and  N2_6 
REMARK       I    between atoms: N2_6  and  C4_7 
ROOT
ATOM      1  C1  <0> d          -0.016   1.316   0.009  0.00  0.00     0.011 A 
ATOM      2  C2  <0> d           1.183   1.948   0.001  0.00  0.00    -0.025 A 
ATOM      3  S1  <0> d           2.296   0.552  -0.017  0.00  0.00    -0.062 SA
ATOM      4  C3  <0> d           1.137  -0.668  -0.012  0.00  0.00     0.175 A 
ATOM      5  N1  <0> d           0.002  -0.004   0.002  0.00  0.00    -0.236 NA
ATOM      6  H1  <0> d          -0.944   1.867   0.025  0.00  0.00     0.115 H 
ATOM      7  H2  <0> d           1.404   3.006   0.004  0.00  0.00     0.097 H 
ENDROOT
BRANCH   4   8
ATOM      8  N2  <0> d           1.333  -2.045  -0.022  0.00  0.00    -0.279 N 
ATOM      9  C4  <0> d           0.272  -2.876  -0.016  0.00  0.00     0.289 C 
ATOM     10  O1  <0> d          -0.863  -2.420  -0.003  0.00  0.00    -0.629 OA
ATOM     11  O2  <0> d           0.443  -4.087  -0.025  0.00  0.00    -0.629 OA
ATOM     12  H3  <0> d           2.232  -2.407  -0.033  0.00  0.00     0.174 HD
ENDBRANCH   4   8
TORSDOF 1
