REMARK  0 active torsions:
REMARK  status: ('A' for Active; 'I' for Inactive)
ROOT
ATOM      1  C1  <0> d          -1.097   1.773   0.016  0.00  0.00     0.348 A 
ATOM      2  O1  <0> d          -2.261   1.421   0.018  0.00  0.00    -0.245 OA
ATOM      3  N1  <0> d          -0.011   0.966   0.007  0.00  0.00    -0.251 N 
ATOM      4  H1  <0> d           0.002  -0.004   0.002  0.00  0.00     0.176 HD
ATOM      5  C2  <0> d           1.052   1.802   0.002  0.00  0.00     0.390 A 
ATOM      6  O2  <0> d           2.224   1.480  -0.011  0.00  0.00    -0.236 OA
ATOM      7  O3  <0> d           0.571   3.052   0.013  0.00  0.00    -0.177 OA
ATOM      8  N2  <0> d          -0.641   3.041   0.024  0.00  0.00    -0.205 N 
ATOM      9  H2  <0> d          -1.203   3.831   0.033  0.00  0.00     0.200 HD
ENDROOT
TORSDOF 0
