REMARK  5 active torsions:
REMARK  status: ('A' for Active; 'I' for Inactive)
REMARK    1  A    between atoms: C1_1  and  C2_2 
REMARK    2  A    between atoms: C2_2  and  C3_3 
REMARK    3  A    between atoms: C4_6  and  S1_9 
REMARK    4  A    between atoms: N3_7  and  N4_8 
REMARK    5  A    between atoms: S1_9  and  C5_10 
ROOT
ATOM      1  C3  <0> d          -0.282   1.804  -2.290  0.00  0.00     0.145 A 
ATOM      2  N1  <0> d          -1.301   2.228  -2.982  0.00  0.00    -0.133 NA
ATOM      3  N2  <0> d          -2.363   2.212  -2.259  0.00  0.00    -0.121 NA
ATOM      4  C4  <0> d          -2.077   1.768  -1.057  0.00  0.00     0.205 A 
ATOM      5  N3  <0> d          -0.741   1.490  -1.041  0.00  0.00    -0.239 N 
ENDROOT
BRANCH   1   6
ATOM      6  C2  <0> d           1.139   1.680  -2.777  0.00  0.00    -0.010 C 
ATOM      7  H4  <0> d           1.330   2.438  -3.537  0.00  0.00     0.044 H 
ATOM      8  H5  <0> d           1.823   1.823  -1.941  0.00  0.00     0.044 H 
BRANCH   6   9
ATOM      9  C1  <0> d           1.352   0.290  -3.379  0.00  0.00    -0.070 C 
ATOM     10  H1  <0> d           1.161  -0.468  -2.620  0.00  0.00     0.028 H 
ATOM     11  H2  <0> d           0.667   0.147  -4.216  0.00  0.00     0.028 H 
ATOM     12  H3  <0> d           2.380   0.200  -3.732  0.00  0.00     0.028 H 
ENDBRANCH   6   9
ENDBRANCH   1   6
BRANCH   5  13
ATOM     13  N4  <0> d          -0.012   1.005   0.008  0.00  0.00    -0.239 NA
ATOM     14  H6  <0> d           0.002  -0.004   0.002  0.00  0.00     0.143 HD
ATOM     15  H7  <0> d           0.925   1.379   0.001  0.00  0.00     0.143 HD
ENDBRANCH   5  13
BRANCH   4  16
ATOM     16  S1  <0> d          -3.205   1.569   0.282  0.00  0.00    -0.093 SA
BRANCH  16  17
ATOM     17  C5  <0> d          -4.733   2.134  -0.507  0.00  0.00    -0.027 C 
ATOM     18  H8  <0> d          -5.554   2.072   0.207  0.00  0.00     0.042 H 
ATOM     19  H9  <0> d          -4.612   3.166  -0.835  0.00  0.00     0.042 H 
ATOM     20  H10 <0> d          -4.952   1.502  -1.368  0.00  0.00     0.042 H 
ENDBRANCH  16  17
ENDBRANCH   4  16
TORSDOF 5
