REMARK  4 active torsions:
REMARK  status: ('A' for Active; 'I' for Inactive)
REMARK    1  A    between atoms: C1_1  and  C2_2 
REMARK    2  A    between atoms: C2_2  and  C3_3 
REMARK    3  A    between atoms: C3_3  and  C4_4 
REMARK    4  A    between atoms: C4_4  and  C5_5 
ROOT
ATOM      1  C3  <0> d          -2.479   0.930   0.019  0.00  0.00     0.004 C 
ATOM      2  H4  <0> d          -2.408   0.293   0.913  0.00  0.00     0.042 H 
ATOM      3  H5  <0> d          -2.416   0.303  -0.883  0.00  0.00     0.042 H 
ENDROOT
BRANCH   1   4
ATOM      4  C2  <0> d          -3.814   1.677   0.029  0.00  0.00     0.240 C 
ATOM      5  F1  <0> d          -3.894   2.474   1.176  0.00  0.00    -0.207 F 
ATOM      6  F2  <0> d          -3.905   2.486  -1.108  0.00  0.00    -0.207 F 
BRANCH   4   7
ATOM      7  C1  <0> d          -4.963   0.667   0.029  0.00  0.00    -0.017 C 
ATOM      8  H1  <0> d          -5.923   1.204   0.037  0.00  0.00     0.035 H 
ATOM      9  H2  <0> d          -4.892   0.030   0.924  0.00  0.00     0.035 H 
ATOM     10  H3  <0> d          -4.901   0.040  -0.873  0.00  0.00     0.035 H 
ENDBRANCH   4   7
ENDBRANCH   1   4
BRANCH   1  11
ATOM     11  C4  <0> d          -1.329   1.940   0.019  0.00  0.00     0.021 C 
ATOM     12  H6  <0> d          -1.401   2.576  -0.875  0.00  0.00     0.049 H 
ATOM     13  H7  <0> d          -1.392   2.566   0.921  0.00  0.00     0.049 H 
BRANCH  11  14
ATOM     14  C5  <0> d          -0.014   1.204   0.009  0.00  0.00     0.172 C 
ATOM     15  O1  <0> d           0.002  -0.004   0.002  0.00  0.00    -0.648 OA
ATOM     16  O2  <0> d           1.139   1.891   0.001  0.00  0.00    -0.648 OA
ENDBRANCH  11  14
ENDBRANCH   1  11
TORSDOF 4
