REMARK  1 active torsions:
REMARK  status: ('A' for Active; 'I' for Inactive)
REMARK    1  A    between atoms: C4_6  and  C5_8 
REMARK       I    between atoms: C5_8  and  N2_10 
ROOT
ATOM      1  C1  <0> d           1.429   1.640  -0.003  0.00  0.00    -0.030 C 
ATOM      2  C2  <0> d           1.290   2.898   0.886  0.00  0.00     0.011 C 
ATOM      3  C3  <0> d           0.096   2.600   1.766  0.00  0.00     0.218 C 
ATOM      4  O1  <0> d          -0.182   3.196   2.785  0.00  0.00    -0.274 OA
ATOM      5  N1  <0> d          -0.612   1.579   1.254  0.00  0.00    -0.348 N 
ATOM      6  C4  <0> d          -0.013   1.086   0.008  0.00  0.00     0.089 C 
ATOM      7  H1  <0> d           0.002  -0.004   0.002  0.00  0.00     0.087 H 
ATOM      8  H2  <0> d           2.125   0.926   0.438  0.00  0.00     0.037 H 
ATOM      9  H3  <0> d           1.736   1.908  -1.014  0.00  0.00     0.037 H 
ATOM     10  H4  <0> d           2.185   3.037   1.493  0.00  0.00     0.047 H 
ATOM     11  H5  <0> d           1.103   3.779   0.273  0.00  0.00     0.047 H 
ATOM     12  H6  <0> d          -1.416   1.214   1.656  0.00  0.00     0.163 HD
ENDROOT
BRANCH   6  13
ATOM     13  C5  <0> d          -0.779   1.603  -1.182  0.00  0.00     0.238 C 
ATOM     14  O2  <0> d          -1.528   2.549  -1.057  0.00  0.00    -0.271 OA
ATOM     15  N2  <0> d          -0.633   1.014  -2.386  0.00  0.00    -0.368 N 
ATOM     16  H7  <0> d          -0.034   0.257  -2.486  0.00  0.00     0.159 HD
ATOM     17  H8  <0> d          -1.126   1.347  -3.152  0.00  0.00     0.159 HD
ENDBRANCH   6  13
TORSDOF 1
