REMARK  4 active torsions:
REMARK  status: ('A' for Active; 'I' for Inactive)
REMARK    1  A    between atoms: C2_2  and  C4_7 
REMARK    2  A    between atoms: C4_7  and  C5_8 
REMARK    3  A    between atoms: C5_8  and  C6_10 
REMARK    4  A    between atoms: C5_8  and  O2_12 
ROOT
ATOM      1  C4  <0> d           2.064   1.114   1.238  0.00  0.00     0.010 C 
ATOM      2  H5  <0> d           2.088   0.025   1.278  0.00  0.00     0.047 H 
ATOM      3  H6  <0> d           3.082   1.498   1.186  0.00  0.00     0.047 H 
ENDROOT
BRANCH   1   4
ATOM      4  C2  <0> d           1.387   1.647   2.474  0.00  0.00     0.054 A 
ATOM      5  C1  <0> d           0.965   0.915   3.523  0.00  0.00     0.002 A 
ATOM      6  N2  <0> d           0.415   1.790   4.421  0.00  0.00    -0.359 N 
ATOM      7  H3  <0> d           1.045  -0.156   3.635  0.00  0.00     0.114 H 
ATOM      8  C3  <0> d           0.513   3.026   3.885  0.00  0.00     0.064 A 
ATOM      9  H1  <0> d           0.016   1.558   5.308  0.00  0.00     0.166 HD
ATOM     10  N1  <0> d           1.095   2.933   2.721  0.00  0.00    -0.247 NA
ATOM     11  H4  <0> d           0.167   3.940   4.345  0.00  0.00     0.143 H 
ENDBRANCH   1   4
BRANCH   1  12
ATOM     12  C5  <0> d           1.286   1.562  -0.002  0.00  0.00     0.124 C 
ATOM     13  H2  <0> d           1.186   2.647   0.005  0.00  0.00     0.100 H 
BRANCH  12  14
ATOM     14  C6  <0> d           2.028   1.134  -1.242  0.00  0.00     0.203 C 
ATOM     15  O1  <0> d           1.537   0.322  -1.990  0.00  0.00    -0.646 OA
ATOM     16  O3  <0> d           3.235   1.654  -1.515  0.00  0.00    -0.646 OA
ENDBRANCH  12  14
BRANCH  12  17
ATOM     17  O2  <0> d          -0.011   0.963   0.007  0.00  0.00    -0.384 OA
ATOM     18  H7  <0> d           0.002  -0.004   0.002  0.00  0.00     0.210 HD
ENDBRANCH  12  17
ENDBRANCH   1  12
TORSDOF 4
