REMARK  4 active torsions:
REMARK  status: ('A' for Active; 'I' for Inactive)
REMARK    1  A    between atoms: C1_1  and  O1_2 
REMARK    2  A    between atoms: O1_2  and  C2_3 
REMARK    3  A    between atoms: C4_5  and  O2_10 
REMARK    4  A    between atoms: O2_10  and  C8_11 
ROOT
ATOM      1  C2  <0> d          -0.017   1.382   0.010  0.00  0.00     0.073 A 
ATOM      2  C3  <0> d           0.002  -0.004   0.002  0.00  0.00    -0.018 A 
ATOM      3  C4  <0> d           1.213  -0.680  -0.013  0.00  0.00     0.073 A 
ATOM      4  C5  <0> d           2.404   0.032  -0.021  0.00  0.00    -0.013 A 
ATOM      5  C6  <0> d           2.383   1.416  -0.014  0.00  0.00     0.121 A 
ATOM      6  C7  <0> d           1.175   2.092   0.002  0.00  0.00    -0.013 A 
ATOM      7  F1  <0> d           3.544   2.108  -0.022  0.00  0.00    -0.206 F 
ATOM      8  H4  <0> d          -0.925  -0.557   0.008  0.00  0.00     0.092 H 
ATOM      9  H5  <0> d           3.347  -0.494  -0.033  0.00  0.00     0.092 H 
ATOM     10  H6  <0> d           1.161   3.171   0.008  0.00  0.00     0.092 H 
ENDROOT
BRANCH   1  11
ATOM     11  O1  <0> d          -1.202   2.046   0.019  0.00  0.00    -0.356 OA
BRANCH  11  12
ATOM     12  C1  <0> d          -1.147   3.474   0.026  0.00  0.00     0.010 C 
ATOM     13  H1  <0> d          -2.159   3.877   0.033  0.00  0.00     0.066 H 
ATOM     14  H2  <0> d          -0.615   3.812   0.916  0.00  0.00     0.066 H 
ATOM     15  H3  <0> d          -0.623   3.822  -0.864  0.00  0.00     0.066 H 
ENDBRANCH  11  12
ENDBRANCH   1  11
BRANCH   3  16
ATOM     16  O2  <0> d           1.233  -2.038  -0.020  0.00  0.00    -0.356 OA
BRANCH  16  17
ATOM     17  C8  <0> d           2.516  -2.668  -0.036  0.00  0.00     0.010 C 
ATOM     18  H7  <0> d           3.077  -2.372   0.850  0.00  0.00     0.066 H 
ATOM     19  H8  <0> d           2.389  -3.751  -0.040  0.00  0.00     0.066 H 
ATOM     20  H9  <0> d           3.059  -2.362  -0.930  0.00  0.00     0.066 H 
ENDBRANCH  16  17
ENDBRANCH   3  16
TORSDOF 4
