REMARK  5 active torsions:
REMARK  status: ('A' for Active; 'I' for Inactive)
REMARK    1  A    between atoms: C1_1  and  O1_2 
REMARK    2  A    between atoms: O1_2  and  C2_3 
REMARK    3  A    between atoms: C5_6  and  N2_11 
REMARK    4  A    between atoms: C6_8  and  O2_9 
REMARK    5  A    between atoms: O2_9  and  C7_10 
ROOT
ATOM      1  C2  <0> d           0.607  -0.608  -1.057  0.00  0.00     0.121 A 
ATOM      2  C3  <0> d           1.177   0.154  -2.069  0.00  0.00    -0.043 A 
ATOM      3  C4  <0> d           1.783  -0.502  -3.129  0.00  0.00    -0.036 A 
ATOM      4  C5  <0> d           1.801  -1.891  -3.147  0.00  0.00     0.124 A 
ATOM      5  N1  <0> d           1.248  -2.588  -2.167  0.00  0.00    -0.205 NA
ATOM      6  C6  <0> d           0.666  -1.996  -1.137  0.00  0.00     0.200 A 
ATOM      7  H4  <0> d           1.149   1.233  -2.031  0.00  0.00     0.088 H 
ATOM      8  H5  <0> d           2.235   0.061  -3.932  0.00  0.00     0.089 H 
ENDROOT
BRANCH   1   9
ATOM      9  O1  <0> d           0.002  -0.004   0.002  0.00  0.00    -0.352 OA
BRANCH   9  10
ATOM     10  C1  <0> d          -0.017   1.425   0.010  0.00  0.00     0.011 C 
ATOM     11  H1  <0> d           1.005   1.802   0.002  0.00  0.00     0.067 H 
ATOM     12  H2  <0> d          -0.544   1.786  -0.873  0.00  0.00     0.067 H 
ATOM     13  H3  <0> d          -0.527   1.776   0.907  0.00  0.00     0.067 H 
ENDBRANCH   9  10
ENDBRANCH   1   9
BRANCH   6  14
ATOM     14  O2  <0> d           0.117  -2.750  -0.150  0.00  0.00    -0.337 OA
BRANCH  14  15
ATOM     15  C7  <0> d           0.210  -4.169  -0.290  0.00  0.00     0.012 C 
ATOM     16  H6  <0> d          -0.267  -4.650   0.564  0.00  0.00     0.067 H 
ATOM     17  H7  <0> d          -0.290  -4.477  -1.208  0.00  0.00     0.067 H 
ATOM     18  H8  <0> d           1.260  -4.461  -0.332  0.00  0.00     0.067 H 
ENDBRANCH  14  15
ENDBRANCH   6  14
BRANCH   4  19
ATOM     19  N2  <0> d           2.408  -2.557  -4.209  0.00  0.00    -0.384 N 
ATOM     20  H9  <0> d           2.814  -2.051  -4.931  0.00  0.00     0.157 HD
ATOM     21  H10 <0> d           2.424  -3.526  -4.228  0.00  0.00     0.157 HD
ENDBRANCH   4  19
TORSDOF 5
