REMARK  10 active torsions:
REMARK  status: ('A' for Active; 'I' for Inactive)
REMARK    1  A    between atoms: C1_1  and  C2_2 
REMARK    2  A    between atoms: C2_2  and  C3_3 
REMARK    3  A    between atoms: C3_3  and  C4_4 
REMARK    4  A    between atoms: C4_4  and  C5_6 
REMARK    5  A    between atoms: C4_4  and  C6_7 
REMARK    6  A    between atoms: C6_7  and  C7_9 
REMARK    7  A    between atoms: C6_7  and  O1_14 
REMARK    8  A    between atoms: C7_9  and  C8_11 
REMARK    9  A    between atoms: C7_9  and  C9_12 
REMARK   10  A    between atoms: C9_12  and  C10_13 
ROOT
ATOM      1  C6  <0> d          -0.742   3.087   1.157  0.00  0.00     0.042 C 
ATOM      2  H2  <0> d          -1.164   3.428   2.103  0.00  0.00     0.084 H 
ENDROOT
BRANCH   1   3
ATOM      3  C4  <0> d          -0.715   1.558   1.132  0.00  0.00    -0.032 C 
ATOM      4  H1  <0> d          -0.202   1.218   0.232  0.00  0.00     0.043 H 
BRANCH   3   5
ATOM      5  C3  <0> d           0.024   1.040   2.367  0.00  0.00    -0.060 C 
ATOM      6  H9  <0> d           1.015   1.491   2.413  0.00  0.00     0.033 H 
ATOM      7  H10 <0> d          -0.537   1.303   3.263  0.00  0.00     0.033 H 
BRANCH   5   8
ATOM      8  C2  <0> d           0.160  -0.482   2.279  0.00  0.00    -0.068 C 
ATOM      9  H7  <0> d          -0.832  -0.933   2.233  0.00  0.00     0.032 H 
ATOM     10  H8  <0> d           0.721  -0.746   1.383  0.00  0.00     0.032 H 
BRANCH   8  11
ATOM     11  C1  <0> d           0.899  -1.000   3.514  0.00  0.00    -0.077 C 
ATOM     12  H4  <0> d           0.996  -2.084   3.452  0.00  0.00     0.027 H 
ATOM     13  H5  <0> d           1.890  -0.549   3.560  0.00  0.00     0.027 H 
ATOM     14  H6  <0> d           0.338  -0.736   4.411  0.00  0.00     0.027 H 
ENDBRANCH   8  11
ENDBRANCH   5   8
ENDBRANCH   3   5
BRANCH   3  15
ATOM     15  C5  <0> d          -2.149   1.023   1.134  0.00  0.00    -0.071 C 
ATOM     16  H11 <0> d          -2.132  -0.061   1.024  0.00  0.00     0.028 H 
ATOM     17  H12 <0> d          -2.702   1.464   0.305  0.00  0.00     0.028 H 
ATOM     18  H13 <0> d          -2.633   1.285   2.074  0.00  0.00     0.028 H 
ENDBRANCH   3  15
ENDBRANCH   1   3
BRANCH   1  19
ATOM     19  C7  <0> d           0.684   3.624   1.013  0.00  0.00    -0.033 C 
ATOM     20  H3  <0> d           1.312   3.202   1.797  0.00  0.00     0.043 H 
BRANCH  19  21
ATOM     21  C8  <0> d           1.241   3.230  -0.356  0.00  0.00    -0.071 C 
ATOM     22  H14 <0> d           1.321   2.145  -0.417  0.00  0.00     0.028 H 
ATOM     23  H15 <0> d           0.572   3.590  -1.138  0.00  0.00     0.028 H 
ATOM     24  H16 <0> d           2.227   3.676  -0.489  0.00  0.00     0.028 H 
ENDBRANCH  19  21
BRANCH  19  25
ATOM     25  C9  <0> d           0.669   5.149   1.138  0.00  0.00    -0.063 C 
ATOM     26  H17 <0> d           0.114   5.577   0.303  0.00  0.00     0.033 H 
ATOM     27  H18 <0> d           0.191   5.432   2.076  0.00  0.00     0.033 H 
BRANCH  25  28
ATOM     28  C10 <0> d           2.105   5.676   1.119  0.00  0.00    -0.076 C 
ATOM     29  H19 <0> d           2.660   5.249   1.954  0.00  0.00     0.027 H 
ATOM     30  H20 <0> d           2.584   5.393   0.181  0.00  0.00     0.027 H 
ATOM     31  H21 <0> d           2.095   6.763   1.208  0.00  0.00     0.027 H 
ENDBRANCH  25  28
ENDBRANCH  19  25
ENDBRANCH   1  19
BRANCH   1  32
ATOM     32  O1  <0> d          -1.544   3.568   0.077  0.00  0.00    -0.395 OA
ATOM     33  H22 <0> d          -1.226   3.303  -0.797  0.00  0.00     0.210 HD
ENDBRANCH   1  32
TORSDOF 10
