REMARK  3 active torsions:
REMARK  status: ('A' for Active; 'I' for Inactive)
REMARK    1  A    between atoms: C1_1  and  C2_2 
REMARK    2  A    between atoms: C5_5  and  C8_8 
REMARK       I    between atoms: C8_8  and  N1_10 
REMARK    3  A    between atoms: N1_10  and  C9_11 
ROOT
ATOM      1  C2  <0> d          -3.721   3.285   0.038  0.00  0.00    -0.062 A 
ATOM      2  C3  <0> d          -3.706   1.901   0.030  0.00  0.00    -0.076 A 
ATOM      3  C4  <0> d          -2.506   1.222   0.021  0.00  0.00    -0.067 A 
ATOM      4  C5  <0> d          -1.305   1.933   0.019  0.00  0.00     0.032 A 
ATOM      5  C6  <0> d          -1.327   3.329   0.032  0.00  0.00    -0.067 A 
ATOM      6  C7  <0> d          -2.534   3.996   0.036  0.00  0.00    -0.076 A 
ATOM      7  H4  <0> d          -4.636   1.352   0.031  0.00  0.00     0.084 H 
ATOM      8  H5  <0> d          -2.495   0.142   0.014  0.00  0.00     0.085 H 
ATOM      9  H6  <0> d          -0.401   3.885   0.035  0.00  0.00     0.085 H 
ATOM     10  H7  <0> d          -2.553   5.076   0.041  0.00  0.00     0.084 H 
ENDROOT
BRANCH   4  11
ATOM     11  C8  <0> d          -0.014   1.211   0.009  0.00  0.00     0.251 C 
ATOM     12  O1  <0> d           0.002  -0.004   0.002  0.00  0.00    -0.268 OA
ATOM     13  N1  <0> d           1.143   1.901   0.001  0.00  0.00    -0.361 N 
ATOM     14  H8  <0> d           1.130   2.871   0.007  0.00  0.00     0.162 HD
BRANCH  13  15
ATOM     15  C9  <0> d           2.422   1.186  -0.015  0.00  0.00    -0.018 C 
ATOM     16  H9  <0> d           2.480   0.565  -0.909  0.00  0.00     0.056 H 
ATOM     17  H10 <0> d           3.241   1.905  -0.019  0.00  0.00     0.056 H 
ATOM     18  H11 <0> d           2.497   0.555   0.871  0.00  0.00     0.056 H 
ENDBRANCH  13  15
ENDBRANCH   4  11
BRANCH   1  19
ATOM     19  C1  <0> d          -5.037   4.021   0.049  0.00  0.00    -0.051 C 
ATOM     20  H1  <0> d          -5.349   4.192   1.079  0.00  0.00     0.033 H 
ATOM     21  H2  <0> d          -4.922   4.978  -0.460  0.00  0.00     0.033 H 
ATOM     22  H3  <0> d          -5.791   3.424  -0.465  0.00  0.00     0.033 H 
ENDBRANCH   1  19
TORSDOF 3
