REMARK  2 active torsions:
REMARK  status: ('A' for Active; 'I' for Inactive)
REMARK    1  A    between atoms: C1_1  and  C2_2 
REMARK    2  A    between atoms: C4_5  and  C5_7 
ROOT
ATOM      1  C2  <0> d           1.057   1.888   0.002  0.00  0.00     0.055 A 
ATOM      2  C3  <0> d          -0.013   1.076   0.008  0.00  0.00     0.044 A 
ATOM      3  O1  <0> d          -1.107   1.861   0.017  0.00  0.00    -0.306 OA
ATOM      4  C4  <0> d          -0.695   3.136   0.026  0.00  0.00     0.141 A 
ATOM      5  N1  <0> d           0.607   3.156   0.013  0.00  0.00    -0.232 NA
ATOM      6  H4  <0> d           0.002  -0.004   0.002  0.00  0.00     0.126 H 
ENDROOT
BRANCH   1   7
ATOM      7  C1  <0> d           2.501   1.458  -0.014  0.00  0.00    -0.034 C 
ATOM      8  H1  <0> d           2.839   1.359  -1.046  0.00  0.00     0.035 H 
ATOM      9  H2  <0> d           3.109   2.204   0.498  0.00  0.00     0.035 H 
ATOM     10  H3  <0> d           2.600   0.498   0.494  0.00  0.00     0.035 H 
ENDBRANCH   1   7
BRANCH   4  11
ATOM     11  C5  <0> d          -1.591   4.348   0.040  0.00  0.00    -0.015 C 
ATOM     12  H5  <0> d          -1.817   4.645  -0.984  0.00  0.00     0.038 H 
ATOM     13  H6  <0> d          -2.518   4.109   0.562  0.00  0.00     0.038 H 
ATOM     14  H7  <0> d          -1.086   5.167   0.553  0.00  0.00     0.038 H 
ENDBRANCH   4  11
TORSDOF 2
