REMARK  3 active torsions:
REMARK  status: ('A' for Active; 'I' for Inactive)
REMARK    1  A    between atoms: C1_1  and  C2_2 
REMARK    2  A    between atoms: C4_5  and  C7_11 
REMARK    3  A    between atoms: C5_7  and  O1_10 
ROOT
ATOM      1  C2  <0> d          -0.786   1.611  -1.219  0.00  0.00    -0.055 C 
ATOM      2  H1  <0> d          -1.490   0.859  -1.577  0.00  0.00     0.039 H 
ATOM      3  C3  <0> d          -1.544   2.853  -0.688  0.00  0.00    -0.057 C 
ATOM      4  C4  <0> d          -1.965   2.413   0.737  0.00  0.00    -0.032 C 
ATOM      5  H2  <0> d          -2.859   1.791   0.695  0.00  0.00     0.043 H 
ATOM      6  C5  <0> d          -0.761   1.596   1.252  0.00  0.00     0.039 C 
ATOM      7  H3  <0> d          -1.109   0.754   1.850  0.00  0.00     0.083 H 
ATOM      8  C6  <0> d          -0.013   1.086   0.008  0.00  0.00    -0.038 C 
ATOM      9  H7  <0> d          -0.884   3.719  -0.645  0.00  0.00     0.034 H 
ATOM     10  H8  <0> d          -2.420   3.063  -1.302  0.00  0.00     0.034 H 
ATOM     11  H9  <0> d           0.002  -0.004   0.002  0.00  0.00     0.037 H 
ATOM     12  H10 <0> d           1.006   1.473   0.000  0.00  0.00     0.037 H 
ENDROOT
BRANCH   1  13
ATOM     13  C1  <0> d           0.183   2.011  -2.333  0.00  0.00    -0.073 C 
ATOM     14  H4  <0> d           0.755   1.138  -2.648  0.00  0.00     0.028 H 
ATOM     15  H5  <0> d          -0.379   2.402  -3.180  0.00  0.00     0.028 H 
ATOM     16  H6  <0> d           0.865   2.777  -1.963  0.00  0.00     0.028 H 
ENDBRANCH   1  13
BRANCH   6  17
ATOM     17  O1  <0> d           0.099   2.429   2.033  0.00  0.00    -0.395 OA
ATOM     18  H11 <0> d           0.886   1.978   2.368  0.00  0.00     0.210 HD
ENDBRANCH   6  17
BRANCH   4  19
ATOM     19  C7  <0> d          -2.206   3.635   1.625  0.00  0.00    -0.071 C 
ATOM     20  H12 <0> d          -2.998   4.247   1.194  0.00  0.00     0.028 H 
ATOM     21  H13 <0> d          -2.501   3.307   2.622  0.00  0.00     0.028 H 
ATOM     22  H14 <0> d          -1.290   4.222   1.692  0.00  0.00     0.028 H 
ENDBRANCH   4  19
TORSDOF 3
