REMARK  4 active torsions:
REMARK  status: ('A' for Active; 'I' for Inactive)
REMARK    1  A    between atoms: C1_1  and  C2_2 
REMARK    2  A    between atoms: C2_2  and  C3_3 
REMARK    3  A    between atoms: C3_3  and  C4_4 
REMARK    4  A    between atoms: C4_4  and  C5_5 
REMARK       I    between atoms: C5_5  and  N1_7 
ROOT
ATOM      1  C5  <0> d          -0.014   1.209   0.009  0.00  0.00     0.219 C 
ATOM      2  O1  <0> d           0.002  -0.004   0.002  0.00  0.00    -0.273 OA
ATOM      3  N1  <0> d          -1.191   1.867   0.018  0.00  0.00    -0.352 N 
ATOM      4  C6  <0> d          -1.355   3.328   0.033  0.00  0.00    -0.002 C 
ATOM      5  C7  <0> d          -2.870   3.618   0.064  0.00  0.00    -0.049 C 
ATOM      6  C8  <0> d          -3.462   2.306   0.644  0.00  0.00    -0.049 C 
ATOM      7  C9  <0> d          -2.525   1.240   0.021  0.00  0.00    -0.002 C 
ATOM      8  H10 <0> d          -0.877   3.745   0.919  0.00  0.00     0.064 H 
ATOM      9  H11 <0> d          -0.915   3.759  -0.866  0.00  0.00     0.064 H 
ATOM     10  H12 <0> d          -3.252   3.802  -0.940  0.00  0.00     0.035 H 
ATOM     11  H13 <0> d          -3.086   4.461   0.720  0.00  0.00     0.035 H 
ATOM     12  H14 <0> d          -4.491   2.162   0.315  0.00  0.00     0.035 H 
ATOM     13  H15 <0> d          -3.396   2.295   1.732  0.00  0.00     0.035 H 
ATOM     14  H16 <0> d          -2.838   1.010  -0.998  0.00  0.00     0.064 H 
ATOM     15  H17 <0> d          -2.519   0.337   0.631  0.00  0.00     0.064 H 
ENDROOT
BRANCH   1  16
ATOM     16  C4  <0> d           1.280   1.980   0.001  0.00  0.00     0.009 C 
ATOM     17  H8  <0> d           1.321   2.612  -0.887  0.00  0.00     0.047 H 
ATOM     18  H9  <0> d           1.338   2.602   0.893  0.00  0.00     0.047 H 
BRANCH  16  19
ATOM     19  C3  <0> d           2.457   1.002  -0.016  0.00  0.00    -0.058 C 
ATOM     20  H6  <0> d           2.416   0.369   0.871  0.00  0.00     0.033 H 
ATOM     21  H7  <0> d           2.399   0.379  -0.909  0.00  0.00     0.033 H 
BRANCH  19  22
ATOM     22  C2  <0> d           3.771   1.784  -0.024  0.00  0.00    -0.068 C 
ATOM     23  H4  <0> d           3.812   2.417  -0.911  0.00  0.00     0.032 H 
ATOM     24  H5  <0> d           3.829   2.407   0.869  0.00  0.00     0.032 H 
BRANCH  22  25
ATOM     25  C1  <0> d           4.947   0.806  -0.041  0.00  0.00    -0.077 C 
ATOM     26  H1  <0> d           5.884   1.364  -0.047  0.00  0.00     0.027 H 
ATOM     27  H2  <0> d           4.907   0.174   0.846  0.00  0.00     0.027 H 
ATOM     28  H3  <0> d           4.890   0.184  -0.934  0.00  0.00     0.027 H 
ENDBRANCH  22  25
ENDBRANCH  19  22
ENDBRANCH  16  19
ENDBRANCH   1  16
TORSDOF 4
