REMARK  5 active torsions:
REMARK  status: ('A' for Active; 'I' for Inactive)
REMARK    1  A    between atoms: C1_1  and  N1_2 
REMARK    2  A    between atoms: N1_2  and  C2_3 
REMARK    3  A    between atoms: N1_2  and  C3_4 
REMARK    4  A    between atoms: C6_7  and  N3_11 
REMARK    5  A    between atoms: C7_8  and  N2_10 
ROOT
ATOM      1  C3  <0> d          -0.000  -0.697  -1.214  0.00  0.00     0.031 A 
ATOM      2  C4  <0> d           0.013  -2.086  -1.221  0.00  0.00    -0.055 A 
ATOM      3  C5  <0> d           0.011  -2.773  -2.421  0.00  0.00    -0.053 A 
ATOM      4  C6  <0> d          -0.004  -2.078  -3.620  0.00  0.00     0.052 A 
ATOM      5  C7  <0> d          -0.017  -0.684  -3.616  0.00  0.00     0.054 A 
ATOM      6  C8  <0> d          -0.021   0.004  -2.412  0.00  0.00    -0.030 A 
ATOM      7  H7  <0> d           0.025  -2.630  -0.288  0.00  0.00     0.087 H 
ATOM      8  H8  <0> d           0.022  -3.853  -2.423  0.00  0.00     0.087 H 
ATOM      9  H9  <0> d          -0.035   1.083  -2.406  0.00  0.00     0.090 H 
ENDROOT
BRANCH   1  10
ATOM     10  N1  <0> d           0.002  -0.004   0.002  0.00  0.00    -0.389 N 
BRANCH  10  11
ATOM     11  C1  <0> d          -0.018   1.461   0.010  0.00  0.00    -0.019 C 
ATOM     12  H1  <0> d           1.005   1.838   0.002  0.00  0.00     0.056 H 
ATOM     13  H2  <0> d          -0.545   1.822  -0.873  0.00  0.00     0.056 H 
ATOM     14  H3  <0> d          -0.528   1.812   0.907  0.00  0.00     0.056 H 
ENDBRANCH  10  11
BRANCH  10  15
ATOM     15  C2  <0> d           0.024  -0.743   1.267  0.00  0.00    -0.019 C 
ATOM     16  H4  <0> d           0.022  -0.040   2.099  0.00  0.00     0.056 H 
ATOM     17  H5  <0> d          -0.857  -1.382   1.329  0.00  0.00     0.056 H 
ATOM     18  H6  <0> d           0.923  -1.358   1.312  0.00  0.00     0.056 H 
ENDBRANCH  10  15
ENDBRANCH   1  10
BRANCH   5  19
ATOM     19  N2  <0> d          -0.032   0.020  -4.826  0.00  0.00    -0.397 N 
ATOM     20  H10 <0> d          -0.033  -0.462  -5.668  0.00  0.00     0.156 HD
ATOM     21  H11 <0> d          -0.042   0.990  -4.822  0.00  0.00     0.156 HD
ENDBRANCH   5  19
BRANCH   4  22
ATOM     22  N3  <0> d          -0.005  -2.777  -4.837  0.00  0.00    -0.397 N 
ATOM     23  H12 <0> d           0.005  -3.747  -4.839  0.00  0.00     0.156 HD
ATOM     24  H13 <0> d          -0.015  -2.291  -5.676  0.00  0.00     0.156 HD
ENDBRANCH   4  22
TORSDOF 5
