REMARK  5 active torsions:
REMARK  status: ('A' for Active; 'I' for Inactive)
REMARK    1  A    between atoms: C1_1  and  C2_2 
REMARK    2  A    between atoms: C2_2  and  N1_3 
REMARK    3  A    between atoms: N1_3  and  C3_4 
REMARK    4  A    between atoms: N1_3  and  C5_6 
REMARK    5  A    between atoms: C3_4  and  C4_5 
ROOT
ATOM      1  C5  <0> d           0.002  -0.004   0.002  0.00  0.00    -0.003 C 
ATOM      2  C6  <0> d           0.018  -1.178  -0.004  0.00  0.00    -0.132 C 
ATOM      3  H11 <0> d           0.032  -2.228  -0.010  0.00  0.00     0.169 H 
ENDROOT
BRANCH   1   4
ATOM      4  N1  <0> d          -0.016   1.351   0.009  0.00  0.00    -0.343 N 
BRANCH   4   5
ATOM      5  C2  <0> d           1.242   2.100   0.002  0.00  0.00    -0.001 C 
ATOM      6  H4  <0> d           1.104   3.048   0.522  0.00  0.00     0.064 H 
ATOM      7  H5  <0> d           2.015   1.519   0.505  0.00  0.00     0.064 H 
BRANCH   5   8
ATOM      8  C1  <0> d           1.667   2.369  -1.444  0.00  0.00    -0.060 C 
ATOM      9  H1  <0> d           1.805   1.421  -1.964  0.00  0.00     0.029 H 
ATOM     10  H2  <0> d           0.894   2.951  -1.947  0.00  0.00     0.029 H 
ATOM     11  H3  <0> d           2.603   2.927  -1.450  0.00  0.00     0.029 H 
ENDBRANCH   5   8
ENDBRANCH   4   5
BRANCH   4  12
ATOM     12  C3  <0> d          -1.295   2.066   0.019  0.00  0.00    -0.001 C 
ATOM     13  H6  <0> d          -1.180   3.023  -0.490  0.00  0.00     0.064 H 
ATOM     14  H7  <0> d          -2.049   1.469  -0.494  0.00  0.00     0.064 H 
BRANCH  12  15
ATOM     15  C4  <0> d          -1.733   2.307   1.465  0.00  0.00    -0.060 C 
ATOM     16  H8  <0> d          -1.848   1.350   1.974  0.00  0.00     0.029 H 
ATOM     17  H9  <0> d          -0.979   2.904   1.979  0.00  0.00     0.029 H 
ATOM     18  H10 <0> d          -2.684   2.839   1.473  0.00  0.00     0.029 H 
ENDBRANCH  12  15
ENDBRANCH   4  12
ENDBRANCH   1   4
TORSDOF 5
