REMARK  1 active torsions:
REMARK  status: ('A' for Active; 'I' for Inactive)
REMARK    1  A    between atoms: C5_7  and  C6_9 
ROOT
ATOM      1  C1  <0> d           2.698   3.553  -0.025  0.00  0.00    -0.043 C 
ATOM      2  C2  <0> d           2.733   5.071   0.168  0.00  0.00     0.010 C 
ATOM      3  C3  <0> d           1.754   5.727  -0.762  0.00  0.00     0.217 C 
ATOM      4  O1  <0> d           1.875   6.914  -0.979  0.00  0.00    -0.274 OA
ATOM      5  N1  <0> d           0.758   5.074  -1.363  0.00  0.00    -0.360 N 
ATOM      6  C4  <0> d           0.523   3.642  -1.231  0.00  0.00     0.008 C 
ATOM      7  C5  <0> d           1.235   3.094   0.007  0.00  0.00     0.046 C 
ATOM      8  H1  <0> d           0.750   3.475   0.906  0.00  0.00     0.059 H 
ATOM      9  H2  <0> d           3.252   3.068   0.778  0.00  0.00     0.035 H 
ATOM     10  H3  <0> d           3.143   3.294  -0.986  0.00  0.00     0.035 H 
ATOM     11  H4  <0> d           3.737   5.439  -0.045  0.00  0.00     0.047 H 
ATOM     12  H5  <0> d           2.471   5.311   1.198  0.00  0.00     0.047 H 
ATOM     13  H6  <0> d           0.152   5.584  -1.923  0.00  0.00     0.162 HD
ATOM     14  H7  <0> d           0.899   3.131  -2.118  0.00  0.00     0.065 H 
ATOM     15  H8  <0> d          -0.548   3.459  -1.141  0.00  0.00     0.065 H 
ENDROOT
BRANCH   7  16
ATOM     16  C6  <0> d           1.177   1.588  -0.001  0.00  0.00     0.178 C 
ATOM     17  O2  <0> d           2.199   0.944  -0.014  0.00  0.00    -0.648 OA
ATOM     18  O3  <0> d          -0.011   0.963   0.007  0.00  0.00    -0.648 OA
ENDBRANCH   7  16
TORSDOF 1
