REMARK  1 active torsions:
REMARK  status: ('A' for Active; 'I' for Inactive)
REMARK    1  A    between atoms: C3_3  and  C6_9 
REMARK       I    between atoms: C6_9  and  N2_11 
ROOT
ATOM      1  C1  <0> d          -1.170   3.083  -0.438  0.00  0.00    -0.049 C 
ATOM      2  C2  <0> d          -0.044   3.748   0.362  0.00  0.00    -0.044 C 
ATOM      3  C3  <0> d           1.284   3.103  -0.042  0.00  0.00     0.100 C 
ATOM      4  H1  <0> d           1.544   3.416  -1.053  0.00  0.00     0.069 H 
ATOM      5  C4  <0> d           1.158   1.607  -0.000  0.00  0.00     0.230 C 
ATOM      6  O1  <0> d           2.175   0.946   0.027  0.00  0.00    -0.273 OA
ATOM      7  N1  <0> d          -0.011   0.966   0.007  0.00  0.00    -0.360 N 
ATOM      8  C5  <0> d          -1.308   1.631   0.017  0.00  0.00    -0.005 C 
ATOM      9  H2  <0> d          -2.106   3.613  -0.263  0.00  0.00     0.035 H 
ATOM     10  H3  <0> d          -0.927   3.107  -1.501  0.00  0.00     0.035 H 
ATOM     11  H4  <0> d          -0.215   3.599   1.429  0.00  0.00     0.035 H 
ATOM     12  H5  <0> d          -0.017   4.815   0.140  0.00  0.00     0.035 H 
ATOM     13  H6  <0> d           0.002  -0.004   0.002  0.00  0.00     0.162 HD
ATOM     14  H7  <0> d          -1.988   1.105  -0.652  0.00  0.00     0.064 H 
ATOM     15  H8  <0> d          -1.715   1.612   1.028  0.00  0.00     0.064 H 
ENDROOT
BRANCH   3  16
ATOM     16  C6  <0> d           2.364   3.541   0.912  0.00  0.00     0.228 C 
ATOM     17  O2  <0> d           2.097   4.289   1.829  0.00  0.00    -0.273 OA
ATOM     18  N2  <0> d           3.628   3.103   0.746  0.00  0.00    -0.369 N 
ATOM     19  H9  <0> d           3.842   2.505   0.013  0.00  0.00     0.159 HD
ATOM     20  H10 <0> d           4.324   3.385   1.361  0.00  0.00     0.159 HD
ENDBRANCH   3  16
TORSDOF 1
