REMARK  4 active torsions:
REMARK  status: ('A' for Active; 'I' for Inactive)
REMARK    1  A    between atoms: C1_1  and  C2_2 
REMARK    2  A    between atoms: C4_4  and  C6_8 
REMARK    3  A    between atoms: C6_8  and  O2_10 
REMARK    4  A    between atoms: O2_10  and  C7_11 
ROOT
ATOM      1  C2  <0> d          -1.126   1.848   0.017  0.00  0.00    -0.044 A 
ATOM      2  C3  <0> d          -0.720   3.185   0.025  0.00  0.00    -0.044 A 
ATOM      3  C4  <0> d           0.660   3.187   0.012  0.00  0.00     0.108 A 
ATOM      4  N1  <0> d           1.075   1.875   0.002  0.00  0.00    -0.361 N 
ATOM      5  H1  <0> d           1.997   1.574  -0.008  0.00  0.00     0.165 HD
ATOM      6  C5  <0> d          -0.013   1.076   0.008  0.00  0.00    -0.017 A 
ATOM      7  H5  <0> d          -1.364   4.052   0.036  0.00  0.00     0.088 H 
ATOM      8  H6  <0> d           0.002  -0.004   0.002  0.00  0.00     0.112 H 
ENDROOT
BRANCH   3   9
ATOM      9  C6  <0> d           1.525   4.370   0.011  0.00  0.00     0.309 C 
ATOM     10  O1  <0> d           1.034   5.482   0.022  0.00  0.00    -0.258 OA
BRANCH   9  11
ATOM     11  O2  <0> d           2.866   4.225  -0.002  0.00  0.00    -0.321 OA
BRANCH  11  12
ATOM     12  C7  <0> d           3.660   5.440  -0.003  0.00  0.00     0.013 C 
ATOM     13  H7  <0> d           3.437   6.020   0.893  0.00  0.00     0.067 H 
ATOM     14  H8  <0> d           4.719   5.181  -0.013  0.00  0.00     0.067 H 
ATOM     15  H9  <0> d           3.421   6.030  -0.887  0.00  0.00     0.067 H 
ENDBRANCH  11  12
ENDBRANCH   9  11
ENDBRANCH   3   9
BRANCH   1  16
ATOM     16  C1  <0> d          -2.549   1.352   0.020  0.00  0.00    -0.050 C 
ATOM     17  H2  <0> d          -2.888   1.227   1.048  0.00  0.00     0.033 H 
ATOM     18  H3  <0> d          -3.187   2.076  -0.488  0.00  0.00     0.033 H 
ATOM     19  H4  <0> d          -2.602   0.395  -0.499  0.00  0.00     0.033 H 
ENDBRANCH   1  16
TORSDOF 4
