REMARK  3 active torsions:
REMARK  status: ('A' for Active; 'I' for Inactive)
REMARK    1  A    between atoms: N2_4  and  C4_6 
REMARK    2  A    between atoms: C4_6  and  C5_7 
REMARK    3  A    between atoms: C5_7  and  C6_8 
REMARK       I    between atoms: C6_8  and  N3_10 
ROOT
ATOM      1  C4  <0> d           1.771  -1.782  -0.025  0.00  0.00     0.024 C 
ATOM      2  H4  <0> d           2.309  -1.989   0.900  0.00  0.00     0.068 H 
ATOM      3  H5  <0> d           0.922  -2.460  -0.110  0.00  0.00     0.068 H 
ENDROOT
BRANCH   1   4
ATOM      4  N2  <0> d           1.293  -0.398  -0.012  0.00  0.00    -0.281 N 
ATOM      5  N1  <0> d           2.094   0.751  -0.014  0.00  0.00    -0.185 NA
ATOM      6  C2  <0> d           1.308   1.797  -0.001  0.00  0.00     0.023 A 
ATOM      7  C1  <0> d          -0.016   1.349   0.009  0.00  0.00    -0.048 A 
ATOM      8  H2  <0> d           1.628   2.829   0.002  0.00  0.00     0.117 H 
ATOM      9  C3  <0> d           0.002  -0.004   0.002  0.00  0.00    -0.000 A 
ATOM     10  H1  <0> d          -0.898   1.972   0.025  0.00  0.00     0.087 H 
ATOM     11  H3  <0> d          -0.862  -0.653   0.007  0.00  0.00     0.114 H 
ENDBRANCH   1   4
BRANCH   1  12
ATOM     12  C5  <0> d           2.709  -1.987  -1.217  0.00  0.00     0.026 C 
ATOM     13  H6  <0> d           2.171  -1.780  -2.142  0.00  0.00     0.049 H 
ATOM     14  H7  <0> d           3.558  -1.310  -1.131  0.00  0.00     0.049 H 
BRANCH  12  15
ATOM     15  C6  <0> d           3.201  -3.412  -1.229  0.00  0.00     0.216 C 
ATOM     16  O1  <0> d           2.838  -4.186  -0.370  0.00  0.00    -0.274 OA
ATOM     17  N3  <0> d           4.045  -3.824  -2.196  0.00  0.00    -0.370 N 
ATOM     18  H8  <0> d           4.335  -3.204  -2.883  0.00  0.00     0.159 HD
ATOM     19  H9  <0> d           4.362  -4.741  -2.204  0.00  0.00     0.159 HD
ENDBRANCH  12  15
ENDBRANCH   1  12
TORSDOF 3
