REMARK  0 active torsions:
REMARK  status: ('A' for Active; 'I' for Inactive)
ROOT
ATOM      1  C1  <0> d           1.169   1.782   0.001  0.00  0.00    -0.078 A 
ATOM      2  C2  <0> d          -0.013   1.076   0.008  0.00  0.00    -0.055 A 
ATOM      3  C3  <0> d          -1.226   1.758   0.017  0.00  0.00     0.065 A 
ATOM      4  C4  <0> d          -1.233   3.166   0.031  0.00  0.00     0.050 A 
ATOM      5  C5  <0> d          -2.590   3.570   0.047  0.00  0.00     0.037 A 
ATOM      6  N1  <0> d          -3.341   2.507   0.049  0.00  0.00    -0.186 NA
ATOM      7  N2  <0> d          -2.539   1.360   0.035  0.00  0.00    -0.278 N 
ATOM      8  H1  <0> d          -2.865   0.415   0.037  0.00  0.00     0.189 HD
ATOM      9  C6  <0> d          -0.017   3.863   0.023  0.00  0.00     0.130 A 
ATOM     10  C7  <0> d           1.162   3.171   0.008  0.00  0.00    -0.045 A 
ATOM     11  F1  <0> d          -0.010   5.214   0.030  0.00  0.00    -0.205 F 
ATOM     12  H2  <0> d           2.109   1.252  -0.011  0.00  0.00     0.083 H 
ATOM     13  H3  <0> d           0.002  -0.004   0.002  0.00  0.00     0.087 H 
ATOM     14  H4  <0> d          -2.943   4.590   0.055  0.00  0.00     0.118 H 
ATOM     15  H5  <0> d           2.098   3.710   0.002  0.00  0.00     0.088 H 
ENDROOT
TORSDOF 0
