REMARK  1 active torsions:
REMARK  status: ('A' for Active; 'I' for Inactive)
REMARK    1  A    between atoms: C1_1  and  C2_2 
ROOT
ATOM      1  C2  <0> d          -0.699   3.139   0.024  0.00  0.00     0.142 A 
ATOM      2  N1  <0> d           0.600   3.177   0.013  0.00  0.00    -0.216 NA
ATOM      3  C3  <0> d           1.070   1.901   0.002  0.00  0.00     0.161 A 
ATOM      4  C4  <0> d          -0.013   1.076   0.008  0.00  0.00     0.059 A 
ATOM      5  O1  <0> d          -1.103   1.861   0.017  0.00  0.00    -0.305 OA
ATOM      6  C5  <0> d           2.445   1.500  -0.013  0.00  0.00     0.121 C 
ATOM      7  N2  <0> d           3.535   1.182  -0.024  0.00  0.00    -0.190 NA
ATOM      8  H4  <0> d           0.002  -0.004   0.002  0.00  0.00     0.128 H 
ENDROOT
BRANCH   1   9
ATOM      9  C1  <0> d          -1.607   4.341   0.038  0.00  0.00    -0.015 C 
ATOM     10  H1  <0> d          -1.001   5.259   0.042  0.00  0.00     0.038 H 
ATOM     11  H2  <0> d          -2.238   4.314   0.939  0.00  0.00     0.038 H 
ATOM     12  H3  <0> d          -2.247   4.328  -0.857  0.00  0.00     0.038 H 
ENDBRANCH   1   9
TORSDOF 1
