REMARK  3 active torsions:
REMARK  status: ('A' for Active; 'I' for Inactive)
REMARK    1  A    between atoms: C1_1  and  C2_2 
REMARK    2  A    between atoms: C4_4  and  C7_11 
REMARK    3  A    between atoms: C6_9  and  N2_10 
ROOT
ATOM      1  C2  <0> d          -0.718   1.572   1.248  0.00  0.00    -0.028 A 
ATOM      2  C3  <0> d          -1.233   0.655   2.176  0.00  0.00    -0.053 A 
ATOM      3  C4  <0> d          -1.865   1.099   3.287  0.00  0.00     0.009 A 
ATOM      4  N1  <0> d          -2.010   2.431   3.520  0.00  0.00    -0.326 N 
ATOM      5  H1  <0> d          -2.467   2.730   4.322  0.00  0.00     0.169 HD
ATOM      6  C5  <0> d          -1.529   3.340   2.650  0.00  0.00     0.272 A 
ATOM      7  O1  <0> d          -1.668   4.532   2.873  0.00  0.00    -0.266 OA
ATOM      8  C6  <0> d          -0.859   2.912   1.483  0.00  0.00     0.100 A 
ATOM      9  H5  <0> d          -1.125  -0.406   2.004  0.00  0.00     0.087 H 
ENDROOT
BRANCH   1  10
ATOM     10  C1  <0> d          -0.013   1.086   0.008  0.00  0.00    -0.049 C 
ATOM     11  H2  <0> d           0.002  -0.004   0.002  0.00  0.00     0.033 H 
ATOM     12  H3  <0> d           1.010   1.463   0.000  0.00  0.00     0.033 H 
ATOM     13  H4  <0> d          -0.540   1.447  -0.875  0.00  0.00     0.033 H 
ENDBRANCH   1  10
BRANCH   8  14
ATOM     14  N2  <0> d          -0.349   3.848   0.575  0.00  0.00    -0.394 N 
ATOM     15  H6  <0> d           0.107   3.548  -0.226  0.00  0.00     0.156 HD
ATOM     16  H7  <0> d          -0.452   4.797   0.748  0.00  0.00     0.156 HD
ENDBRANCH   8  14
BRANCH   3  17
ATOM     17  C7  <0> d          -2.413   0.105   4.278  0.00  0.00    -0.037 C 
ATOM     18  H8  <0> d          -1.651  -0.125   5.022  0.00  0.00     0.035 H 
ATOM     19  H9  <0> d          -3.287   0.530   4.772  0.00  0.00     0.035 H 
ATOM     20  H10 <0> d          -2.699  -0.808   3.756  0.00  0.00     0.035 H 
ENDBRANCH   3  17
TORSDOF 3
