REMARK  5 active torsions:
REMARK  status: ('A' for Active; 'I' for Inactive)
REMARK    1  A    between atoms: C2_2  and  C3_3 
REMARK    2  A    between atoms: C3_3  and  C4_4 
REMARK    3  A    between atoms: C4_4  and  C5_5 
REMARK    4  A    between atoms: C4_4  and  C8_8 
REMARK    5  A    between atoms: C5_5  and  C6_6 
ROOT
ATOM      1  C4  <0> d          -1.202   1.775   0.126  0.00  0.00     0.072 C 
ATOM      2  C10 <0> d          -2.037   1.269  -0.976  0.00  0.00     0.074 C 
ATOM      3  N1  <0> d          -2.680   0.879  -1.827  0.00  0.00    -0.196 NA
ENDROOT
BRANCH   1   4
ATOM      4  C3  <0> d          -1.888   1.480   1.462  0.00  0.00    -0.028 C 
ATOM      5  H4  <0> d          -1.270   1.854   2.278  0.00  0.00     0.041 H 
ATOM      6  H5  <0> d          -2.860   1.971   1.487  0.00  0.00     0.041 H 
BRANCH   4   7
ATOM      7  C2  <0> d          -2.073  -0.008   1.613  0.00  0.00    -0.110 C 
ATOM      8  C1  <0> d          -1.604  -0.622   2.671  0.00  0.00    -0.125 C 
ATOM      9  H1  <0> d          -1.737  -1.688   2.780  0.00  0.00     0.066 H 
ATOM     10  H2  <0> d          -1.085  -0.062   3.435  0.00  0.00     0.066 H 
ATOM     11  H3  <0> d          -2.592  -0.568   0.850  0.00  0.00     0.075 H 
ENDBRANCH   4   7
ENDBRANCH   1   4
BRANCH   1  12
ATOM     12  C5  <0> d          -1.014   3.285  -0.028  0.00  0.00    -0.028 C 
ATOM     13  H6  <0> d          -1.981   3.782   0.055  0.00  0.00     0.041 H 
ATOM     14  H7  <0> d          -0.350   3.651   0.755  0.00  0.00     0.041 H 
BRANCH  12  15
ATOM     15  C6  <0> d          -0.412   3.582  -1.377  0.00  0.00    -0.110 C 
ATOM     16  C7  <0> d          -1.019   4.400  -2.200  0.00  0.00    -0.125 C 
ATOM     17  H9  <0> d          -0.587   4.613  -3.167  0.00  0.00     0.066 H 
ATOM     18  H10 <0> d          -1.951   4.863  -1.912  0.00  0.00     0.066 H 
ATOM     19  H8  <0> d           0.521   3.119  -1.665  0.00  0.00     0.075 H 
ENDBRANCH  12  15
ENDBRANCH   1  12
BRANCH   1  20
ATOM     20  C8  <0> d           0.142   1.095   0.091  0.00  0.00    -0.090 C 
ATOM     21  C9  <0> d           0.440   0.283  -0.893  0.00  0.00    -0.123 C 
ATOM     22  H12 <0> d          -0.306   0.036  -1.634  0.00  0.00     0.066 H 
ATOM     23  H13 <0> d           1.432  -0.139  -0.963  0.00  0.00     0.066 H 
ATOM     24  H11 <0> d           0.859   1.274   0.879  0.00  0.00     0.078 H 
ENDBRANCH   1  20
TORSDOF 5
