REMARK  1 active torsions:
REMARK  status: ('A' for Active; 'I' for Inactive)
REMARK    1  A    between atoms: C1_1  and  C2_2 
ROOT
ATOM      1  C2  <0> d           0.002  -0.004   0.002  0.00  0.00     0.083 A 
ATOM      2  C3  <0> d           0.008  -0.824  -1.153  0.00  0.00     0.129 A 
ATOM      3  C4  <0> d           0.029  -2.161  -0.704  0.00  0.00     0.174 A 
ATOM      4  N1  <0> d           0.035  -2.113   0.665  0.00  0.00    -0.259 N 
ATOM      5  H1  <0> d           0.049  -2.878   1.261  0.00  0.00     0.191 HD
ATOM      6  N2  <0> d           0.023  -0.769   1.055  0.00  0.00    -0.176 NA
ATOM      7  N3  <0> d           0.039  -3.152  -1.587  0.00  0.00    -0.238 NA
ATOM      8  C5  <0> d           0.029  -2.881  -2.877  0.00  0.00     0.021 A 
ATOM      9  C6  <0> d           0.009  -1.564  -3.322  0.00  0.00     0.020 A 
ATOM     10  N4  <0> d          -0.001  -0.568  -2.461  0.00  0.00    -0.254 NA
ATOM     11  H5  <0> d           0.038  -3.688  -3.594  0.00  0.00     0.117 H 
ATOM     12  H6  <0> d           0.002  -1.357  -4.381  0.00  0.00     0.117 H 
ENDROOT
BRANCH   1  13
ATOM     13  C1  <0> d          -0.018   1.503   0.010  0.00  0.00    -0.032 C 
ATOM     14  H2  <0> d           1.004   1.880   0.003  0.00  0.00     0.035 H 
ATOM     15  H3  <0> d          -0.545   1.864  -0.873  0.00  0.00     0.035 H 
ATOM     16  H4  <0> d          -0.529   1.854   0.907  0.00  0.00     0.035 H 
ENDBRANCH   1  13
TORSDOF 1
