REMARK  4 active torsions:
REMARK  status: ('A' for Active; 'I' for Inactive)
REMARK    1  A    between atoms: C1_1  and  C2_2 
REMARK    2  A    between atoms: C2_2  and  S1_3 
REMARK    3  A    between atoms: S1_3  and  N1_6 
REMARK    4  A    between atoms: N1_6  and  C3_7 
ROOT
ATOM      1  S1  <0> d          -0.020   1.652   0.011  0.00  0.00     0.225 S 
ATOM      2  O1  <0> d           1.349   2.033   0.000  0.00  0.00    -0.206 OA
ATOM      3  O2  <0> d          -0.880   2.009  -1.062  0.00  0.00    -0.206 OA
ENDROOT
BRANCH   1   4
ATOM      4  C2  <0> d          -0.781   2.099   1.596  0.00  0.00     0.043 C 
ATOM      5  H4  <0> d          -1.786   1.682   1.647  0.00  0.00     0.058 H 
ATOM      6  H5  <0> d          -0.180   1.699   2.413  0.00  0.00     0.058 H 
BRANCH   4   7
ATOM      7  C1  <0> d          -0.854   3.623   1.715  0.00  0.00    -0.062 C 
ATOM      8  H1  <0> d           0.152   4.040   1.664  0.00  0.00     0.028 H 
ATOM      9  H2  <0> d          -1.455   4.022   0.898  0.00  0.00     0.028 H 
ATOM     10  H3  <0> d          -1.311   3.891   2.667  0.00  0.00     0.028 H 
ENDBRANCH   4   7
ENDBRANCH   1   4
BRANCH   1  11
ATOM     11  N1  <0> d           0.002  -0.004   0.002  0.00  0.00    -0.324 N 
ATOM     12  H6  <0> d           0.849  -0.478   0.006  0.00  0.00     0.171 HD
BRANCH  11  13
ATOM     13  C3  <0> d          -1.257  -0.754  -0.013  0.00  0.00    -0.011 C 
ATOM     14  H7  <0> d          -1.839  -0.503   0.874  0.00  0.00     0.057 H 
ATOM     15  H8  <0> d          -1.824  -0.493  -0.906  0.00  0.00     0.057 H 
ATOM     16  H9  <0> d          -1.043  -1.823  -0.017  0.00  0.00     0.057 H 
ENDBRANCH  11  13
ENDBRANCH   1  11
TORSDOF 4
