REMARK  0 active torsions:
REMARK  status: ('A' for Active; 'I' for Inactive)
ROOT
ATOM      1  C1  <0> d           0.002  -0.004   0.002  0.00  0.00     0.042 A 
ATOM      2  C2  <0> d           1.222  -0.683  -0.013  0.00  0.00     0.153 A 
ATOM      3  N1  <0> d           2.361   0.005  -0.021  0.00  0.00    -0.245 NA
ATOM      4  C3  <0> d           2.334   1.323  -0.013  0.00  0.00     0.043 A 
ATOM      5  C4  <0> d           1.120   1.994   0.002  0.00  0.00     0.143 A 
ATOM      6  N2  <0> d          -0.016   1.316   0.009  0.00  0.00    -0.244 NA
ATOM      7 Cl1  <0> d           1.091   3.730   0.011  0.00  0.00    -0.061 Cl
ATOM      8  C5  <0> d           1.247  -2.115  -0.022  0.00  0.00     0.121 C 
ATOM      9  N3  <0> d           1.266  -3.250  -0.028  0.00  0.00    -0.190 NA
ATOM     10  H1  <0> d          -0.925  -0.558   0.007  0.00  0.00     0.119 H 
ATOM     11  H2  <0> d           3.259   1.881  -0.019  0.00  0.00     0.119 H 
ENDROOT
TORSDOF 0
