REMARK  1 active torsions:
REMARK  status: ('A' for Active; 'I' for Inactive)
REMARK    1  A    between atoms: C1_1  and  C2_2 
ROOT
ATOM      1  C2  <0> d          -0.742   1.585  -1.213  0.00  0.00     0.102 A 
ATOM      2  N1  <0> d          -0.161   1.856  -2.416  0.00  0.00    -0.327 N 
ATOM      3  H1  <0> d           0.779   1.762  -2.633  0.00  0.00     0.169 HD
ATOM      4  C3  <0> d          -1.148   2.284  -3.261  0.00  0.00     0.165 A 
ATOM      5  C4  <0> d          -2.333   2.258  -2.519  0.00  0.00     0.172 A 
ATOM      6  N2  <0> d          -2.021   1.817  -1.278  0.00  0.00    -0.226 NA
ATOM      7  C5  <0> d          -3.535   2.658  -3.154  0.00  0.00     0.279 A 
ATOM      8  N3  <0> d          -3.476   3.045  -4.448  0.00  0.00    -0.316 N 
ATOM      9  C6  <0> d          -2.292   3.046  -5.111  0.00  0.00     0.069 A 
ATOM     10  N4  <0> d          -1.177   2.681  -4.541  0.00  0.00    -0.224 NA
ATOM     11  O1  <0> d          -4.594   2.652  -2.550  0.00  0.00    -0.265 OA
ATOM     12  H5  <0> d          -2.272   3.360  -6.144  0.00  0.00     0.143 H 
ATOM     13  H6  <0> d          -4.285   3.323  -4.906  0.00  0.00     0.170 HD
ENDROOT
BRANCH   1  14
ATOM     14  C1  <0> d          -0.013   1.086   0.008  0.00  0.00    -0.021 C 
ATOM     15  H2  <0> d           0.002  -0.004   0.002  0.00  0.00     0.037 H 
ATOM     16  H3  <0> d           1.010   1.463   0.000  0.00  0.00     0.037 H 
ATOM     17  H4  <0> d          -0.523   1.437   0.905  0.00  0.00     0.037 H 
ENDBRANCH   1  14
TORSDOF 1
