REMARK  4 active torsions:
REMARK  status: ('A' for Active; 'I' for Inactive)
REMARK    1  A    between atoms: C1_1  and  C2_2 
REMARK    2  A    between atoms: C2_2  and  C3_3 
REMARK    3  A    between atoms: C2_2  and  N1_4 
REMARK    4  A    between atoms: C5_6  and  N3_9 
ROOT
ATOM      1  N1  <0> d           1.073   1.894   0.002  0.00  0.00    -0.275 N 
ATOM      2  C4  <0> d          -0.013   1.076   0.008  0.00  0.00     0.025 A 
ATOM      3  C5  <0> d          -1.118   1.863   0.017  0.00  0.00     0.062 A 
ATOM      4  C6  <0> d          -0.695   3.200   0.026  0.00  0.00     0.048 A 
ATOM      5  N2  <0> d           0.614   3.217   0.013  0.00  0.00    -0.183 NA
ATOM      6  H8  <0> d           0.002  -0.004   0.002  0.00  0.00     0.117 H 
ATOM      7  H9  <0> d          -1.338   4.066   0.036  0.00  0.00     0.121 H 
ENDROOT
BRANCH   1   8
ATOM      8  C2  <0> d           2.475   1.468  -0.013  0.00  0.00     0.027 C 
ATOM      9  H4  <0> d           3.089   2.255  -0.449  0.00  0.00     0.074 H 
BRANCH   8  10
ATOM     10  C1  <0> d           2.939   1.192   1.418  0.00  0.00    -0.056 C 
ATOM     11  H1  <0> d           2.325   0.404   1.854  0.00  0.00     0.030 H 
ATOM     12  H2  <0> d           3.982   0.874   1.407  0.00  0.00     0.030 H 
ATOM     13  H3  <0> d           2.842   2.100   2.013  0.00  0.00     0.030 H 
ENDBRANCH   8  10
BRANCH   8  14
ATOM     14  C3  <0> d           2.611   0.193  -0.849  0.00  0.00    -0.056 C 
ATOM     15  H5  <0> d           2.280   0.390  -1.868  0.00  0.00     0.030 H 
ATOM     16  H6  <0> d           3.654  -0.124  -0.860  0.00  0.00     0.030 H 
ATOM     17  H7  <0> d           1.996  -0.595  -0.412  0.00  0.00     0.030 H 
ENDBRANCH   8  14
ENDBRANCH   1   8
BRANCH   3  18
ATOM     18  N3  <0> d          -2.453   1.416   0.019  0.00  0.00    -0.397 N 
ATOM     19  H10 <0> d          -2.647   0.466   0.015  0.00  0.00     0.156 HD
ATOM     20  H11 <0> d          -3.180   2.059   0.026  0.00  0.00     0.156 HD
ENDBRANCH   3  18
TORSDOF 4
