REMARK  0 active torsions:
REMARK  status: ('A' for Active; 'I' for Inactive)
ROOT
ATOM      1  C1  <0> d          -0.606   2.941   1.418  0.00  0.00     0.037 C 
ATOM      2  C2  <0> d          -1.774   3.572   0.693  0.00  0.00    -0.082 C 
ATOM      3  C3  <0> d          -1.788   3.579  -0.613  0.00  0.00    -0.082 C 
ATOM      4  C4  <0> d          -0.635   2.956  -1.369  0.00  0.00     0.037 C 
ATOM      5  O1  <0> d          -0.667   1.540  -1.167  0.00  0.00    -0.363 OA
ATOM      6  C5  <0> d          -0.013   1.086   0.008  0.00  0.00     0.103 C 
ATOM      7  O2  <0> d          -0.645   1.528   1.200  0.00  0.00    -0.363 OA
ATOM      8  H1  <0> d           0.328   3.346   1.029  0.00  0.00     0.080 H 
ATOM      9  H2  <0> d          -0.682   3.150   2.485  0.00  0.00     0.080 H 
ATOM     10  H3  <0> d          -2.589   4.012   1.249  0.00  0.00     0.079 H 
ATOM     11  H4  <0> d          -2.614   4.024  -1.147  0.00  0.00     0.079 H 
ATOM     12  H5  <0> d           0.307   3.357  -0.996  0.00  0.00     0.080 H 
ATOM     13  H6  <0> d          -0.733   3.176  -2.432  0.00  0.00     0.080 H 
ATOM     14  H7  <0> d           0.002  -0.004   0.002  0.00  0.00     0.117 H 
ATOM     15  H8  <0> d           1.015   1.450   0.000  0.00  0.00     0.117 H 
ENDROOT
TORSDOF 0
