REMARK  9 active torsions:
REMARK  status: ('A' for Active; 'I' for Inactive)
REMARK    1  A    between atoms: C1_1  and  C2_2 
REMARK    2  A    between atoms: C2_2  and  C3_3 
REMARK    3  A    between atoms: C3_3  and  C4_4 
REMARK    4  A    between atoms: C4_4  and  C5_5 
REMARK    5  A    between atoms: C5_5  and  C6_7 
REMARK    6  A    between atoms: C5_5  and  C8_9 
REMARK    7  A    between atoms: C6_7  and  C7_8 
REMARK    8  A    between atoms: C8_9  and  C9_11 
REMARK    9  A    between atoms: C8_9  and  O1_13 
ROOT
ATOM      1  C9  <0> d           2.046   1.109   1.169  0.00  0.00    -0.085 C 
ATOM      2  C10 <0> d           2.656   0.771   2.113  0.00  0.00    -0.151 C 
ATOM      3  H17 <0> d           3.201   0.468   2.958  0.00  0.00     0.166 H 
ENDROOT
BRANCH   1   4
ATOM      4  C8  <0> d           1.282   1.533  -0.016  0.00  0.00     0.096 C 
ATOM      5  H2  <0> d           1.156   2.616   0.002  0.00  0.00     0.103 H 
BRANCH   4   6
ATOM      6  C5  <0> d           2.038   1.128  -1.282  0.00  0.00    -0.019 C 
ATOM      7  H1  <0> d           2.215   0.053  -1.272  0.00  0.00     0.045 H 
BRANCH   6   8
ATOM      8  C4  <0> d           1.206   1.496  -2.513  0.00  0.00    -0.059 C 
ATOM      9  H10 <0> d           0.218   1.043  -2.432  0.00  0.00     0.033 H 
ATOM     10  H11 <0> d           1.105   2.580  -2.571  0.00  0.00     0.033 H 
BRANCH   8  11
ATOM     11  C3  <0> d           1.904   0.980  -3.773  0.00  0.00    -0.065 C 
ATOM     12  H8  <0> d           2.892   1.434  -3.853  0.00  0.00     0.033 H 
ATOM     13  H9  <0> d           2.005  -0.103  -3.714  0.00  0.00     0.033 H 
BRANCH  11  14
ATOM     14  C2  <0> d           1.072   1.349  -5.003  0.00  0.00    -0.069 C 
ATOM     15  H6  <0> d           0.084   0.895  -4.923  0.00  0.00     0.032 H 
ATOM     16  H7  <0> d           0.970   2.432  -5.062  0.00  0.00     0.032 H 
BRANCH  14  17
ATOM     17  C1  <0> d           1.769   0.833  -6.263  0.00  0.00    -0.077 C 
ATOM     18  H3  <0> d           1.177   1.095  -7.140  0.00  0.00     0.027 H 
ATOM     19  H4  <0> d           2.757   1.286  -6.344  0.00  0.00     0.027 H 
ATOM     20  H5  <0> d           1.871  -0.251  -6.205  0.00  0.00     0.027 H 
ENDBRANCH  14  17
ENDBRANCH  11  14
ENDBRANCH   8  11
ENDBRANCH   6   8
BRANCH   6  21
ATOM     21  C6  <0> d           3.378   1.865  -1.334  0.00  0.00    -0.062 C 
ATOM     22  H12 <0> d           3.996   1.554  -0.491  0.00  0.00     0.033 H 
ATOM     23  H13 <0> d           3.889   1.625  -2.267  0.00  0.00     0.033 H 
BRANCH  21  24
ATOM     24  C7  <0> d           3.134   3.373  -1.259  0.00  0.00    -0.076 C 
ATOM     25  H14 <0> d           2.433   3.667  -2.040  0.00  0.00     0.027 H 
ATOM     26  H15 <0> d           2.719   3.626  -0.284  0.00  0.00     0.027 H 
ATOM     27  H16 <0> d           4.077   3.901  -1.400  0.00  0.00     0.027 H 
ENDBRANCH  21  24
ENDBRANCH   6  21
ENDBRANCH   4   6
BRANCH   4  28
ATOM     28  O1  <0> d          -0.001   0.904  -0.005  0.00  0.00    -0.383 OA
ATOM     29  H18 <0> d           0.035  -0.062  -0.019  0.00  0.00     0.211 HD
ENDBRANCH   4  28
ENDBRANCH   1   4
TORSDOF 9
