REMARK  2 active torsions:
REMARK  status: ('A' for Active; 'I' for Inactive)
REMARK    1  A    between atoms: C1_1  and  C2_2 
REMARK    2  A    between atoms: C4_4  and  N3_11 
ROOT
ATOM      1  C2  <0> d           0.002  -0.004   0.002  0.00  0.00    -0.044 A 
ATOM      2  C3  <0> d           0.006  -0.696  -1.220  0.00  0.00    -0.047 A 
ATOM      3  C4  <0> d           0.025  -2.062  -1.223  0.00  0.00     0.073 A 
ATOM      4  C5  <0> d           0.040  -2.755   0.011  0.00  0.00     0.160 A 
ATOM      5  N1  <0> d           0.059  -4.046   0.308  0.00  0.00    -0.239 NA
ATOM      6  C6  <0> d           0.068  -4.189   1.635  0.00  0.00     0.020 A 
ATOM      7  C7  <0> d           0.053  -2.962   2.201  0.00  0.00     0.003 A 
ATOM      8  N2  <0> d           0.036  -2.048   1.183  0.00  0.00    -0.314 N 
ATOM      9  C8  <0> d           0.022  -0.681   1.169  0.00  0.00    -0.008 A 
ATOM     10  H4  <0> d          -0.007  -0.151  -2.152  0.00  0.00     0.088 H 
ATOM     11  H5  <0> d           0.082  -5.129   2.168  0.00  0.00     0.117 H 
ATOM     12  H6  <0> d           0.055  -2.744   3.259  0.00  0.00     0.114 H 
ATOM     13  H7  <0> d           0.024  -0.137   2.102  0.00  0.00     0.113 H 
ENDROOT
BRANCH   1  14
ATOM     14  C1  <0> d          -0.018   1.503   0.010  0.00  0.00    -0.050 C 
ATOM     15  H1  <0> d           1.004   1.880   0.003  0.00  0.00     0.033 H 
ATOM     16  H2  <0> d          -0.545   1.864  -0.873  0.00  0.00     0.033 H 
ATOM     17  H3  <0> d          -0.529   1.854   0.907  0.00  0.00     0.033 H 
ENDBRANCH   1  14
BRANCH   3  18
ATOM     18  N3  <0> d           0.028  -2.766  -2.429  0.00  0.00    -0.396 N 
ATOM     19  H8  <0> d           0.017  -2.285  -3.272  0.00  0.00     0.156 HD
ATOM     20  H9  <0> d           0.042  -3.736  -2.425  0.00  0.00     0.156 HD
ENDBRANCH   3  18
TORSDOF 2
