REMARK  2 active torsions:
REMARK  status: ('A' for Active; 'I' for Inactive)
REMARK    1  A    between atoms: C1_1  and  C2_2 
REMARK    2  A    between atoms: C5_5  and  C6_7 
ROOT
ATOM      1  C2  <0> d          -0.718   1.572   1.248  0.00  0.00     0.050 A 
ATOM      2  C3  <0> d          -0.133   1.835   2.432  0.00  0.00    -0.052 A 
ATOM      3  C4  <0> d          -1.150   2.263   3.309  0.00  0.00    -0.045 A 
ATOM      4  C5  <0> d          -2.312   2.236   2.604  0.00  0.00     0.106 A 
ATOM      5  O1  <0> d          -2.034   1.820   1.354  0.00  0.00    -0.313 OA
ATOM      6  H5  <0> d           0.917   1.738   2.666  0.00  0.00     0.087 H 
ATOM      7  H6  <0> d          -1.030   2.554   4.342  0.00  0.00     0.088 H 
ENDROOT
BRANCH   4   8
ATOM      8  C6  <0> d          -3.648   2.606   3.119  0.00  0.00     0.112 A 
ATOM      9  N2  <0> d          -3.922   3.019   4.340  0.00  0.00    -0.173 NA
ATOM     10  N1  <0> d          -5.299   3.264   4.417  0.00  0.00    -0.289 N 
ATOM     11  C8  <0> d          -5.844   2.988   3.213  0.00  0.00    -0.002 A 
ATOM     12  H1  <0> d          -5.936   3.616   5.242  0.00  0.00     0.188 HD
ATOM     13  C7  <0> d          -4.854   2.585   2.388  0.00  0.00    -0.034 A 
ATOM     14  H8  <0> d          -6.889   3.077   2.954  0.00  0.00     0.113 H 
ATOM     15  H7  <0> d          -4.966   2.296   1.354  0.00  0.00     0.089 H 
ENDBRANCH   4   8
BRANCH   1  16
ATOM     16  C1  <0> d          -0.013   1.086   0.008  0.00  0.00    -0.031 C 
ATOM     17  H2  <0> d           1.061   0.972   0.218  0.00  0.00     0.036 H 
ATOM     18  H3  <0> d          -0.152   1.816  -0.803  0.00  0.00     0.036 H 
ATOM     19  H4  <0> d          -0.432   0.115  -0.296  0.00  0.00     0.036 H 
ENDBRANCH   1  16
TORSDOF 2
