REMARK  2 active torsions:
REMARK  status: ('A' for Active; 'I' for Inactive)
REMARK    1  A    between atoms: C4_6  and  N5_11 
REMARK    2  A    between atoms: N3_7  and  O1_8 
ROOT
ATOM      1  C1  <0> d           1.434   5.625   0.018  0.00  0.00     0.066 A 
ATOM      2  N1  <0> d           0.081   5.460   0.029  0.00  0.00    -0.333 N 
ATOM      3  C2  <0> d          -0.169   4.110   0.025  0.00  0.00     0.162 A 
ATOM      4  C3  <0> d           1.090   3.484   0.010  0.00  0.00     0.149 A 
ATOM      5  N2  <0> d           2.024   4.465   0.006  0.00  0.00    -0.236 NA
ATOM      6  C4  <0> d           1.132   2.080   0.002  0.00  0.00     0.160 A 
ATOM      7  N3  <0> d          -0.017   1.412   0.010  0.00  0.00    -0.200 N 
ATOM      8  C5  <0> d          -1.176   2.045   0.019  0.00  0.00     0.096 A 
ATOM      9  N4  <0> d          -1.264   3.359   0.032  0.00  0.00    -0.221 NA
ATOM     10  H1  <0> d           1.942   6.579   0.018  0.00  0.00     0.143 H 
ATOM     11  H2  <0> d          -2.086   1.463   0.020  0.00  0.00     0.147 H 
ATOM     12  H5  <0> d          -0.580   6.340   0.040  0.00  0.00     0.168 HD
ENDROOT
BRANCH   6  13
ATOM     13  N5  <0> d           2.344   1.407  -0.012  0.00  0.00    -0.382 N 
ATOM     14  H3  <0> d           2.362   0.307  -0.018  0.00  0.00     0.157 HD
ATOM     15  H6  <0> d           3.287   1.973  -0.018  0.00  0.00     0.157 HD
ENDBRANCH   6  13
BRANCH   7  16
ATOM     16  O1  <0> d           0.002  -0.004   0.002  0.00  0.00    -0.280 OA
ATOM     17  H4  <0> d          -0.943  -0.567   0.008  0.00  0.00     0.245 HD
ENDBRANCH   7  16
TORSDOF 2
