REMARK  4 active torsions:
REMARK  status: ('A' for Active; 'I' for Inactive)
REMARK    1  A    between atoms: C1_1  and  C2_2 
REMARK    2  A    between atoms: C2_2  and  O1_3 
REMARK    3  A    between atoms: O1_3  and  C3_4 
REMARK    4  A    between atoms: C3_4  and  C4_6 
ROOT
ATOM      1  C3  <0> d           0.801  -1.812   1.304  0.00  0.00     0.314 C 
ATOM      2  O2  <0> d           0.322  -2.553   0.471  0.00  0.00    -0.257 OA
ENDROOT
BRANCH   1   3
ATOM      3  O1  <0> d           0.693  -0.477   1.160  0.00  0.00    -0.317 OA
BRANCH   3   4
ATOM      4  C2  <0> d           0.002  -0.004   0.002  0.00  0.00     0.026 C 
ATOM      5  H4  <0> d          -1.020  -0.381   0.010  0.00  0.00     0.074 H 
ATOM      6  H5  <0> d           0.512  -0.356  -0.895  0.00  0.00     0.074 H 
BRANCH   4   7
ATOM      7  C1  <0> d          -0.019   1.526   0.010  0.00  0.00    -0.056 C 
ATOM      8  H1  <0> d           1.004   1.903   0.003  0.00  0.00     0.030 H 
ATOM      9  H2  <0> d          -0.546   1.887  -0.873  0.00  0.00     0.030 H 
ATOM     10  H3  <0> d          -0.529   1.877   0.907  0.00  0.00     0.030 H 
ENDBRANCH   4   7
ENDBRANCH   3   4
ENDBRANCH   1   3
BRANCH   1  11
ATOM     11  C4  <0> d           1.505  -2.376   2.481  0.00  0.00     0.164 A 
ATOM     12  N1  <0> d           2.065  -1.688   3.449  0.00  0.00    -0.119 NA
ATOM     13  O3  <0> d           2.621  -2.606   4.372  0.00  0.00    -0.184 OA
ATOM     14  C6  <0> d           2.383  -3.848   3.921  0.00  0.00     0.245 A 
ATOM     15  C5  <0> d           1.697  -3.747   2.756  0.00  0.00     0.014 A 
ATOM     16  O4  <0> d           2.762  -5.000   4.524  0.00  0.00    -0.162 OA
ATOM     17  H6  <0> d           1.357  -4.571   2.147  0.00  0.00     0.095 H 
ENDBRANCH   1  11
TORSDOF 4
