REMARK  4 active torsions:
REMARK  status: ('A' for Active; 'I' for Inactive)
REMARK    1  A    between atoms: C1_1  and  O1_2 
REMARK    2  A    between atoms: O1_2  and  C2_3 
REMARK    3  A    between atoms: C2_3  and  O3_5 
REMARK    4  A    between atoms: O3_5  and  C3_6 
ROOT
ATOM      1  C3  <0> d          -0.068   3.842   0.013  0.00  0.00     0.081 A 
ATOM      2  C4  <0> d           1.128   3.146   0.108  0.00  0.00    -0.050 A 
ATOM      3  C5  <0> d           1.126   1.765   0.092  0.00  0.00    -0.080 A 
ATOM      4  C6  <0> d          -0.068   1.076  -0.018  0.00  0.00    -0.083 A 
ATOM      5  C7  <0> d          -1.261   1.767  -0.117  0.00  0.00    -0.080 A 
ATOM      6  C8  <0> d          -1.265   3.148  -0.096  0.00  0.00    -0.050 A 
ATOM      7  H4  <0> d           2.061   3.684   0.193  0.00  0.00     0.087 H 
ATOM      8  H5  <0> d           2.057   1.223   0.165  0.00  0.00     0.083 H 
ATOM      9  H6  <0> d          -0.068  -0.004  -0.030  0.00  0.00     0.083 H 
ATOM     10  H7  <0> d          -2.192   1.226  -0.207  0.00  0.00     0.083 H 
ATOM     11  H8  <0> d          -2.197   3.688  -0.170  0.00  0.00     0.087 H 
ENDROOT
BRANCH   1  12
ATOM     12  O3  <0> d          -0.069   5.201   0.028  0.00  0.00    -0.256 OA
BRANCH  12  13
ATOM     13  C2  <0> d          -0.573   5.800   1.122  0.00  0.00     0.411 C 
ATOM     14  O2  <0> d          -0.901   5.134   2.083  0.00  0.00    -0.229 OA
BRANCH  13  15
ATOM     15  O1  <0> d          -0.714   7.138   1.152  0.00  0.00    -0.303 OA
BRANCH  15  16
ATOM     16  C1  <0> d          -1.264   7.716   2.365  0.00  0.00     0.015 C 
ATOM     17  H1  <0> d          -0.621   7.470   3.209  0.00  0.00     0.067 H 
ATOM     18  H2  <0> d          -1.324   8.799   2.257  0.00  0.00     0.067 H 
ATOM     19  H3  <0> d          -2.262   7.313   2.539  0.00  0.00     0.067 H 
ENDBRANCH  15  16
ENDBRANCH  13  15
ENDBRANCH  12  13
ENDBRANCH   1  12
TORSDOF 4
