REMARK  4 active torsions:
REMARK  status: ('A' for Active; 'I' for Inactive)
REMARK    1  A    between atoms: C1_1  and  C2_2 
REMARK    2  A    between atoms: C2_2  and  C3_3 
REMARK    3  A    between atoms: C7_7  and  N1_10 
REMARK    4  A    between atoms: C8_8  and  C9_9 
ROOT
ATOM      1  C3  <0> d          -1.412  -0.526   0.013  0.00  0.00    -0.050 A 
ATOM      2  C4  <0> d          -2.014  -0.864   1.211  0.00  0.00    -0.076 A 
ATOM      3  C5  <0> d          -3.311  -1.343   1.225  0.00  0.00    -0.080 A 
ATOM      4  C6  <0> d          -4.009  -1.486   0.042  0.00  0.00    -0.057 A 
ATOM      5  C7  <0> d          -3.408  -1.147  -1.163  0.00  0.00     0.032 A 
ATOM      6  C8  <0> d          -2.106  -0.660  -1.173  0.00  0.00    -0.029 A 
ATOM      7  H6  <0> d          -1.470  -0.753   2.137  0.00  0.00     0.084 H 
ATOM      8  H7  <0> d          -3.778  -1.607   2.163  0.00  0.00     0.083 H 
ATOM      9  H8  <0> d          -5.022  -1.860   0.054  0.00  0.00     0.086 H 
ENDROOT
BRANCH   1  10
ATOM     10  C2  <0> d           0.002  -0.004   0.002  0.00  0.00    -0.044 C 
ATOM     11  H4  <0> d           0.512  -0.356  -0.895  0.00  0.00     0.039 H 
ATOM     12  H5  <0> d           0.529  -0.365   0.885  0.00  0.00     0.039 H 
BRANCH  10  13
ATOM     13  C1  <0> d          -0.019   1.526   0.010  0.00  0.00    -0.073 C 
ATOM     14  H1  <0> d           1.004   1.903   0.003  0.00  0.00     0.028 H 
ATOM     15  H2  <0> d          -0.546   1.887  -0.873  0.00  0.00     0.028 H 
ATOM     16  H3  <0> d          -0.529   1.877   0.907  0.00  0.00     0.028 H 
ENDBRANCH  10  13
ENDBRANCH   1  10
BRANCH   6  17
ATOM     17  C9  <0> d          -1.451  -0.286  -2.478  0.00  0.00    -0.049 C 
ATOM     18  H9  <0> d          -0.940  -1.155  -2.890  0.00  0.00     0.033 H 
ATOM     19  H10 <0> d          -2.211   0.057  -3.181  0.00  0.00     0.033 H 
ATOM     20  H11 <0> d          -0.729   0.513  -2.306  0.00  0.00     0.033 H 
ENDBRANCH   6  17
BRANCH   5  21
ATOM     21  N1  <0> d          -4.111  -1.289  -2.361  0.00  0.00    -0.399 N 
ATOM     22  H12 <0> d          -5.021  -1.625  -2.352  0.00  0.00     0.156 HD
ATOM     23  H13 <0> d          -3.690  -1.052  -3.202  0.00  0.00     0.156 HD
ENDBRANCH   5  21
TORSDOF 4
