REMARK  8 active torsions:
REMARK  status: ('A' for Active; 'I' for Inactive)
REMARK    1  A    between atoms: C1_1  and  C2_2 
REMARK    2  A    between atoms: C2_2  and  O1_3 
REMARK    3  A    between atoms: O1_3  and  C3_4 
REMARK    4  A    between atoms: C3_4  and  C4_5 
REMARK    5  A    between atoms: C3_4  and  O2_8 
REMARK    6  A    between atoms: C4_5  and  C5_6 
REMARK    7  A    between atoms: O2_8  and  C7_9 
REMARK    8  A    between atoms: C7_9  and  C8_10 
ROOT
ATOM      1  C3  <0> d          -3.534   1.429   1.053  0.00  0.00     0.134 C 
ATOM      2  H6  <0> d          -4.568   1.130   1.224  0.00  0.00     0.129 H 
ENDROOT
BRANCH   1   3
ATOM      3  O1  <0> d          -2.707   0.901   2.093  0.00  0.00    -0.361 OA
BRANCH   3   4
ATOM      4  C2  <0> d          -3.376   0.750   3.347  0.00  0.00     0.019 C 
ATOM      5  H4  <0> d          -3.825   1.700   3.636  0.00  0.00     0.073 H 
ATOM      6  H5  <0> d          -4.154  -0.007   3.254  0.00  0.00     0.073 H 
BRANCH   4   7
ATOM      7  C1  <0> d          -2.367   0.318   4.413  0.00  0.00    -0.056 C 
ATOM      8  H1  <0> d          -1.589   1.075   4.506  0.00  0.00     0.030 H 
ATOM      9  H2  <0> d          -2.877   0.203   5.370  0.00  0.00     0.030 H 
ATOM     10  H3  <0> d          -1.918  -0.632   4.124  0.00  0.00     0.030 H 
ENDBRANCH   4   7
ENDBRANCH   3   4
ENDBRANCH   1   3
BRANCH   1  11
ATOM     11  C4  <0> d          -3.062   0.887  -0.298  0.00  0.00    -0.004 C 
ATOM     12  H7  <0> d          -3.693   1.289  -1.091  0.00  0.00     0.046 H 
ATOM     13  H8  <0> d          -3.131  -0.201  -0.296  0.00  0.00     0.046 H 
BRANCH  11  14
ATOM     14  C5  <0> d          -1.633   1.300  -0.534  0.00  0.00    -0.107 C 
ATOM     15  C6  <0> d          -0.724   0.394  -0.795  0.00  0.00    -0.125 C 
ATOM     16  H10 <0> d          -0.998  -0.649  -0.841  0.00  0.00     0.066 H 
ATOM     17  H11 <0> d           0.300   0.691  -0.969  0.00  0.00     0.066 H 
ATOM     18  H9  <0> d          -1.358   2.344  -0.488  0.00  0.00     0.075 H 
ENDBRANCH  11  14
ENDBRANCH   1  11
BRANCH   1  19
ATOM     19  O2  <0> d          -3.444   2.855   1.051  0.00  0.00    -0.361 OA
BRANCH  19  20
ATOM     20  C7  <0> d          -4.141   3.482   2.130  0.00  0.00     0.019 C 
ATOM     21  H12 <0> d          -5.173   3.133   2.148  0.00  0.00     0.073 H 
ATOM     22  H13 <0> d          -3.655   3.229   3.072  0.00  0.00     0.073 H 
BRANCH  20  23
ATOM     23  C8  <0> d          -4.119   5.000   1.938  0.00  0.00    -0.056 C 
ATOM     24  H14 <0> d          -3.086   5.349   1.919  0.00  0.00     0.030 H 
ATOM     25  H15 <0> d          -4.604   5.254   0.995  0.00  0.00     0.030 H 
ATOM     26  H16 <0> d          -4.649   5.479   2.760  0.00  0.00     0.030 H 
ENDBRANCH  20  23
ENDBRANCH  19  20
ENDBRANCH   1  19
TORSDOF 8
