REMARK  4 active torsions:
REMARK  status: ('A' for Active; 'I' for Inactive)
REMARK    1  A    between atoms: C1_1  and  C2_2 
REMARK    2  A    between atoms: C2_2  and  C3_3 
REMARK    3  A    between atoms: C2_2  and  O1_4 
REMARK    4  A    between atoms: O1_4  and  C4_5 
ROOT
ATOM      1  C4  <0> d          -1.538  -1.740  -0.505  0.00  0.00     0.069 A 
ATOM      2  C5  <0> d          -0.465  -2.468  -0.997  0.00  0.00    -0.048 A 
ATOM      3  C6  <0> d          -0.670  -3.729  -1.522  0.00  0.00    -0.043 A 
ATOM      4  C7  <0> d          -1.946  -4.266  -1.560  0.00  0.00     0.116 A 
ATOM      5  C8  <0> d          -3.018  -3.539  -1.070  0.00  0.00    -0.043 A 
ATOM      6  C9  <0> d          -2.815  -2.281  -0.538  0.00  0.00    -0.048 A 
ATOM      7  F1  <0> d          -2.144  -5.499  -2.075  0.00  0.00    -0.206 F 
ATOM      8  H8  <0> d           0.530  -2.050  -0.968  0.00  0.00     0.087 H 
ATOM      9  H9  <0> d           0.166  -4.297  -1.905  0.00  0.00     0.088 H 
ATOM     10  H10 <0> d          -4.013  -3.959  -1.100  0.00  0.00     0.088 H 
ATOM     11  H11 <0> d          -3.651  -1.717  -0.152  0.00  0.00     0.087 H 
ENDROOT
BRANCH   1  12
ATOM     12  O1  <0> d          -1.339  -0.499   0.012  0.00  0.00    -0.347 OA
BRANCH  12  13
ATOM     13  C2  <0> d          -2.466   0.143   0.612  0.00  0.00     0.038 C 
ATOM     14  H4  <0> d          -3.087  -0.602   1.107  0.00  0.00     0.082 H 
BRANCH  13  15
ATOM     15  C1  <0> d          -1.982   1.168   1.639  0.00  0.00    -0.052 C 
ATOM     16  H1  <0> d          -2.841   1.658   2.097  0.00  0.00     0.030 H 
ATOM     17  H2  <0> d          -1.399   0.663   2.410  0.00  0.00     0.030 H 
ATOM     18  H3  <0> d          -1.360   1.914   1.144  0.00  0.00     0.030 H 
ENDBRANCH  13  15
BRANCH  13  19
ATOM     19  C3  <0> d          -3.283   0.853  -0.469  0.00  0.00    -0.052 C 
ATOM     20  H5  <0> d          -3.628   0.122  -1.202  0.00  0.00     0.030 H 
ATOM     21  H6  <0> d          -4.143   1.342  -0.012  0.00  0.00     0.030 H 
ATOM     22  H7  <0> d          -2.662   1.598  -0.965  0.00  0.00     0.030 H 
ENDBRANCH  13  19
ENDBRANCH  12  13
ENDBRANCH   1  12
TORSDOF 4
