REMARK  8 active torsions:
REMARK  status: ('A' for Active; 'I' for Inactive)
REMARK    1  A    between atoms: C1_1  and  C2_2 
REMARK    2  A    between atoms: C2_2  and  O1_3 
REMARK    3  A    between atoms: O1_3  and  C3_4 
REMARK    4  A    between atoms: C3_4  and  C4_6 
REMARK    5  A    between atoms: C4_6  and  C5_8 
REMARK    6  A    between atoms: C4_6  and  C6_9 
REMARK    7  A    between atoms: C6_9  and  C7_10 
REMARK    8  A    between atoms: C6_9  and  C8_11 
ROOT
ATOM      1  C4  <0> d          -2.164   1.050   1.278  0.00  0.00     0.030 C 
ATOM      2  H1  <0> d          -2.149  -0.040   1.272  0.00  0.00     0.055 H 
ENDROOT
BRANCH   1   3
ATOM      3  C3  <0> d          -2.893   1.549   0.057  0.00  0.00     0.263 C 
ATOM      4  O2  <0> d          -2.323   2.256  -0.740  0.00  0.00    -0.265 OA
BRANCH   3   5
ATOM      5  O1  <0> d          -4.176   1.208  -0.145  0.00  0.00    -0.322 OA
BRANCH   5   6
ATOM      6  C2  <0> d          -4.814   1.725  -1.342  0.00  0.00     0.025 C 
ATOM      7  H5  <0> d          -4.801   2.815  -1.319  0.00  0.00     0.074 H 
ATOM      8  H6  <0> d          -4.276   1.374  -2.222  0.00  0.00     0.074 H 
BRANCH   6   9
ATOM      9  C1  <0> d          -6.262   1.234  -1.401  0.00  0.00    -0.056 C 
ATOM     10  H2  <0> d          -6.742   1.623  -2.299  0.00  0.00     0.030 H 
ATOM     11  H3  <0> d          -6.276   0.145  -1.423  0.00  0.00     0.030 H 
ATOM     12  H4  <0> d          -6.801   1.586  -0.520  0.00  0.00     0.030 H 
ENDBRANCH   6   9
ENDBRANCH   5   6
ENDBRANCH   3   5
ENDBRANCH   1   3
BRANCH   1  13
ATOM     13  C5  <0> d          -2.880   1.543   2.537  0.00  0.00    -0.064 C 
ATOM     14  H7  <0> d          -3.903   1.166   2.544  0.00  0.00     0.028 H 
ATOM     15  H8  <0> d          -2.353   1.182   3.420  0.00  0.00     0.028 H 
ATOM     16  H9  <0> d          -2.895   2.633   2.542  0.00  0.00     0.028 H 
ENDBRANCH   1  13
BRANCH   1  17
ATOM     17  C6  <0> d          -0.729   1.579   1.267  0.00  0.00    -0.049 C 
ATOM     18  H10 <0> d          -0.744   2.669   1.273  0.00  0.00     0.040 H 
BRANCH  17  19
ATOM     19  C7  <0> d          -0.013   1.086   0.008  0.00  0.00    -0.072 C 
ATOM     20  H11 <0> d           0.002  -0.004   0.002  0.00  0.00     0.028 H 
ATOM     21  H12 <0> d           1.010   1.463   0.000  0.00  0.00     0.028 H 
ATOM     22  H13 <0> d          -0.540   1.447  -0.875  0.00  0.00     0.028 H 
ENDBRANCH  17  19
BRANCH  17  23
ATOM     23  C8  <0> d           0.011   1.072   2.506  0.00  0.00    -0.072 C 
ATOM     24  H14 <0> d           1.034   1.450   2.499  0.00  0.00     0.028 H 
ATOM     25  H15 <0> d          -0.499   1.424   3.403  0.00  0.00     0.028 H 
ATOM     26  H16 <0> d           0.026  -0.018   2.500  0.00  0.00     0.028 H 
ENDBRANCH  17  23
ENDBRANCH   1  17
TORSDOF 8
