REMARK  1 active torsions:
REMARK  status: ('A' for Active; 'I' for Inactive)
REMARK    1  A    between atoms: C8_9  and  N3_11 
ROOT
ATOM      1  C1  <0> d           2.382   1.421  -0.013  0.00  0.00    -0.082 A 
ATOM      2  C2  <0> d           1.158   2.087   0.002  0.00  0.00    -0.081 A 
ATOM      3  C3  <0> d          -0.017   1.398   0.010  0.00  0.00    -0.054 A 
ATOM      4  C4  <0> d           0.002  -0.004   0.002  0.00  0.00     0.087 A 
ATOM      5  C5  <0> d           1.249  -0.681  -0.013  0.00  0.00     0.011 A 
ATOM      6  C6  <0> d           2.439   0.060  -0.021  0.00  0.00    -0.069 A 
ATOM      7  C7  <0> d           1.246  -2.088  -0.021  0.00  0.00     0.033 A 
ATOM      8  N1  <0> d           0.087  -2.713  -0.013  0.00  0.00    -0.075 NA
ATOM      9  C8  <0> d          -1.065  -2.046   0.002  0.00  0.00     0.720 A 
ATOM     10  N2  <0> d          -1.124  -0.728   0.009  0.00  0.00    -0.063 NA
ATOM     11  H1  <0> d           3.299   1.993  -0.019  0.00  0.00     0.083 H 
ATOM     12  H2  <0> d           1.141   3.167   0.008  0.00  0.00     0.083 H 
ATOM     13  H3  <0> d          -0.958   1.929   0.017  0.00  0.00     0.087 H 
ATOM     14  H4  <0> d           3.394  -0.444  -0.033  0.00  0.00     0.085 H 
ATOM     15  H5  <0> d           2.172  -2.643  -0.033  0.00  0.00     0.117 H 
ENDROOT
BRANCH   9  16
ATOM     16  N3  <0> d          -2.248  -2.763   0.010  0.00  0.00    -0.231 N 
ATOM     17  H6  <0> d          -3.098  -2.296   0.021  0.00  0.00     0.174 HD
ATOM     18  H7  <0> d          -2.227  -3.733   0.005  0.00  0.00     0.174 HD
ENDBRANCH   9  16
TORSDOF 1
