REMARK  4 active torsions:
REMARK  status: ('A' for Active; 'I' for Inactive)
REMARK    1  A    between atoms: C1_1  and  C2_2 
REMARK    2  A    between atoms: C2_2  and  C4_4 
REMARK    3  A    between atoms: C7_7  and  C10_10 
REMARK    4  A    between atoms: C10_10  and  C12_12 
ROOT
ATOM      1  C4  <0> d          -0.000  -0.736  -1.281  0.00  0.00    -0.031 A 
ATOM      2  C5  <0> d           1.089  -0.627  -2.149  0.00  0.00    -0.072 A 
ATOM      3  C6  <0> d           1.087  -1.309  -3.344  0.00  0.00    -0.072 A 
ATOM      4  C7  <0> d          -0.004  -2.110  -3.690  0.00  0.00    -0.031 A 
ATOM      5  C8  <0> d          -1.093  -2.219  -2.822  0.00  0.00    -0.072 A 
ATOM      6  C9  <0> d          -1.089  -1.540  -1.624  0.00  0.00    -0.072 A 
ATOM      7  H6  <0> d           1.933  -0.008  -1.881  0.00  0.00     0.084 H 
ATOM      8  H7  <0> d           1.929  -1.224  -4.016  0.00  0.00     0.084 H 
ATOM      9  H8  <0> d          -1.937  -2.838  -3.089  0.00  0.00     0.084 H 
ATOM     10  H9  <0> d          -1.929  -1.628  -0.951  0.00  0.00     0.084 H 
ENDROOT
BRANCH   1  11
ATOM     11  C2  <0> d           0.002  -0.004   0.002  0.00  0.00    -0.061 C 
ATOM     12  C3  <0> d           0.022  -0.673   1.147  0.00  0.00    -0.115 C 
ATOM     13  H4  <0> d           0.024  -0.139   2.085  0.00  0.00     0.067 H 
ATOM     14  H5  <0> d           0.037  -1.753   1.141  0.00  0.00     0.067 H 
BRANCH  11  15
ATOM     15  C1  <0> d          -0.018   1.503   0.010  0.00  0.00    -0.051 C 
ATOM     16  H1  <0> d           1.004   1.880   0.003  0.00  0.00     0.033 H 
ATOM     17  H2  <0> d          -0.545   1.864  -0.873  0.00  0.00     0.033 H 
ATOM     18  H3  <0> d          -0.529   1.854   0.907  0.00  0.00     0.033 H 
ENDBRANCH  11  15
ENDBRANCH   1  11
BRANCH   4  19
ATOM     19  C10 <0> d          -0.007  -2.840  -4.973  0.00  0.00    -0.061 C 
ATOM     20  C11 <0> d           0.881  -3.801  -5.191  0.00  0.00    -0.115 C 
ATOM     21  H10 <0> d           0.879  -4.336  -6.130  0.00  0.00     0.067 H 
ATOM     22  H11 <0> d           1.606  -4.049  -4.430  0.00  0.00     0.067 H 
BRANCH  19  23
ATOM     23  C12 <0> d          -1.018  -2.494  -6.035  0.00  0.00    -0.051 C 
ATOM     24  H12 <0> d          -1.658  -1.687  -5.678  0.00  0.00     0.033 H 
ATOM     25  H13 <0> d          -0.500  -2.174  -6.940  0.00  0.00     0.033 H 
ATOM     26  H14 <0> d          -1.627  -3.370  -6.256  0.00  0.00     0.033 H 
ENDBRANCH  19  23
ENDBRANCH   4  19
TORSDOF 4
