REMARK  4 active torsions:
REMARK  status: ('A' for Active; 'I' for Inactive)
REMARK    1  A    between atoms: C1_1  and  C2_2 
REMARK    2  A    between atoms: C2_2  and  C3_4 
REMARK    3  A    between atoms: C2_2  and  O3_7 
REMARK    4  A    between atoms: O3_7  and  C4_8 
ROOT
ATOM      1  C4  <0> d          -0.194  -0.664  -2.294  0.00  0.00     0.040 C 
ATOM      2  C5  <0> d          -0.676  -2.129  -2.335  0.00  0.00    -0.041 C 
ATOM      3  C6  <0> d          -0.716  -2.474  -3.845  0.00  0.00    -0.063 C 
ATOM      4  C7  <0> d           0.533  -1.741  -4.395  0.00  0.00    -0.063 C 
ATOM      5  C8  <0> d           0.575  -0.418  -3.604  0.00  0.00    -0.041 C 
ATOM      6  H5  <0> d          -1.048   0.009  -2.230  0.00  0.00     0.083 H 
ATOM      7  H6  <0> d           0.028  -2.777  -1.814  0.00  0.00     0.036 H 
ATOM      8  H7  <0> d          -1.671  -2.215  -1.898  0.00  0.00     0.036 H 
ATOM      9  H8  <0> d          -0.631  -3.550  -3.997  0.00  0.00     0.033 H 
ATOM     10  H9  <0> d          -1.624  -2.087  -4.306  0.00  0.00     0.033 H 
ATOM     11  H10 <0> d           1.433  -2.327  -4.207  0.00  0.00     0.033 H 
ATOM     12  H11 <0> d           0.421  -1.545  -5.461  0.00  0.00     0.033 H 
ATOM     13  H12 <0> d           0.094   0.375  -4.176  0.00  0.00     0.036 H 
ATOM     14  H13 <0> d           1.608  -0.146  -3.385  0.00  0.00     0.036 H 
ENDROOT
BRANCH   1  15
ATOM     15  O3  <0> d           0.671  -0.465  -1.174  0.00  0.00    -0.370 OA
BRANCH  15  16
ATOM     16  C2  <0> d           0.002  -0.004   0.002  0.00  0.00     0.119 C 
ATOM     17  H1  <0> d          -1.020  -0.381   0.010  0.00  0.00     0.099 H 
BRANCH  16  18
ATOM     18  C1  <0> d          -0.019   1.526   0.010  0.00  0.00    -0.043 C 
ATOM     19  H2  <0> d           1.004   1.903   0.003  0.00  0.00     0.031 H 
ATOM     20  H3  <0> d          -0.546   1.887  -0.873  0.00  0.00     0.031 H 
ATOM     21  H4  <0> d          -0.529   1.877   0.907  0.00  0.00     0.031 H 
ENDBRANCH  16  18
BRANCH  16  22
ATOM     22  C3  <0> d           0.731  -0.503   1.223  0.00  0.00     0.202 C 
ATOM     23  O1  <0> d           0.272  -0.298   2.333  0.00  0.00    -0.646 OA
ATOM     24  O2  <0> d           1.780  -1.112   1.100  0.00  0.00    -0.646 OA
ENDBRANCH  16  22
ENDBRANCH  15  16
ENDBRANCH   1  15
TORSDOF 4
