REMARK  0 active torsions:
REMARK  status: ('A' for Active; 'I' for Inactive)
ROOT
ATOM      1  C1  <0> d          -1.825   5.588  -1.418  0.00  0.00    -0.082 A 
ATOM      2  C2  <0> d          -1.770   4.807  -2.563  0.00  0.00    -0.081 A 
ATOM      3  C3  <0> d          -1.406   3.478  -2.491  0.00  0.00    -0.057 A 
ATOM      4  C4  <0> d          -1.091   2.910  -1.264  0.00  0.00     0.042 A 
ATOM      5  C5  <0> d          -1.145   3.701  -0.102  0.00  0.00     0.036 A 
ATOM      6  C6  <0> d          -1.516   5.046  -0.190  0.00  0.00    -0.067 A 
ATOM      7  C7  <0> d          -0.805   3.096   1.194  0.00  0.00     0.163 C 
ATOM      8  O1  <0> d          -0.585   3.782   2.171  0.00  0.00    -0.292 OA
ATOM      9  C8  <0> d          -0.737   1.584   1.267  0.00  0.00     0.009 C 
ATOM     10  C9  <0> d          -0.013   1.086   0.008  0.00  0.00    -0.001 C 
ATOM     11  N1  <0> d          -0.728   1.575  -1.177  0.00  0.00    -0.389 N 
ATOM     12  H1  <0> d          -2.112   6.626  -1.489  0.00  0.00     0.083 H 
ATOM     13  H2  <0> d          -2.014   5.244  -3.520  0.00  0.00     0.083 H 
ATOM     14  H3  <0> d          -1.366   2.879  -3.390  0.00  0.00     0.086 H 
ATOM     15  H4  <0> d          -1.560   5.656   0.700  0.00  0.00     0.085 H 
ATOM     16  H5  <0> d          -1.663   1.210   1.309  0.00  0.00     0.047 H 
ATOM     17  H6  <0> d          -0.183   1.279   2.156  0.00  0.00     0.047 H 
ATOM     18  H7  <0> d           0.002  -0.004   0.002  0.00  0.00     0.064 H 
ATOM     19  H8  <0> d           1.009   1.465   0.000  0.00  0.00     0.064 H 
ATOM     20  H9  <0> d          -0.945   0.964  -1.899  0.00  0.00     0.159 HD
ENDROOT
TORSDOF 0
