REMARK  5 active torsions:
REMARK  status: ('A' for Active; 'I' for Inactive)
REMARK    1  A    between atoms: C1_1  and  C2_2 
REMARK    2  A    between atoms: C2_2  and  C3_4 
REMARK    3  A    between atoms: C2_2  and  C6_9 
REMARK    4  A    between atoms: C3_4  and  C4_6 
REMARK    5  A    between atoms: C3_4  and  O1_8 
ROOT
ATOM      1  C2  <0> d           0.002  -0.004   0.002  0.00  0.00     0.055 C 
ATOM      2  H1  <0> d           0.512  -0.356  -0.895  0.00  0.00     0.060 H 
ENDROOT
BRANCH   1   3
ATOM      3  C1  <0> d          -1.433  -0.534   0.013  0.00  0.00    -0.061 C 
ATOM      4  H3  <0> d          -1.960  -0.173  -0.870  0.00  0.00     0.028 H 
ATOM      5  H4  <0> d          -1.419  -1.623   0.007  0.00  0.00     0.028 H 
ATOM      6  H5  <0> d          -1.944  -0.182   0.910  0.00  0.00     0.028 H 
ENDBRANCH   1   3
BRANCH   1   7
ATOM      7  C3  <0> d          -0.019   1.526   0.010  0.00  0.00     0.064 C 
ATOM      8  H2  <0> d           1.004   1.903   0.003  0.00  0.00     0.090 H 
BRANCH   7   9
ATOM      9  C4  <0> d          -0.748   2.025  -1.210  0.00  0.00    -0.084 C 
ATOM     10  C5  <0> d          -1.763   2.842  -1.079  0.00  0.00    -0.122 C 
ATOM     11  H7  <0> d          -2.077   3.159  -0.095  0.00  0.00     0.066 H 
ATOM     12  H8  <0> d          -2.285   3.200  -1.954  0.00  0.00     0.066 H 
ATOM     13  H6  <0> d          -0.433   1.709  -2.194  0.00  0.00     0.079 H 
ENDBRANCH   7   9
BRANCH   7  14
ATOM     14  O1  <0> d          -0.688   1.987   1.186  0.00  0.00    -0.391 OA
ATOM     15  H9  <0> d          -1.605   1.688   1.259  0.00  0.00     0.210 HD
ENDBRANCH   7  14
ENDBRANCH   1   7
BRANCH   1  16
ATOM     16  C6  <0> d           0.731  -0.503   1.223  0.00  0.00     0.179 C 
ATOM     17  O2  <0> d           1.187   0.284   2.018  0.00  0.00    -0.648 OA
ATOM     18  O3  <0> d           0.874  -1.822   1.427  0.00  0.00    -0.648 OA
ENDBRANCH   1  16
TORSDOF 5
