REMARK  2 active torsions:
REMARK  status: ('A' for Active; 'I' for Inactive)
REMARK    1  A    between atoms: C1_1  and  C2_2 
REMARK    2  A    between atoms: C2_2  and  C6_7 
ROOT
ATOM      1  C2  <0> d          -2.273   1.577   0.687  0.00  0.00     0.145 C 
ATOM      2  C3  <0> d          -0.823   1.628   1.217  0.00  0.00    -0.025 C 
ATOM      3  C4  <0> d          -0.013   1.086   0.008  0.00  0.00    -0.042 C 
ATOM      4  C5  <0> d          -0.844   1.640  -1.177  0.00  0.00     0.021 C 
ATOM      5  O1  <0> d          -2.212   1.562  -0.744  0.00  0.00    -0.369 OA
ATOM      6  H4  <0> d          -0.704   0.981   2.086  0.00  0.00     0.038 H 
ATOM      7  H5  <0> d          -0.531   2.652   1.452  0.00  0.00     0.038 H 
ATOM      8  H6  <0> d           0.002  -0.004   0.002  0.00  0.00     0.036 H 
ATOM      9  H7  <0> d           1.000   1.490   0.001  0.00  0.00     0.036 H 
ATOM     10  H8  <0> d          -0.570   2.675  -1.380  0.00  0.00     0.074 H 
ATOM     11  H9  <0> d          -0.693   1.026  -2.064  0.00  0.00     0.074 H 
ENDROOT
BRANCH   1  12
ATOM     12  C1  <0> d          -2.965   0.308   1.190  0.00  0.00    -0.038 C 
ATOM     13  H1  <0> d          -2.417  -0.567   0.841  0.00  0.00     0.032 H 
ATOM     14  H2  <0> d          -2.986   0.314   2.280  0.00  0.00     0.032 H 
ATOM     15  H3  <0> d          -3.985   0.275   0.807  0.00  0.00     0.032 H 
ENDBRANCH   1  12
BRANCH   1  16
ATOM     16  C6  <0> d          -3.033   2.792   1.153  0.00  0.00     0.208 C 
ATOM     17  O2  <0> d          -2.693   3.368   2.160  0.00  0.00    -0.646 OA
ATOM     18  O3  <0> d          -4.087   3.235   0.451  0.00  0.00    -0.646 OA
ENDBRANCH   1  16
TORSDOF 2
