REMARK  1 active torsions:
REMARK  status: ('A' for Active; 'I' for Inactive)
REMARK    1  A    between atoms: C1_1  and  C2_2 
ROOT
ATOM      1  C2  <0> d           1.155   3.524   0.009  0.00  0.00    -0.039 A 
ATOM      2  C3  <0> d           1.181   2.145   0.002  0.00  0.00    -0.056 A 
ATOM      3  C4  <0> d          -0.017   1.428   0.010  0.00  0.00     0.045 A 
ATOM      4  C5  <0> d          -1.235   2.113   0.019  0.00  0.00    -0.061 A 
ATOM      5  C6  <0> d          -1.247   3.491   0.032  0.00  0.00    -0.060 A 
ATOM      6  C7  <0> d          -0.055   4.197   0.024  0.00  0.00     0.040 A 
ATOM      7 Cl1  <0> d          -0.079   5.933   0.033  0.00  0.00    -0.084 Cl
ATOM      8  C8  <0> d           0.002  -0.004   0.002  0.00  0.00     0.099 C 
ATOM      9  N1  <0> d           0.018  -1.140  -0.004  0.00  0.00    -0.191 NA
ATOM     10  H4  <0> d           2.125   1.621  -0.009  0.00  0.00     0.086 H 
ATOM     11  H5  <0> d          -2.165   1.563   0.021  0.00  0.00     0.085 H 
ATOM     12  H6  <0> d          -2.187   4.022   0.044  0.00  0.00     0.086 H 
ENDROOT
BRANCH   1  13
ATOM     13  C1  <0> d           2.447   4.300   0.002  0.00  0.00    -0.050 C 
ATOM     14  H1  <0> d           2.749   4.492  -1.028  0.00  0.00     0.033 H 
ATOM     15  H2  <0> d           2.305   5.247   0.522  0.00  0.00     0.033 H 
ATOM     16  H3  <0> d           3.221   3.722   0.506  0.00  0.00     0.033 H 
ENDBRANCH   1  13
TORSDOF 1
