REMARK  1 active torsions:
REMARK  status: ('A' for Active; 'I' for Inactive)
REMARK    1  A    between atoms: C3_3  and  N2_7 
ROOT
ATOM      1  C1  <0> d           4.752   2.038  -0.033  0.00  0.00    -0.064 A 
ATOM      2  C2  <0> d           3.436   2.473  -0.018  0.00  0.00    -0.054 A 
ATOM      3  C3  <0> d           2.424   1.517  -0.013  0.00  0.00     0.057 A 
ATOM      4  C4  <0> d           2.767   0.172  -0.019  0.00  0.00     0.028 A 
ATOM      5  N1  <0> d           4.032  -0.199  -0.038  0.00  0.00    -0.271 NA
ATOM      6  C5  <0> d           5.014   0.681  -0.043  0.00  0.00     0.002 A 
ATOM      7  H1  <0> d           5.563   2.752  -0.037  0.00  0.00     0.085 H 
ATOM      8  H2  <0> d           3.202   3.527  -0.010  0.00  0.00     0.087 H 
ATOM      9  H3  <0> d           1.990  -0.578  -0.010  0.00  0.00     0.118 H 
ATOM     10  H4  <0> d           6.038   0.337  -0.056  0.00  0.00     0.114 H 
ENDROOT
BRANCH   3  11
ATOM     11  N2  <0> d           1.077   1.908   0.002  0.00  0.00    -0.314 N 
ATOM     12  C8  <0> d           0.606   3.182   0.013  0.00  0.00     0.070 A 
ATOM     13  N3  <0> d          -0.699   3.142   0.026  0.00  0.00    -0.254 NA
ATOM     14  H7  <0> d           1.209   4.077   0.012  0.00  0.00     0.144 H 
ATOM     15  C7  <0> d          -1.105   1.864   0.017  0.00  0.00     0.019 A 
ATOM     16  C6  <0> d          -0.013   1.076   0.008  0.00  0.00     0.003 A 
ATOM     17  H6  <0> d          -2.130   1.525   0.019  0.00  0.00     0.117 H 
ATOM     18  H5  <0> d           0.002  -0.004   0.002  0.00  0.00     0.114 H 
ENDBRANCH   3  11
TORSDOF 1
