REMARK  5 active torsions:
REMARK  status: ('A' for Active; 'I' for Inactive)
REMARK    1  A    between atoms: C1_1  and  C2_2 
REMARK    2  A    between atoms: C2_2  and  C3_3 
REMARK    3  A    between atoms: C2_2  and  C4_4 
REMARK    4  A    between atoms: C4_4  and  C5_6 
REMARK    5  A    between atoms: C4_4  and  O1_12 
ROOT
ATOM      1  C5  <0> d          -0.052   1.108   0.073  0.00  0.00    -0.029 C 
ATOM      2  C6  <0> d          -0.853   1.441   1.333  0.00  0.00    -0.059 C 
ATOM      3  C7  <0> d          -2.217   0.751   1.268  0.00  0.00    -0.065 C 
ATOM      4  C8  <0> d          -2.978   1.241   0.034  0.00  0.00    -0.065 C 
ATOM      5  C9  <0> d          -2.177   0.908  -1.226  0.00  0.00    -0.065 C 
ATOM      6  C10 <0> d          -0.813   1.598  -1.160  0.00  0.00    -0.059 C 
ATOM      7  H9  <0> d           0.091   0.019   0.007  0.00  0.00     0.043 H 
ATOM      8  H10 <0> d          -0.306   1.089   2.220  0.00  0.00     0.033 H 
ATOM      9  H11 <0> d          -0.996   2.530   1.399  0.00  0.00     0.033 H 
ATOM     10  H12 <0> d          -2.074  -0.338   1.202  0.00  0.00     0.033 H 
ATOM     11  H13 <0> d          -2.794   0.991   2.173  0.00  0.00     0.033 H 
ATOM     12  H14 <0> d          -3.959   0.745  -0.013  0.00  0.00     0.033 H 
ATOM     13  H15 <0> d          -3.121   2.330   0.100  0.00  0.00     0.033 H 
ATOM     14  H16 <0> d          -2.034  -0.181  -1.292  0.00  0.00     0.033 H 
ATOM     15  H17 <0> d          -2.724   1.260  -2.112  0.00  0.00     0.033 H 
ATOM     16  H18 <0> d          -0.956   2.687  -1.094  0.00  0.00     0.033 H 
ATOM     17  H19 <0> d          -0.237   1.358  -2.066  0.00  0.00     0.033 H 
ENDROOT
BRANCH   1  18
ATOM     18  C4  <0> d           1.312   1.798   0.139  0.00  0.00     0.042 C 
ATOM     19  H1  <0> d           1.203   2.888   0.239  0.00  0.00     0.084 H 
BRANCH  18  20
ATOM     20  C2  <0> d           2.125   1.213   1.296  0.00  0.00    -0.036 C 
ATOM     21  H5  <0> d           1.566   1.336   2.235  0.00  0.00     0.042 H 
BRANCH  20  22
ATOM     22  C1  <0> d           2.375  -0.275   1.042  0.00  0.00    -0.071 C 
ATOM     23  H2  <0> d           1.412  -0.801   0.968  0.00  0.00     0.028 H 
ATOM     24  H3  <0> d           2.959  -0.696   1.874  0.00  0.00     0.028 H 
ATOM     25  H4  <0> d           2.933  -0.398   0.103  0.00  0.00     0.028 H 
ENDBRANCH  20  22
BRANCH  20  26
ATOM     26  C3  <0> d           3.464   1.945   1.399  0.00  0.00    -0.071 C 
ATOM     27  H6  <0> d           3.284   3.015   1.582  0.00  0.00     0.028 H 
ATOM     28  H7  <0> d           4.023   1.822   0.460  0.00  0.00     0.028 H 
ATOM     29  H8  <0> d           4.048   1.524   2.231  0.00  0.00     0.028 H 
ENDBRANCH  20  26
ENDBRANCH  18  20
BRANCH  18  30
ATOM     30  O1  <0> d           2.012   1.587  -1.089  0.00  0.00    -0.395 OA
ATOM     31  H20 <0> d           1.580   1.942  -2.036  0.00  0.00     0.210 HD
ENDBRANCH  18  30
ENDBRANCH   1  18
TORSDOF 5
