REMARK  3 active torsions:
REMARK  status: ('A' for Active; 'I' for Inactive)
REMARK    1  A    between atoms: C1_1  and  C2_2 
REMARK    2  A    between atoms: C3_3  and  C4_4 
REMARK    3  A    between atoms: C6_8  and  C7_11 
ROOT
ATOM      1  C4  <0> d          -1.240   2.891  -0.670  0.00  0.00     0.148 C 
ATOM      2  H1  <0> d          -0.559   3.662  -1.032  0.00  0.00     0.136 H 
ATOM      3  O1  <0> d          -0.783   1.600  -1.105  0.00  0.00    -0.355 OA
ATOM      4  C5  <0> d          -0.013   1.086   0.008  0.00  0.00     0.046 C 
ATOM      5  C6  <0> d          -0.814   1.623   1.220  0.00  0.00     0.059 C 
ATOM      6  H2  <0> d          -1.658   0.971   1.444  0.00  0.00     0.086 H 
ATOM      7  O2  <0> d          -1.272   2.912   0.763  0.00  0.00    -0.351 OA
ATOM      8  H8  <0> d           0.002  -0.004   0.002  0.00  0.00     0.078 H 
ATOM      9  H9  <0> d           1.000   1.488   0.001  0.00  0.00     0.078 H 
ENDROOT
BRANCH   1  10
ATOM     10  C3  <0> d          -2.625   3.146  -1.208  0.00  0.00    -0.055 C 
ATOM     11  C2  <0> d          -2.850   4.188  -1.970  0.00  0.00    -0.106 C 
ATOM     12  H6  <0> d          -2.044   4.864  -2.212  0.00  0.00     0.075 H 
ATOM     13  H7  <0> d          -3.431   2.469  -0.966  0.00  0.00     0.083 H 
BRANCH  11  14
ATOM     14  C1  <0> d          -4.235   4.442  -2.508  0.00  0.00    -0.060 C 
ATOM     15  H3  <0> d          -4.228   5.347  -3.115  0.00  0.00     0.032 H 
ATOM     16  H4  <0> d          -4.548   3.596  -3.120  0.00  0.00     0.032 H 
ATOM     17  H5  <0> d          -4.930   4.567  -1.678  0.00  0.00     0.032 H 
ENDBRANCH  11  14
ENDBRANCH   1  10
BRANCH   5  18
ATOM     18  C7  <0> d           0.093   1.774   2.443  0.00  0.00    -0.050 C 
ATOM     19  H10 <0> d           0.898   2.473   2.215  0.00  0.00     0.031 H 
ATOM     20  H11 <0> d          -0.489   2.152   3.283  0.00  0.00     0.031 H 
ATOM     21  H12 <0> d           0.517   0.804   2.703  0.00  0.00     0.031 H 
ENDBRANCH   5  18
TORSDOF 3
