REMARK  2 active torsions:
REMARK  status: ('A' for Active; 'I' for Inactive)
REMARK    1  A    between atoms: C4_4  and  O2_11 
REMARK    2  A    between atoms: C5_6  and  O1_10 
ROOT
ATOM      1  C1  <0> d           0.002  -0.004   0.002  0.00  0.00    -0.065 C 
ATOM      2  C2  <0> d          -0.018   1.500   0.010  0.00  0.00    -0.063 C 
ATOM      3  C3  <0> d           1.437   2.010  -0.001  0.00  0.00    -0.039 C 
ATOM      4  C4  <0> d           2.051   1.966   1.318  0.00  0.00     0.060 C 
ATOM      5  H1  <0> d           1.462   2.576   2.002  0.00  0.00     0.086 H 
ATOM      6  C5  <0> d           2.138   0.531   1.878  0.00  0.00     0.060 C 
ATOM      7  H2  <0> d           2.407  -0.158   1.078  0.00  0.00     0.086 H 
ATOM      8  C6  <0> d           0.793   0.154   2.439  0.00  0.00    -0.039 C 
ATOM      9  C7  <0> d          -0.079  -0.603   1.419  0.00  0.00    -0.063 C 
ATOM     10  H3  <0> d          -0.844  -0.365  -0.582  0.00  0.00     0.033 H 
ATOM     11  H4  <0> d           0.924  -0.342  -0.471  0.00  0.00     0.033 H 
ATOM     12  H5  <0> d          -0.541   1.865  -0.875  0.00  0.00     0.033 H 
ATOM     13  H6  <0> d          -0.523   1.855   0.909  0.00  0.00     0.033 H 
ATOM     14  H7  <0> d           2.022   1.394  -0.683  0.00  0.00     0.036 H 
ATOM     15  H8  <0> d           1.448   3.039  -0.361  0.00  0.00     0.036 H 
ATOM     16  H9  <0> d           0.272   1.062   2.744  0.00  0.00     0.036 H 
ATOM     17  H10 <0> d           0.941  -0.477   3.314  0.00  0.00     0.036 H 
ATOM     18  H11 <0> d          -1.116  -0.573   1.754  0.00  0.00     0.033 H 
ATOM     19  H12 <0> d           0.248  -1.641   1.382  0.00  0.00     0.033 H 
ENDROOT
BRANCH   4  20
ATOM     20  O2  <0> d           3.369   2.510   1.234  0.00  0.00    -0.393 OA
ATOM     21  H14 <0> d           3.401   3.414   0.890  0.00  0.00     0.210 HD
ENDBRANCH   4  20
BRANCH   6  22
ATOM     22  O1  <0> d           3.122   0.479   2.913  0.00  0.00    -0.393 OA
ATOM     23  H13 <0> d           3.218  -0.393   3.320  0.00  0.00     0.210 HD
ENDBRANCH   6  22
TORSDOF 2
