REMARK  2 active torsions:
REMARK  status: ('A' for Active; 'I' for Inactive)
REMARK    1  A    between atoms: C1_1  and  C2_2 
REMARK    2  A    between atoms: C2_2  and  O1_11 
ROOT
ATOM      1  C2  <0> d          -0.729   1.579   1.267  0.00  0.00     0.058 C 
ATOM      2  C3  <0> d          -0.019   1.049   2.534  0.00  0.00    -0.033 C 
ATOM      3  C4  <0> d          -1.096   0.182   3.255  0.00  0.00    -0.051 C 
ATOM      4  H1  <0> d          -0.719  -0.545   3.974  0.00  0.00     0.040 H 
ATOM      5  C5  <0> d          -2.135   1.216   3.789  0.00  0.00    -0.061 C 
ATOM      6  C6  <0> d          -2.845   1.746   2.522  0.00  0.00    -0.059 C 
ATOM      7  C7  <0> d          -2.168   0.984   1.342  0.00  0.00    -0.024 C 
ATOM      8  H2  <0> d          -2.720   0.951   0.403  0.00  0.00     0.044 H 
ATOM      9  C8  <0> d          -1.874  -0.400   2.022  0.00  0.00    -0.056 C 
ATOM     10  H6  <0> d           0.840   0.436   2.259  0.00  0.00     0.037 H 
ATOM     11  H7  <0> d           0.293   1.877   3.169  0.00  0.00     0.037 H 
ATOM     12  H8  <0> d          -2.852   0.728   4.449  0.00  0.00     0.033 H 
ATOM     13  H9  <0> d          -1.629   2.029   4.310  0.00  0.00     0.033 H 
ATOM     14  H10 <0> d          -2.688   2.820   2.420  0.00  0.00     0.033 H 
ATOM     15  H11 <0> d          -3.910   1.519   2.560  0.00  0.00     0.033 H 
ATOM     16  H12 <0> d          -1.240  -1.034   1.402  0.00  0.00     0.034 H 
ATOM     17  H13 <0> d          -2.789  -0.912   2.321  0.00  0.00     0.034 H 
ENDROOT
BRANCH   1  18
ATOM     18  C1  <0> d          -0.013   1.086   0.008  0.00  0.00    -0.048 C 
ATOM     19  H3  <0> d           0.002  -0.004   0.002  0.00  0.00     0.031 H 
ATOM     20  H4  <0> d           1.010   1.463   0.000  0.00  0.00     0.031 H 
ATOM     21  H5  <0> d          -0.540   1.447  -0.875  0.00  0.00     0.031 H 
ENDBRANCH   1  18
BRANCH   1  22
ATOM     22  O1  <0> d          -0.777   3.007   1.284  0.00  0.00    -0.390 OA
ATOM     23  H14 <0> d           0.092   3.430   1.265  0.00  0.00     0.210 HD
ENDBRANCH   1  22
TORSDOF 2
