REMARK  4 active torsions:
REMARK  status: ('A' for Active; 'I' for Inactive)
REMARK    1  A    between atoms: C1_1  and  C2_2 
REMARK    2  A    between atoms: C4_4  and  C6_8 
REMARK    3  A    between atoms: N1_5  and  C5_7 
REMARK    4  A    between atoms: C6_8  and  C7_10 
ROOT
ATOM      1  C2  <0> d           0.002  -0.004   0.002  0.00  0.00     0.053 A 
ATOM      2  C3  <0> d          -0.017   1.391   0.010  0.00  0.00    -0.027 A 
ATOM      3  C4  <0> d           1.317   1.776  -0.001  0.00  0.00     0.099 A 
ATOM      4  N1  <0> d           2.047   0.619  -0.014  0.00  0.00    -0.270 N 
ATOM      5  N2  <0> d           1.253  -0.391  -0.012  0.00  0.00    -0.177 NA
ATOM      6  H4  <0> d          -0.884   2.034   0.018  0.00  0.00     0.090 H 
ENDROOT
BRANCH   3   7
ATOM      7  C6  <0> d           1.837   3.144   0.001  0.00  0.00     0.173 C 
ATOM      8  O1  <0> d           3.035   3.337  -0.010  0.00  0.00    -0.291 OA
BRANCH   7   9
ATOM      9  C7  <0> d           0.885   4.312   0.016  0.00  0.00    -0.015 C 
ATOM     10  H8  <0> d           0.317   4.268   0.838  0.00  0.00     0.038 H 
ATOM     11  H9  <0> d           1.452   5.243   0.015  0.00  0.00     0.038 H 
ATOM     12  H10 <0> d           0.248   4.273  -0.868  0.00  0.00     0.038 H 
ENDBRANCH   7   9
ENDBRANCH   3   7
BRANCH   4  13
ATOM     13  C5  <0> d           3.510   0.543  -0.029  0.00  0.00     0.003 C 
ATOM     14  H5  <0> d           3.863   0.530  -1.060  0.00  0.00     0.059 H 
ATOM     15  H6  <0> d           3.924   1.410   0.485  0.00  0.00     0.059 H 
ATOM     16  H7  <0> d           3.832  -0.367   0.477  0.00  0.00     0.059 H 
ENDBRANCH   4  13
BRANCH   1  17
ATOM     17  C1  <0> d          -1.204  -0.907   0.009  0.00  0.00    -0.034 C 
ATOM     18  H1  <0> d          -1.505  -1.119  -1.017  0.00  0.00     0.035 H 
ATOM     19  H2  <0> d          -0.957  -1.840   0.515  0.00  0.00     0.035 H 
ATOM     20  H3  <0> d          -2.024  -0.415   0.533  0.00  0.00     0.035 H 
ENDBRANCH   1  17
TORSDOF 4
