REMARK  3 active torsions:
REMARK  status: ('A' for Active; 'I' for Inactive)
REMARK    1  A    between atoms: C3_3  and  N2_11 
REMARK    2  A    between atoms: C4_4  and  C7_8 
REMARK    3  A    between atoms: C6_6  and  N1_7 
ROOT
ATOM      1  C1  <0> d          -0.078   1.264   0.026  0.00  0.00    -0.056 A 
ATOM      2  C2  <0> d           1.024   2.092  -0.012  0.00  0.00    -0.054 A 
ATOM      3  C3  <0> d           2.303   1.551  -0.044  0.00  0.00     0.043 A 
ATOM      4  C4  <0> d           2.470   0.156  -0.038  0.00  0.00     0.069 A 
ATOM      5  C5  <0> d           1.346  -0.675   0.001  0.00  0.00    -0.039 A 
ATOM      6  C6  <0> d           0.080  -0.119   0.033  0.00  0.00     0.026 A 
ATOM      7  H1  <0> d          -1.069   1.691   0.056  0.00  0.00     0.087 H 
ATOM      8  H2  <0> d           0.893   3.164  -0.017  0.00  0.00     0.087 H 
ATOM      9  H3  <0> d           1.466  -1.748   0.006  0.00  0.00     0.088 H 
ENDROOT
BRANCH   3  10
ATOM     10  N2  <0> d           3.413   2.386  -0.083  0.00  0.00    -0.398 N 
ATOM     11  H6  <0> d           3.296   3.345  -0.172  0.00  0.00     0.156 HD
ATOM     12  H7  <0> d           4.305   2.010  -0.020  0.00  0.00     0.156 HD
ENDBRANCH   3  10
BRANCH   4  13
ATOM     13  C7  <0> d           3.820  -0.427  -0.072  0.00  0.00     0.211 C 
ATOM     14  O1  <0> d           3.961  -1.637  -0.183  0.00  0.00    -0.644 OA
ATOM     15  O2  <0> d           4.802   0.298   0.010  0.00  0.00    -0.644 OA
ENDBRANCH   4  13
BRANCH   6  16
ATOM     16  N1  <0> d          -1.047  -0.949   0.071  0.00  0.00    -0.399 N 
ATOM     17  H4  <0> d          -1.935  -0.561   0.094  0.00  0.00     0.156 HD
ATOM     18  H5  <0> d          -0.939  -1.913   0.076  0.00  0.00     0.156 HD
ENDBRANCH   6  16
TORSDOF 3
