REMARK  3 active torsions:
REMARK  status: ('A' for Active; 'I' for Inactive)
REMARK    1  A    between atoms: C3_3  and  C6_7 
REMARK    2  A    between atoms: C6_7  and  C7_8 
REMARK    3  A    between atoms: C7_8  and  O1_9 
ROOT
ATOM      1  C1  <0> d           0.360  -0.557   4.180  0.00  0.00    -0.066 A 
ATOM      2  C2  <0> d          -0.341  -0.135   3.061  0.00  0.00    -0.074 A 
ATOM      3  C3  <0> d           0.000   1.080   2.488  0.00  0.00    -0.039 A 
ATOM      4  C4  <0> d           1.013   1.831   3.054  0.00  0.00     0.008 A 
ATOM      5  N1  <0> d           1.656   1.400   4.122  0.00  0.00    -0.273 NA
ATOM      6  C5  <0> d           1.362   0.247   4.690  0.00  0.00     0.002 A 
ATOM      7  H1  <0> d           0.123  -1.500   4.651  0.00  0.00     0.085 H 
ATOM      8  H2  <0> d          -1.132  -0.741   2.643  0.00  0.00     0.084 H 
ATOM      9  H3  <0> d           1.282   2.781   2.616  0.00  0.00     0.115 H 
ATOM     10  H4  <0> d           1.910  -0.072   5.564  0.00  0.00     0.114 H 
ENDROOT
BRANCH   3  11
ATOM     11  C6  <0> d          -0.729   1.579   1.267  0.00  0.00    -0.020 C 
ATOM     12  H5  <0> d          -0.744   2.669   1.273  0.00  0.00     0.043 H 
ATOM     13  H6  <0> d          -1.751   1.202   1.275  0.00  0.00     0.043 H 
BRANCH  11  14
ATOM     14  C7  <0> d          -0.013   1.086   0.008  0.00  0.00     0.020 C 
ATOM     15  H7  <0> d           0.002  -0.004   0.002  0.00  0.00     0.074 H 
ATOM     16  H8  <0> d           1.010   1.463   0.000  0.00  0.00     0.074 H 
BRANCH  14  17
ATOM     17  O1  <0> d          -0.704   1.559  -1.150  0.00  0.00    -0.401 OA
ATOM     18  H9  <0> d          -0.304   1.284  -1.986  0.00  0.00     0.209 HD
ENDBRANCH  14  17
ENDBRANCH  11  14
ENDBRANCH   3  11
TORSDOF 3
