REMARK  6 active torsions:
REMARK  status: ('A' for Active; 'I' for Inactive)
REMARK    1  A    between atoms: C1_1  and  C2_2 
REMARK    2  A    between atoms: C2_2  and  C3_3 
REMARK    3  A    between atoms: C3_3  and  C4_4 
REMARK    4  A    between atoms: C3_3  and  C5_5 
REMARK    5  A    between atoms: C3_3  and  C7_8 
REMARK    6  A    between atoms: C5_5  and  C6_6 
ROOT
ATOM      1  C3  <0> d          -2.479   0.930   0.019  0.00  0.00     0.054 C 
ENDROOT
BRANCH   1   2
ATOM      2  C2  <0> d          -3.814   1.677   0.029  0.00  0.00    -0.052 C 
ATOM      3  H4  <0> d          -3.876   2.298   0.923  0.00  0.00     0.034 H 
ATOM      4  H5  <0> d          -3.885   2.307  -0.857  0.00  0.00     0.034 H 
BRANCH   2   5
ATOM      5  C1  <0> d          -4.963   0.667   0.029  0.00  0.00    -0.075 C 
ATOM      6  H1  <0> d          -4.901   0.046  -0.865  0.00  0.00     0.027 H 
ATOM      7  H2  <0> d          -4.893   0.036   0.915  0.00  0.00     0.027 H 
ATOM      8  H3  <0> d          -5.915   1.199   0.037  0.00  0.00     0.027 H 
ENDBRANCH   2   5
ENDBRANCH   1   2
BRANCH   1   9
ATOM      9  C4  <0> d          -2.380   0.045   1.263  0.00  0.00    -0.059 C 
ATOM     10  H6  <0> d          -2.442   0.666   2.156  0.00  0.00     0.029 H 
ATOM     11  H7  <0> d          -3.199  -0.675   1.263  0.00  0.00     0.029 H 
ATOM     12  H8  <0> d          -1.429  -0.487   1.255  0.00  0.00     0.029 H 
ENDBRANCH   1   9
BRANCH   1  13
ATOM     13  C5  <0> d          -1.329   1.940   0.019  0.00  0.00     0.032 C 
ATOM     14  H9  <0> d          -1.391   2.561   0.913  0.00  0.00     0.051 H 
ATOM     15  H10 <0> d          -1.400   2.570  -0.867  0.00  0.00     0.051 H 
BRANCH  13  16
ATOM     16  C6  <0> d          -0.014   1.204   0.009  0.00  0.00     0.173 C 
ATOM     17  O1  <0> d           0.002  -0.004   0.002  0.00  0.00    -0.648 OA
ATOM     18  O3  <0> d           1.139   1.891   0.001  0.00  0.00    -0.648 OA
ENDBRANCH  13  16
ENDBRANCH   1  13
BRANCH   1  19
ATOM     19  C7  <0> d          -2.393   0.071  -1.217  0.00  0.00     0.182 C 
ATOM     20  O2  <0> d          -2.266  -1.126  -1.113  0.00  0.00    -0.647 OA
ATOM     21  O4  <0> d          -2.458   0.636  -2.433  0.00  0.00    -0.647 OA
ENDBRANCH   1  19
TORSDOF 6
