REMARK  1 active torsions:
REMARK  status: ('A' for Active; 'I' for Inactive)
REMARK    1  A    between atoms: C1_1  and  C2_2 
ROOT
ATOM      1  C2  <0> d           0.002  -0.004   0.002  0.00  0.00    -0.016 C 
ATOM      2  C3  <0> d          -1.273  -0.647   0.580  0.00  0.00     0.024 C 
ATOM      3  O1  <0> d          -0.376  -1.551   1.254  0.00  0.00    -0.390 OA
ATOM      4  C4  <0> d           0.727  -0.623   1.212  0.00  0.00     0.024 C 
ATOM      5  H4  <0> d           0.312  -0.420  -0.957  0.00  0.00     0.045 H 
ATOM      6  H5  <0> d          -1.830   0.006   1.253  0.00  0.00     0.075 H 
ATOM      7  H6  <0> d          -1.903  -1.127  -0.169  0.00  0.00     0.075 H 
ATOM      8  H7  <0> d           1.683  -1.084   0.965  0.00  0.00     0.075 H 
ATOM      9  H8  <0> d           0.781   0.036   2.078  0.00  0.00     0.075 H 
ENDROOT
BRANCH   1  10
ATOM     10  C1  <0> d          -0.019   1.526   0.010  0.00  0.00    -0.069 C 
ATOM     11  H1  <0> d           1.004   1.903   0.003  0.00  0.00     0.028 H 
ATOM     12  H2  <0> d          -0.546   1.887  -0.873  0.00  0.00     0.028 H 
ATOM     13  H3  <0> d          -0.529   1.877   0.907  0.00  0.00     0.028 H 
ENDBRANCH   1  10
TORSDOF 1
