REMARK  4 active torsions:
REMARK  status: ('A' for Active; 'I' for Inactive)
REMARK    1  A    between atoms: C1_1  and  C2_2 
REMARK    2  A    between atoms: C2_2  and  C6_6 
REMARK    3  A    between atoms: C3_3  and  C4_4 
REMARK    4  A    between atoms: C6_6  and  O1_7 
ROOT
ATOM      1  C2  <0> d          -2.352   3.844   0.034  0.00  0.00    -0.061 C 
ATOM      2  C3  <0> d          -1.192   3.196   0.025  0.00  0.00    -0.080 C 
ATOM      3  H4  <0> d          -0.264   3.748   0.024  0.00  0.00     0.083 H 
ENDROOT
BRANCH   1   4
ATOM      4  C1  <0> d          -3.646   3.073   0.036  0.00  0.00    -0.053 C 
ATOM      5  H1  <0> d          -3.954   2.881   1.064  0.00  0.00     0.033 H 
ATOM      6  H2  <0> d          -4.416   3.654  -0.471  0.00  0.00     0.033 H 
ATOM      7  H3  <0> d          -3.506   2.125  -0.484  0.00  0.00     0.033 H 
ENDBRANCH   1   4
BRANCH   1   8
ATOM      8  C6  <0> d          -2.372   5.351   0.042  0.00  0.00     0.037 C 
ATOM      9  H8  <0> d          -2.895   5.712  -0.843  0.00  0.00     0.081 H 
ATOM     10  H9  <0> d          -2.887   5.702   0.937  0.00  0.00     0.081 H 
BRANCH   8  11
ATOM     11  O1  <0> d          -1.032   5.846   0.039  0.00  0.00    -0.397 OA
ATOM     12  H10 <0> d          -0.968   6.811   0.044  0.00  0.00     0.209 HD
ENDBRANCH   8  11
ENDBRANCH   1   8
BRANCH   2  13
ATOM     13  C4  <0> d          -1.172   1.724   0.017  0.00  0.00    -0.092 C 
ATOM     14  C5  <0> d          -0.013   1.076   0.008  0.00  0.00    -0.121 C 
ATOM     15  H6  <0> d           0.002  -0.004   0.002  0.00  0.00     0.066 H 
ATOM     16  H7  <0> d           0.915   1.629   0.002  0.00  0.00     0.066 H 
ATOM     17  H5  <0> d          -2.100   1.172   0.018  0.00  0.00     0.082 H 
ENDBRANCH   2  13
TORSDOF 4
