REMARK  0 active torsions:
REMARK  status: ('A' for Active; 'I' for Inactive)
ROOT
ATOM      1  C1  <0> d           3.513   2.128  -0.275  0.00  0.00     0.020 A 
ATOM      2  C2  <0> d           3.467   3.480   0.034  0.00  0.00     0.021 A 
ATOM      3  N1  <0> d           2.315   4.064   0.320  0.00  0.00    -0.240 NA
ATOM      4  C3  <0> d           1.201   3.349   0.309  0.00  0.00     0.159 A 
ATOM      5  C4  <0> d           1.250   1.977   0.001  0.00  0.00     0.169 A 
ATOM      6  N2  <0> d           2.410   1.405  -0.286  0.00  0.00    -0.250 NA
ATOM      7  C5  <0> d          -0.014   1.212   0.009  0.00  0.00     0.275 C 
ATOM      8  O1  <0> d           0.002  -0.004   0.002  0.00  0.00    -0.266 OA
ATOM      9  N3  <0> d          -1.187   1.879   0.018  0.00  0.00    -0.340 N 
ATOM     10  C6  <0> d          -1.226   3.340  -0.047  0.00  0.00     0.056 C 
ATOM     11  N4  <0> d          -0.033   3.911   0.588  0.00  0.00    -0.357 N 
ATOM     12  H1  <0> d           4.460   1.664  -0.509  0.00  0.00     0.117 H 
ATOM     13  H2  <0> d           4.378   4.060   0.042  0.00  0.00     0.117 H 
ATOM     14  H3  <0> d          -2.018   1.382   0.072  0.00  0.00     0.164 HD
ATOM     15  H4  <0> d          -2.117   3.702   0.466  0.00  0.00     0.096 H 
ATOM     16  H5  <0> d          -1.261   3.647  -1.093  0.00  0.00     0.096 H 
ATOM     17  H6  <0> d          -0.107   4.667   1.191  0.00  0.00     0.162 HD
ENDROOT
TORSDOF 0
