REMARK  2 active torsions:
REMARK  status: ('A' for Active; 'I' for Inactive)
REMARK    1  A    between atoms: C1_1  and  C2_2 
REMARK    2  A    between atoms: C8_11  and  N3_12 
ROOT
ATOM      1  C2  <0> d           2.374   1.447  -0.013  0.00  0.00    -0.035 A 
ATOM      2  C3  <0> d           1.187   2.118   0.002  0.00  0.00    -0.061 A 
ATOM      3  C4  <0> d          -0.017   1.405   0.010  0.00  0.00     0.012 A 
ATOM      4  C5  <0> d          -1.423   1.795   0.031  0.00  0.00     0.034 A 
ATOM      5  N1  <0> d          -2.139   0.706   0.027  0.00  0.00    -0.186 NA
ATOM      6  N2  <0> d          -1.305  -0.417   0.013  0.00  0.00    -0.278 N 
ATOM      7  H1  <0> d          -1.613  -1.368   0.011  0.00  0.00     0.189 HD
ATOM      8  C6  <0> d           0.002  -0.004   0.002  0.00  0.00     0.064 A 
ATOM      9  C7  <0> d           1.222  -0.673  -0.013  0.00  0.00    -0.029 A 
ATOM     10  C8  <0> d           2.400   0.051  -0.020  0.00  0.00     0.034 A 
ATOM     11  H5  <0> d           1.176   3.198   0.008  0.00  0.00     0.085 H 
ATOM     12  H6  <0> d          -1.803   2.806   0.042  0.00  0.00     0.118 H 
ATOM     13  H7  <0> d           1.249  -1.753  -0.019  0.00  0.00     0.090 H 
ENDROOT
BRANCH   1  14
ATOM     14  C1  <0> d           3.668   2.219  -0.021  0.00  0.00    -0.049 C 
ATOM     15  H2  <0> d           3.970   2.410  -1.051  0.00  0.00     0.033 H 
ATOM     16  H3  <0> d           3.529   3.167   0.499  0.00  0.00     0.033 H 
ATOM     17  H4  <0> d           4.441   1.638   0.482  0.00  0.00     0.033 H 
ENDBRANCH   1  14
BRANCH  10  18
ATOM     18  N3  <0> d           3.626  -0.619  -0.035  0.00  0.00    -0.399 N 
ATOM     19  H8  <0> d           3.648  -1.588  -0.041  0.00  0.00     0.156 HD
ATOM     20  H9  <0> d           4.454  -0.114  -0.040  0.00  0.00     0.156 HD
ENDBRANCH  10  18
TORSDOF 2
