REMARK  1 active torsions:
REMARK  status: ('A' for Active; 'I' for Inactive)
REMARK    1  A    between atoms: C1_1  and  N1_2 
ROOT
ATOM      1  N1  <0> d          -0.703   1.561   1.216  0.00  0.00     0.097 N 
ATOM      2  C2  <0> d          -0.013   1.086   0.008  0.00  0.00     0.162 C 
ATOM      3  C3  <0> d          -0.755   1.594  -1.231  0.00  0.00     0.202 C 
ATOM      4  H1  <0> d          -1.760   1.172  -1.252  0.00  0.00     0.140 H 
ATOM      5  O1  <0> d          -0.837   3.021  -1.180  0.00  0.00    -0.287 OA
ATOM      6  C4  <0> d          -1.504   3.518  -0.017  0.00  0.00     0.383 C 
ATOM      7  C5  <0> d          -0.769   3.029   1.235  0.00  0.00     0.197 C 
ATOM      8  F1  <0> d          -1.506   4.917  -0.041  0.00  0.00    -0.174 F 
ATOM      9  F2  <0> d          -2.822   3.049   0.002  0.00  0.00    -0.174 F 
ATOM     10  F3  <0> d          -0.062   1.206  -2.382  0.00  0.00    -0.218 F 
ATOM     11  H5  <0> d           0.002  -0.004   0.002  0.00  0.00     0.088 H 
ATOM     12  H6  <0> d           1.010   1.464   0.000  0.00  0.00     0.088 H 
ATOM     13  H7  <0> d           0.241   3.439   1.247  0.00  0.00     0.093 H 
ATOM     14  H8  <0> d          -1.307   3.358   2.124  0.00  0.00     0.093 H 
ENDROOT
BRANCH   1  15
ATOM     15  C1  <0> d          -0.053   1.047   2.430  0.00  0.00     0.096 C 
ATOM     16  H2  <0> d           0.982   1.390   2.460  0.00  0.00     0.071 H 
ATOM     17  H3  <0> d          -0.583   1.414   3.309  0.00  0.00     0.071 H 
ATOM     18  H4  <0> d          -0.075  -0.042   2.420  0.00  0.00     0.071 H 
ENDBRANCH   1  15
TORSDOF 1
