REMARK  2 active torsions:
REMARK  status: ('A' for Active; 'I' for Inactive)
REMARK    1  A    between atoms: C1_1  and  C2_2 
REMARK    2  A    between atoms: C5_5  and  C8_8 
ROOT
ATOM      1  C2  <0> d           0.002  -0.004   0.002  0.00  0.00    -0.062 A 
ATOM      2  C3  <0> d           0.006  -0.686  -1.201  0.00  0.00    -0.076 A 
ATOM      3  C4  <0> d           0.025  -2.066  -1.216  0.00  0.00    -0.069 A 
ATOM      4  C5  <0> d           0.041  -2.773  -0.013  0.00  0.00     0.015 A 
ATOM      5  C6  <0> d           0.037  -2.079   1.197  0.00  0.00    -0.069 A 
ATOM      6  C7  <0> d           0.023  -0.699   1.198  0.00  0.00    -0.076 A 
ATOM      7  H4  <0> d          -0.007  -0.138  -2.132  0.00  0.00     0.084 H 
ATOM      8  H5  <0> d           0.027  -2.598  -2.156  0.00  0.00     0.085 H 
ATOM      9  H6  <0> d           0.049  -2.621   2.131  0.00  0.00     0.085 H 
ATOM     10  H7  <0> d           0.024  -0.161   2.134  0.00  0.00     0.084 H 
ENDROOT
BRANCH   4  11
ATOM     11  C8  <0> d           0.061  -4.253  -0.021  0.00  0.00     0.206 A 
ATOM     12  N4  <0> d           0.077  -5.057   1.043  0.00  0.00    -0.106 NA
ATOM     13  N3  <0> d           0.088  -6.271   0.611  0.00  0.00    -0.021 NA
ATOM     14  N2  <0> d           0.088  -6.264  -0.676  0.00  0.00    -0.021 NA
ATOM     15  N1  <0> d           0.072  -5.045  -1.095  0.00  0.00    -0.106 NA
ENDBRANCH   4  11
BRANCH   1  16
ATOM     16  C1  <0> d          -0.018   1.503   0.010  0.00  0.00    -0.051 C 
ATOM     17  H1  <0> d           1.004   1.880   0.003  0.00  0.00     0.033 H 
ATOM     18  H2  <0> d          -0.545   1.864  -0.873  0.00  0.00     0.033 H 
ATOM     19  H3  <0> d          -0.529   1.854   0.907  0.00  0.00     0.033 H 
ENDBRANCH   1  16
TORSDOF 2
