REMARK  7 active torsions:
REMARK  status: ('A' for Active; 'I' for Inactive)
REMARK    1  A    between atoms: C1_1  and  C2_2 
REMARK    2  A    between atoms: C2_2  and  C3_4 
REMARK    3  A    between atoms: C2_2  and  C8_9 
REMARK    4  A    between atoms: C3_4  and  C4_5 
REMARK    5  A    between atoms: C4_5  and  C5_6 
REMARK    6  A    between atoms: C4_5  and  C6_7 
REMARK    7  A    between atoms: C4_5  and  C7_8 
ROOT
ATOM      1  C4  <0> d           0.823   1.210  -0.030  0.00  0.00    -0.051 C 
ENDROOT
BRANCH   1   2
ATOM      2  C3  <0> d           0.786  -0.015  -0.945  0.00  0.00    -0.047 C 
ATOM      3  H5  <0> d           0.224  -0.814  -0.461  0.00  0.00     0.035 H 
ATOM      4  H6  <0> d           0.305   0.248  -1.887  0.00  0.00     0.035 H 
BRANCH   2   5
ATOM      5  C2  <0> d           2.215  -0.491  -1.218  0.00  0.00     0.028 C 
ATOM      6  H1  <0> d           2.809   0.342  -1.595  0.00  0.00     0.056 H 
BRANCH   5   7
ATOM      7  C1  <0> d           2.189  -1.612  -2.260  0.00  0.00    -0.064 C 
ATOM      8  H2  <0> d           3.196  -2.008  -2.392  0.00  0.00     0.028 H 
ATOM      9  H3  <0> d           1.527  -2.408  -1.920  0.00  0.00     0.028 H 
ATOM     10  H4  <0> d           1.826  -1.217  -3.209  0.00  0.00     0.028 H 
ENDBRANCH   5   7
BRANCH   5  11
ATOM     11  C8  <0> d           2.826  -1.007   0.059  0.00  0.00     0.176 C 
ATOM     12  O1  <0> d           2.150  -1.632   0.843  0.00  0.00    -0.648 OA
ATOM     13  O2  <0> d           4.120  -0.771   0.328  0.00  0.00    -0.648 OA
ENDBRANCH   5  11
ENDBRANCH   2   5
ENDBRANCH   1   2
BRANCH   1  14
ATOM     14  C5  <0> d           1.734   2.276  -0.642  0.00  0.00    -0.070 C 
ATOM     15  H7  <0> d           2.765   1.921  -0.634  0.00  0.00     0.028 H 
ATOM     16  H8  <0> d           1.426   2.472  -1.669  0.00  0.00     0.028 H 
ATOM     17  H9  <0> d           1.661   3.195  -0.059  0.00  0.00     0.028 H 
ENDBRANCH   1  14
BRANCH   1  18
ATOM     18  C6  <0> d           1.363   0.806   1.343  0.00  0.00    -0.070 C 
ATOM     19  H10 <0> d           1.205   1.621   2.050  0.00  0.00     0.028 H 
ATOM     20  H11 <0> d           0.838  -0.084   1.692  0.00  0.00     0.028 H 
ATOM     21  H12 <0> d           2.429   0.592   1.266  0.00  0.00     0.028 H 
ENDBRANCH   1  18
BRANCH   1  22
ATOM     22  C7  <0> d          -0.591   1.775   0.123  0.00  0.00    -0.070 C 
ATOM     23  H13 <0> d          -0.975   2.063  -0.855  0.00  0.00     0.028 H 
ATOM     24  H14 <0> d          -1.240   1.015   0.559  0.00  0.00     0.028 H 
ATOM     25  H15 <0> d          -0.564   2.648   0.775  0.00  0.00     0.028 H 
ENDBRANCH   1  22
TORSDOF 7
