REMARK  3 active torsions:
REMARK  status: ('A' for Active; 'I' for Inactive)
REMARK    1  A    between atoms: C4_4  and  C8_9 
REMARK    2  A    between atoms: C5_5  and  C7_7 
REMARK    3  A    between atoms: C7_7  and  O1_8 
ROOT
ATOM      1  C1  <0> d          -0.235   5.018   0.031  0.00  0.00    -0.082 A 
ATOM      2  C2  <0> d           0.889   5.825   0.025  0.00  0.00    -0.082 A 
ATOM      3  C3  <0> d           2.147   5.260   0.010  0.00  0.00    -0.066 A 
ATOM      4  C4  <0> d           2.285   3.871   0.001  0.00  0.00     0.049 A 
ATOM      5  C5  <0> d           1.147   3.062   0.008  0.00  0.00    -0.018 A 
ATOM      6  C6  <0> d          -0.106   3.640   0.017  0.00  0.00    -0.074 A 
ATOM      7  H1  <0> d          -1.218   5.465   0.043  0.00  0.00     0.083 H 
ATOM      8  H2  <0> d           0.780   6.899   0.031  0.00  0.00     0.083 H 
ATOM      9  H3  <0> d           3.023   5.891   0.004  0.00  0.00     0.085 H 
ATOM     10  H4  <0> d          -0.987   3.016   0.017  0.00  0.00     0.084 H 
ENDROOT
BRANCH   5  11
ATOM     11  C7  <0> d           1.286   1.562  -0.002  0.00  0.00     0.041 C 
ATOM     12  H5  <0> d           1.840   1.243   0.881  0.00  0.00     0.081 H 
ATOM     13  H6  <0> d           1.823   1.252  -0.899  0.00  0.00     0.081 H 
BRANCH  11  14
ATOM     14  O1  <0> d          -0.011   0.963   0.007  0.00  0.00    -0.396 OA
ATOM     15  H7  <0> d           0.002  -0.004   0.002  0.00  0.00     0.209 HD
ENDBRANCH  11  14
ENDBRANCH   5  11
BRANCH   4  16
ATOM     16  C8  <0> d           3.630   3.259  -0.016  0.00  0.00     0.210 C 
ATOM     17  O2  <0> d           3.747   2.050  -0.024  0.00  0.00    -0.644 OA
ATOM     18  O3  <0> d           4.726   4.042  -0.022  0.00  0.00    -0.644 OA
ENDBRANCH   4  16
TORSDOF 3
