REMARK  0 active torsions:
REMARK  status: ('A' for Active; 'I' for Inactive)
ROOT
ATOM      1  C1  <0> d          -1.197   1.624   0.017  0.00  0.00     0.093 A 
ATOM      2  N1  <0> d          -0.011   0.966   0.007  0.00  0.00    -0.201 NA
ATOM      3  C2  <0> d           1.153   1.655  -0.000  0.00  0.00     0.302 A 
ATOM      4  O1  <0> d           2.227   1.079  -0.013  0.00  0.00    -0.263 OA
ATOM      5  C3  <0> d           1.077   3.118   0.009  0.00  0.00     0.197 A 
ATOM      6  C4  <0> d          -0.195   3.705   0.024  0.00  0.00     0.208 A 
ATOM      7  N2  <0> d          -1.284   2.923   0.030  0.00  0.00    -0.218 NA
ATOM      8  N3  <0> d           0.012   5.052   0.029  0.00  0.00    -0.135 NA
ATOM      9  H1  <0> d           1.814   6.266   0.019  0.00  0.00     0.213 HD
ATOM     10  N4  <0> d           1.401   5.246   0.017  0.00  0.00    -0.194 N 
ATOM     11  N5  <0> d           1.989   4.100   0.005  0.00  0.00    -0.148 NA
ATOM     12  H2  <0> d          -2.109   1.046   0.017  0.00  0.00     0.146 H 
ENDROOT
TORSDOF 0
