REMARK  0 active torsions:
REMARK  status: ('A' for Active; 'I' for Inactive)
ROOT
ATOM      1  C1  <0> d           1.417   1.866  -0.001  0.00  0.00     0.177 C 
ATOM      2  C2  <0> d           2.100   0.848   0.937  0.00  0.00     0.335 C 
ATOM      3  C3  <0> d           1.169  -0.382   0.939  0.00  0.00     0.335 C 
ATOM      4  C4  <0> d           0.002  -0.004   0.002  0.00  0.00     0.177 C 
ATOM      5  N1  <0> d          -0.018   1.481   0.010  0.00  0.00     0.095 N 
ATOM      6  F1  <0> d           0.694  -0.630   2.231  0.00  0.00    -0.198 F 
ATOM      7  F2  <0> d           1.843  -1.505   0.446  0.00  0.00    -0.198 F 
ATOM      8  F3  <0> d           2.212   1.375   2.228  0.00  0.00    -0.198 F 
ATOM      9  F4  <0> d           3.362   0.501   0.441  0.00  0.00    -0.198 F 
ATOM     10  H1  <0> d           1.806   1.801  -1.028  0.00  0.00     0.089 H 
ATOM     11  H2  <0> d           1.523   2.897   0.367  0.00  0.00     0.089 H 
ATOM     12  H3  <0> d           0.195  -0.405  -1.004  0.00  0.00     0.089 H 
ATOM     13  H4  <0> d          -0.934  -0.428   0.393  0.00  0.00     0.089 H 
ATOM     14  H5  <0> d          -0.498   1.883   0.915  0.00  0.00     0.316 HD
ENDROOT
TORSDOF 0
