REMARK  9 active torsions:
REMARK  status: ('A' for Active; 'I' for Inactive)
REMARK    1  A    between atoms: C1_1  and  C2_2 
REMARK    2  A    between atoms: C2_2  and  C3_3 
REMARK    3  A    between atoms: C3_3  and  C4_5 
REMARK    4  A    between atoms: C3_3  and  C5_6 
REMARK    5  A    between atoms: C5_6  and  C6_7 
REMARK    6  A    between atoms: C6_7  and  C7_8 
REMARK    7  A    between atoms: C6_7  and  C8_9 
REMARK    8  A    between atoms: C6_7  and  O1_11 
REMARK    9  A    between atoms: C8_9  and  C9_10 
ROOT
ATOM      1  C5  <0> d           2.123   0.983  -1.389  0.00  0.00    -0.034 C 
ATOM      2  H10 <0> d           3.171   1.235  -1.553  0.00  0.00     0.037 H 
ATOM      3  H11 <0> d           2.000  -0.100  -1.429  0.00  0.00     0.037 H 
ENDROOT
BRANCH   1   4
ATOM      4  C3  <0> d           1.266   1.633  -2.477  0.00  0.00    -0.055 C 
ATOM      5  H1  <0> d           1.292   2.716  -2.361  0.00  0.00     0.039 H 
BRANCH   4   6
ATOM      6  C2  <0> d          -0.178   1.141  -2.351  0.00  0.00    -0.065 C 
ATOM      7  H5  <0> d          -0.211   0.066  -2.524  0.00  0.00     0.033 H 
ATOM      8  H6  <0> d          -0.550   1.360  -1.350  0.00  0.00     0.033 H 
BRANCH   6   9
ATOM      9  C1  <0> d          -1.051   1.852  -3.387  0.00  0.00    -0.076 C 
ATOM     10  H2  <0> d          -1.017   2.928  -3.213  0.00  0.00     0.027 H 
ATOM     11  H3  <0> d          -0.679   1.634  -4.387  0.00  0.00     0.027 H 
ATOM     12  H4  <0> d          -2.079   1.502  -3.297  0.00  0.00     0.027 H 
ENDBRANCH   6   9
ENDBRANCH   4   6
BRANCH   4  13
ATOM     13  C4  <0> d           1.815   1.254  -3.854  0.00  0.00    -0.073 C 
ATOM     14  H7  <0> d           1.262   1.790  -4.626  0.00  0.00     0.028 H 
ATOM     15  H8  <0> d           2.870   1.522  -3.910  0.00  0.00     0.028 H 
ATOM     16  H9  <0> d           1.704   0.181  -4.007  0.00  0.00     0.028 H 
ENDBRANCH   4  13
ENDBRANCH   1   4
BRANCH   1  17
ATOM     17  C6  <0> d           1.683   1.497  -0.017  0.00  0.00     0.054 C 
BRANCH  17  18
ATOM     18  C7  <0> d           1.713   3.026  -0.012  0.00  0.00    -0.048 C 
ATOM     19  H12 <0> d           1.486   3.391   0.990  0.00  0.00     0.031 H 
ATOM     20  H13 <0> d           2.703   3.371  -0.309  0.00  0.00     0.031 H 
ATOM     21  H14 <0> d           0.971   3.407  -0.714  0.00  0.00     0.031 H 
ENDBRANCH  17  18
BRANCH  17  22
ATOM     22  C8  <0> d           2.634   0.964   1.056  0.00  0.00    -0.040 C 
ATOM     23  H15 <0> d           2.612  -0.126   1.052  0.00  0.00     0.036 H 
ATOM     24  H16 <0> d           3.647   1.308   0.847  0.00  0.00     0.036 H 
BRANCH  22  25
ATOM     25  C9  <0> d           2.193   1.478   2.428  0.00  0.00    -0.074 C 
ATOM     26  H17 <0> d           2.215   2.568   2.432  0.00  0.00     0.027 H 
ATOM     27  H18 <0> d           1.180   1.134   2.637  0.00  0.00     0.027 H 
ATOM     28  H19 <0> d           2.870   1.099   3.193  0.00  0.00     0.027 H 
ENDBRANCH  22  25
ENDBRANCH  17  22
BRANCH  17  29
ATOM     29  O1  <0> d           0.354   1.046   0.256  0.00  0.00    -0.390 OA
ATOM     30  H20 <0> d           0.261   0.083   0.269  0.00  0.00     0.210 HD
ENDBRANCH  17  29
ENDBRANCH   1  17
TORSDOF 9
