REMARK  2 active torsions:
REMARK  status: ('A' for Active; 'I' for Inactive)
REMARK    1  A    between atoms: C4_4  and  C6_6 
REMARK    2  A    between atoms: C6_6  and  O1_7 
ROOT
ATOM      1  C1  <0> d          -0.019   1.534   0.011  0.00  0.00    -0.065 C 
ATOM      2  C2  <0> d           0.002  -0.004   0.002  0.00  0.00    -0.065 C 
ATOM      3  C3  <0> d           1.486  -0.425  -0.014  0.00  0.00    -0.060 C 
ATOM      4  C4  <0> d           2.232   0.792   0.586  0.00  0.00    -0.034 C 
ATOM      5  C5  <0> d           1.453   1.995  -0.001  0.00  0.00    -0.060 C 
ATOM      6  H1  <0> d          -0.533   1.906  -0.876  0.00  0.00     0.033 H 
ATOM      7  H2  <0> d          -0.516   1.896   0.910  0.00  0.00     0.033 H 
ATOM      8  H3  <0> d          -0.485  -0.389   0.898  0.00  0.00     0.033 H 
ATOM      9  H4  <0> d          -0.502  -0.379  -0.888  0.00  0.00     0.033 H 
ATOM     10  H5  <0> d           1.639  -1.309   0.604  0.00  0.00     0.033 H 
ATOM     11  H6  <0> d           1.818  -0.612  -1.036  0.00  0.00     0.033 H 
ATOM     12  H7  <0> d           2.169   0.786   1.675  0.00  0.00     0.043 H 
ATOM     13  H8  <0> d           1.781   2.201  -1.020  0.00  0.00     0.033 H 
ATOM     14  H9  <0> d           1.582   2.877   0.627  0.00  0.00     0.033 H 
ENDROOT
BRANCH   4  15
ATOM     15  C6  <0> d           3.692   0.815   0.127  0.00  0.00     0.020 C 
ATOM     16  H10 <0> d           4.165  -0.135   0.374  0.00  0.00     0.074 H 
ATOM     17  H11 <0> d           3.731   0.970  -0.952  0.00  0.00     0.074 H 
BRANCH  15  18
ATOM     18  O1  <0> d           4.383   1.877   0.786  0.00  0.00    -0.400 OA
ATOM     19  H12 <0> d           5.316   1.951   0.542  0.00  0.00     0.209 HD
ENDBRANCH  15  18
ENDBRANCH   4  15
TORSDOF 2
