REMARK  3 active torsions:
REMARK  status: ('A' for Active; 'I' for Inactive)
REMARK    1  A    between atoms: C1_1  and  O1_2 
REMARK    2  A    between atoms: O1_2  and  C2_3 
REMARK    3  A    between atoms: C5_6  and  C7_9 
ROOT
ATOM      1  C7  <0> d          -4.919  -2.491   0.035  0.00  0.00    -0.076 C 
ATOM      2  C8  <0> d          -5.980  -2.994   0.042  0.00  0.00    -0.149 C 
ATOM      3  H7  <0> d          -6.928  -3.444   0.048  0.00  0.00     0.166 H 
ENDROOT
BRANCH   1   4
ATOM      4  C5  <0> d          -3.625  -1.878   0.026  0.00  0.00     0.034 A 
ATOM      5  C4  <0> d          -2.465  -2.664   0.017  0.00  0.00    -0.059 A 
ATOM      6  C3  <0> d          -1.240  -2.026   0.009  0.00  0.00    -0.031 A 
ATOM      7  H5  <0> d          -2.528  -3.742   0.016  0.00  0.00     0.086 H 
ATOM      8  C2  <0> d          -1.198  -0.636   0.010  0.00  0.00     0.163 A 
ATOM      9  H4  <0> d          -0.326  -2.600   0.001  0.00  0.00     0.090 H 
ATOM     10  N1  <0> d          -2.311   0.078   0.025  0.00  0.00    -0.236 NA
ATOM     11  C6  <0> d          -3.501  -0.489   0.027  0.00  0.00     0.023 A 
ATOM     12  H6  <0> d          -4.388   0.127   0.034  0.00  0.00     0.117 H 
BRANCH   8  13
ATOM     13  O1  <0> d           0.002  -0.004   0.002  0.00  0.00    -0.339 OA
BRANCH  13  14
ATOM     14  C1  <0> d          -0.017   1.425   0.010  0.00  0.00     0.012 C 
ATOM     15  H1  <0> d           1.005   1.802   0.002  0.00  0.00     0.067 H 
ATOM     16  H2  <0> d          -0.544   1.786  -0.873  0.00  0.00     0.067 H 
ATOM     17  H3  <0> d          -0.527   1.776   0.907  0.00  0.00     0.067 H 
ENDBRANCH  13  14
ENDBRANCH   8  13
ENDBRANCH   1   4
TORSDOF 3
