REMARK  2 active torsions:
REMARK  status: ('A' for Active; 'I' for Inactive)
REMARK    1  A    between atoms: C1_1  and  C2_2 
REMARK    2  A    between atoms: C4_4  and  C7_9 
ROOT
ATOM      1  C2  <0> d          -0.016   1.339   0.009  0.00  0.00    -0.057 A 
ATOM      2  C3  <0> d           0.999   2.268   0.005  0.00  0.00    -0.065 A 
ATOM      3  C4  <0> d           2.329   1.963  -0.010  0.00  0.00    -0.017 A 
ATOM      4  S1  <0> d           2.677   0.265  -0.022  0.00  0.00    -0.053 SA
ATOM      5  C5  <0> d           1.207  -0.748  -0.013  0.00  0.00     0.213 A 
ATOM      6  O1  <0> d           1.238  -1.968  -0.020  0.00  0.00    -0.280 OA
ATOM      7  C6  <0> d           0.002  -0.004   0.002  0.00  0.00    -0.022 A 
ATOM      8  H4  <0> d           0.724   3.313   0.013  0.00  0.00     0.085 H 
ATOM      9  H5  <0> d          -0.937  -0.537   0.009  0.00  0.00     0.091 H 
ENDROOT
BRANCH   1  10
ATOM     10  C1  <0> d          -1.399   1.936   0.019  0.00  0.00    -0.051 C 
ATOM     11  H1  <0> d          -1.729   2.075   1.048  0.00  0.00     0.033 H 
ATOM     12  H2  <0> d          -1.382   2.900  -0.490  0.00  0.00     0.033 H 
ATOM     13  H3  <0> d          -2.088   1.266  -0.496  0.00  0.00     0.033 H 
ENDBRANCH   1  10
BRANCH   3  14
ATOM     14  C7  <0> d           3.407   3.016  -0.014  0.00  0.00    -0.045 C 
ATOM     15  H6  <0> d           4.385   2.535  -0.026  0.00  0.00     0.034 H 
ATOM     16  H7  <0> d           3.299   3.642  -0.900  0.00  0.00     0.034 H 
ATOM     17  H8  <0> d           3.316   3.633   0.880  0.00  0.00     0.034 H 
ENDBRANCH   3  14
TORSDOF 2
