REMARK  1 active torsions:
REMARK  status: ('A' for Active; 'I' for Inactive)
REMARK    1  A    between atoms: C6_7  and  N3_11 
ROOT
ATOM      1  C1  <0> d           0.002  -0.004   0.002  0.00  0.00    -0.065 A 
ATOM      2  C2  <0> d           1.196  -0.669  -0.013  0.00  0.00    -0.069 A 
ATOM      3  C3  <0> d           2.376   0.094  -0.020  0.00  0.00    -0.002 A 
ATOM      4  C4  <0> d           3.653  -0.497  -0.036  0.00  0.00    -0.054 A 
ATOM      5  C5  <0> d           4.749   0.309  -0.043  0.00  0.00     0.005 A 
ATOM      6  N1  <0> d           4.646   1.631  -0.035  0.00  0.00    -0.241 NA
ATOM      7  C6  <0> d           3.485   2.256  -0.020  0.00  0.00     0.150 A 
ATOM      8  C7  <0> d           2.284   1.507  -0.012  0.00  0.00     0.112 A 
ATOM      9  N2  <0> d           1.089   2.095   0.003  0.00  0.00    -0.256 NA
ATOM     10  C8  <0> d          -0.017   1.389   0.010  0.00  0.00     0.003 A 
ATOM     11  H1  <0> d          -0.925  -0.557   0.008  0.00  0.00     0.085 H 
ATOM     12  H2  <0> d           1.232  -1.749  -0.019  0.00  0.00     0.085 H 
ATOM     13  H3  <0> d           3.761  -1.572  -0.044  0.00  0.00     0.087 H 
ATOM     14  H4  <0> d           5.731  -0.140  -0.055  0.00  0.00     0.114 H 
ATOM     15  H5  <0> d          -0.968   1.901   0.017  0.00  0.00     0.114 H 
ENDROOT
BRANCH   7  16
ATOM     16  N3  <0> d           3.441   3.640  -0.013  0.00  0.00    -0.382 N 
ATOM     17  H6  <0> d           4.265   4.152  -0.018  0.00  0.00     0.157 HD
ATOM     18  H7  <0> d           2.586   4.098  -0.002  0.00  0.00     0.157 HD
ENDBRANCH   7  16
TORSDOF 1
