REMARK  2 active torsions:
REMARK  status: ('A' for Active; 'I' for Inactive)
REMARK    1  A    between atoms: C3_3  and  C6_8 
REMARK    2  A    between atoms: C6_8  and  O2_9 
ROOT
ATOM      1  C1  <0> d          -0.686   1.609   3.761  0.00  0.00    -0.045 C 
ATOM      2  C2  <0> d           0.079   1.179   2.505  0.00  0.00    -0.056 C 
ATOM      3  C3  <0> d          -0.729   1.579   1.267  0.00  0.00    -0.013 C 
ATOM      4  H1  <0> d          -0.825   2.664   1.230  0.00  0.00     0.046 H 
ATOM      5  C4  <0> d          -2.119   0.944   1.347  0.00  0.00     0.025 C 
ATOM      6  O1  <0> d          -2.764   1.361   2.552  0.00  0.00    -0.391 OA
ATOM      7  C5  <0> d          -2.078   0.973   3.744  0.00  0.00     0.019 C 
ATOM      8  H2  <0> d          -0.145   1.279   4.648  0.00  0.00     0.036 H 
ATOM      9  H3  <0> d          -0.782   2.695   3.775  0.00  0.00     0.036 H 
ATOM     10  H4  <0> d           0.218   0.098   2.516  0.00  0.00     0.033 H 
ATOM     11  H5  <0> d           1.051   1.671   2.482  0.00  0.00     0.033 H 
ATOM     12  H6  <0> d          -2.713   1.260   0.489  0.00  0.00     0.075 H 
ATOM     13  H7  <0> d          -2.024  -0.142   1.342  0.00  0.00     0.075 H 
ATOM     14  H8  <0> d          -1.982  -0.113   3.771  0.00  0.00     0.074 H 
ATOM     15  H9  <0> d          -2.642   1.310   4.614  0.00  0.00     0.074 H 
ENDROOT
BRANCH   3  16
ATOM     16  C6  <0> d          -0.013   1.086   0.008  0.00  0.00     0.022 C 
ATOM     17  H10 <0> d           0.002  -0.004   0.002  0.00  0.00     0.074 H 
ATOM     18  H11 <0> d           1.010   1.463   0.000  0.00  0.00     0.074 H 
BRANCH  16  19
ATOM     19  O2  <0> d          -0.704   1.559  -1.150  0.00  0.00    -0.400 OA
ATOM     20  H12 <0> d          -0.304   1.284  -1.986  0.00  0.00     0.209 HD
ENDBRANCH  16  19
ENDBRANCH   3  16
TORSDOF 2
