REMARK  3 active torsions:
REMARK  status: ('A' for Active; 'I' for Inactive)
REMARK    1  A    between atoms: C3_3  and  N1_10 
REMARK    2  A    between atoms: C4_4  and  C7_8 
REMARK    3  A    between atoms: C6_6  and  O1_7 
ROOT
ATOM      1  C1  <0> d           4.780  -0.671  -0.035  0.00  0.00    -0.049 A 
ATOM      2  C2  <0> d           4.838   0.704  -0.133  0.00  0.00    -0.054 A 
ATOM      3  C3  <0> d           3.668   1.452  -0.131  0.00  0.00     0.043 A 
ATOM      4  C4  <0> d           2.427   0.805  -0.029  0.00  0.00     0.069 A 
ATOM      5  C5  <0> d           2.381  -0.588   0.075  0.00  0.00    -0.032 A 
ATOM      6  C6  <0> d           3.554  -1.318   0.067  0.00  0.00     0.066 A 
ATOM      7  H1  <0> d           5.693  -1.248  -0.037  0.00  0.00     0.087 H 
ATOM      8  H2  <0> d           5.794   1.199  -0.212  0.00  0.00     0.087 H 
ATOM      9  H3  <0> d           1.430  -1.094   0.159  0.00  0.00     0.089 H 
ENDROOT
BRANCH   3  10
ATOM     10  N1  <0> d           3.726   2.838  -0.229  0.00  0.00    -0.398 N 
ATOM     11  H5  <0> d           2.916   3.365  -0.146  0.00  0.00     0.156 HD
ATOM     12  H6  <0> d           4.577   3.279  -0.380  0.00  0.00     0.156 HD
ENDBRANCH   3  10
BRANCH   4  13
ATOM     13  C7  <0> d           1.180   1.589  -0.025  0.00  0.00     0.211 C 
ATOM     14  O2  <0> d           1.226   2.804  -0.007  0.00  0.00    -0.644 OA
ATOM     15  O3  <0> d          -0.012   0.960  -0.042  0.00  0.00    -0.644 OA
ENDBRANCH   4  13
BRANCH   6  16
ATOM     16  O1  <0> d           3.510  -2.674   0.163  0.00  0.00    -0.361 OA
ATOM     17  H4  <0> d           3.538  -3.005   1.071  0.00  0.00     0.217 HD
ENDBRANCH   6  16
TORSDOF 3
