REMARK  0 active torsions:
REMARK  status: ('A' for Active; 'I' for Inactive)
ROOT
ATOM      1  C1  <0> d          -0.017   1.399   0.010  0.00  0.00    -0.052 A 
ATOM      2  C2  <0> d           1.169   2.072   0.002  0.00  0.00     0.005 A 
ATOM      3  N1  <0> d           2.328   1.433  -0.013  0.00  0.00    -0.246 NA
ATOM      4  C3  <0> d           2.410   0.118  -0.021  0.00  0.00     0.154 A 
ATOM      5  C4  <0> d           1.253  -0.655  -0.014  0.00  0.00     0.102 A 
ATOM      6  C5  <0> d           0.002  -0.004   0.002  0.00  0.00     0.016 A 
ATOM      7  C6  <0> d          -0.987  -1.012   0.006  0.00  0.00     0.034 A 
ATOM      8  N2  <0> d          -0.398  -2.173  -0.006  0.00  0.00    -0.186 NA
ATOM      9  N3  <0> d           0.992  -2.000  -0.019  0.00  0.00    -0.275 N 
ATOM     10  H1  <0> d           1.654  -2.709  -0.030  0.00  0.00     0.189 HD
ATOM     11 Cl1  <0> d           3.966  -0.652  -0.040  0.00  0.00    -0.060 Cl
ATOM     12  H2  <0> d          -0.954   1.935   0.026  0.00  0.00     0.087 H 
ATOM     13  H3  <0> d           1.163   3.152   0.008  0.00  0.00     0.114 H 
ATOM     14  H4  <0> d          -2.054  -0.846   0.017  0.00  0.00     0.118 H 
ENDROOT
TORSDOF 0
