REMARK  1 active torsions:
REMARK  status: ('A' for Active; 'I' for Inactive)
REMARK    1  A    between atoms: C4_4  and  C7_7 
ROOT
ATOM      1  C1  <0> d           1.208  -0.682  -0.013  0.00  0.00    -0.083 A 
ATOM      2  C2  <0> d           0.002  -0.004   0.002  0.00  0.00    -0.082 A 
ATOM      3  C3  <0> d          -0.017   1.376   0.010  0.00  0.00    -0.072 A 
ATOM      4  C4  <0> d           1.182   2.086   0.002  0.00  0.00    -0.025 A 
ATOM      5  C5  <0> d           2.394   1.399  -0.012  0.00  0.00    -0.072 A 
ATOM      6  C6  <0> d           2.401   0.018  -0.020  0.00  0.00    -0.082 A 
ATOM      7  H2  <0> d           1.218  -1.762  -0.019  0.00  0.00     0.083 H 
ATOM      8  H3  <0> d          -0.926  -0.556   0.008  0.00  0.00     0.083 H 
ATOM      9  H4  <0> d          -0.959   1.904   0.017  0.00  0.00     0.084 H 
ATOM     10  H5  <0> d           3.326   1.944  -0.018  0.00  0.00     0.084 H 
ATOM     11  H6  <0> d           3.339  -0.516  -0.032  0.00  0.00     0.083 H 
ENDROOT
BRANCH   4  12
ATOM     12  C7  <0> d           1.168   3.570   0.010  0.00  0.00    -0.009 A 
ATOM     13  C10 <0> d           2.255   4.389   0.004  0.00  0.00    -0.013 A 
ATOM     14  N1  <0> d           1.813   5.677   0.014  0.00  0.00    -0.374 N 
ATOM     15  H9  <0> d           3.287   4.072  -0.008  0.00  0.00     0.112 H 
ATOM     16  C9  <0> d           0.449   5.678   0.027  0.00  0.00    -0.022 A 
ATOM     17  H1  <0> d           2.377   6.466   0.013  0.00  0.00     0.164 HD
ATOM     18  C8  <0> d           0.020   4.402   0.018  0.00  0.00    -0.056 A 
ATOM     19  H8  <0> d          -0.181   6.556   0.038  0.00  0.00     0.111 H 
ATOM     20  H7  <0> d          -1.009   4.073   0.021  0.00  0.00     0.086 H 
ENDBRANCH   4  12
TORSDOF 1
