REMARK  2 active torsions:
REMARK  status: ('A' for Active; 'I' for Inactive)
REMARK    1  A    between atoms: C3_3  and  C9_10 
REMARK    2  A    between atoms: C5_5  and  C7_7 
ROOT
ATOM      1  C7  <0> d           2.451   3.937   0.001  0.00  0.00     0.038 C 
ATOM      2  C8  <0> d           2.860   4.195  -1.389  0.00  0.00     0.063 C 
ATOM      3  N1  <0> d           3.176   4.395  -2.462  0.00  0.00    -0.197 NA
ATOM      4  H5  <0> d           2.312   4.884   0.521  0.00  0.00     0.062 H 
ATOM      5  H6  <0> d           3.223   3.355   0.505  0.00  0.00     0.062 H 
ENDROOT
BRANCH   1   6
ATOM      6  C5  <0> d           1.156   3.165   0.008  0.00  0.00    -0.045 A 
ATOM      7  C4  <0> d          -0.050   3.840   0.023  0.00  0.00    -0.069 A 
ATOM      8  C3  <0> d          -1.238   3.133   0.029  0.00  0.00    -0.045 A 
ATOM      9  H3  <0> d          -0.065   4.920   0.029  0.00  0.00     0.085 H 
ATOM     10  C2  <0> d          -1.219   1.751   0.017  0.00  0.00    -0.076 A 
ATOM     11  C1  <0> d          -0.013   1.076   0.008  0.00  0.00    -0.082 A 
ATOM     12  H2  <0> d          -2.147   1.198   0.019  0.00  0.00     0.084 H 
ATOM     13  C6  <0> d           1.175   1.783   0.000  0.00  0.00    -0.076 A 
ATOM     14  H1  <0> d           0.002  -0.004   0.002  0.00  0.00     0.083 H 
ATOM     15  H4  <0> d           2.118   1.256  -0.011  0.00  0.00     0.084 H 
BRANCH   8  16
ATOM     16  C9  <0> d          -2.553   3.869   0.046  0.00  0.00     0.038 C 
ATOM     17  C10 <0> d          -2.994   4.116  -1.336  0.00  0.00     0.063 C 
ATOM     18  N2  <0> d          -3.334   4.308  -2.403  0.00  0.00    -0.197 NA
ATOM     19  H7  <0> d          -3.300   3.266   0.563  0.00  0.00     0.062 H 
ATOM     20  H8  <0> d          -2.431   4.819   0.565  0.00  0.00     0.062 H 
ENDBRANCH   8  16
ENDBRANCH   1   6
TORSDOF 2
