REMARK  3 active torsions:
REMARK  status: ('A' for Active; 'I' for Inactive)
REMARK    1  A    between atoms: C1_1  and  C2_2 
REMARK    2  A    between atoms: C5_5  and  O1_8 
REMARK    3  A    between atoms: O1_8  and  C8_9 
ROOT
ATOM      1  C2  <0> d           1.208  -0.680  -0.013  0.00  0.00    -0.062 A 
ATOM      2  C3  <0> d           0.002  -0.004   0.002  0.00  0.00    -0.075 A 
ATOM      3  C4  <0> d          -0.017   1.377   0.010  0.00  0.00    -0.050 A 
ATOM      4  C5  <0> d           1.176   2.086   0.002  0.00  0.00     0.068 A 
ATOM      5  C6  <0> d           2.385   1.405  -0.013  0.00  0.00    -0.050 A 
ATOM      6  C7  <0> d           2.398   0.024  -0.021  0.00  0.00    -0.075 A 
ATOM      7  H4  <0> d          -0.926  -0.556   0.008  0.00  0.00     0.084 H 
ATOM      8  H5  <0> d          -0.959   1.905   0.017  0.00  0.00     0.087 H 
ATOM      9  H6  <0> d           3.314   1.955  -0.019  0.00  0.00     0.087 H 
ATOM     10  H7  <0> d           3.339  -0.506  -0.033  0.00  0.00     0.084 H 
ENDROOT
BRANCH   4  11
ATOM     11  O1  <0> d           1.160   3.445   0.010  0.00  0.00    -0.356 OA
BRANCH  11  12
ATOM     12  C8  <0> d           2.426   4.108   0.001  0.00  0.00     0.010 C 
ATOM     13  H8  <0> d           2.995   3.817   0.884  0.00  0.00     0.066 H 
ATOM     14  H9  <0> d           2.977   3.827  -0.896  0.00  0.00     0.066 H 
ATOM     15  H10 <0> d           2.270   5.187   0.009  0.00  0.00     0.066 H 
ENDBRANCH  11  12
ENDBRANCH   4  11
BRANCH   1  16
ATOM     16  C1  <0> d           1.226  -2.187  -0.021  0.00  0.00    -0.051 C 
ATOM     17  H1  <0> d           1.220  -2.545  -1.050  0.00  0.00     0.033 H 
ATOM     18  H2  <0> d           2.125  -2.543   0.482  0.00  0.00     0.033 H 
ATOM     19  H3  <0> d           0.345  -2.563   0.500  0.00  0.00     0.033 H 
ENDBRANCH   1  16
TORSDOF 3
