REMARK  1 active torsions:
REMARK  status: ('A' for Active; 'I' for Inactive)
REMARK    1  A    between atoms: C1_1  and  C2_2 
ROOT
ATOM      1  C2  <0> d           2.372   1.390  -0.015  0.00  0.00    -0.057 A 
ATOM      2  C3  <0> d           2.357  -0.013  -0.021  0.00  0.00    -0.060 A 
ATOM      3  C4  <0> d           1.181  -0.680  -0.013  0.00  0.00     0.006 A 
ATOM      4  N1  <0> d           0.002  -0.004   0.002  0.00  0.00    -0.226 N 
ATOM      5  C5  <0> d          -0.017   1.362   0.009  0.00  0.00     0.152 A 
ATOM      6  C6  <0> d           1.196   2.076   0.002  0.00  0.00    -0.031 A 
ATOM      7  N2  <0> d          -1.289   1.742   0.029  0.00  0.00    -0.221 NA
ATOM      8  C7  <0> d          -2.074   0.674   0.027  0.00  0.00     0.108 A 
ATOM      9  N3  <0> d          -1.339  -0.413   0.013  0.00  0.00    -0.160 NA
ATOM     10  H4  <0> d           3.287  -0.561  -0.034  0.00  0.00     0.086 H 
ATOM     11  H5  <0> d           1.179  -1.760  -0.019  0.00  0.00     0.114 H 
ATOM     12  H6  <0> d           1.193   3.156   0.008  0.00  0.00     0.090 H 
ATOM     13  H7  <0> d          -3.154   0.695   0.038  0.00  0.00     0.149 H 
ENDROOT
BRANCH   1  14
ATOM     14  C1  <0> d           3.683   2.133  -0.025  0.00  0.00    -0.051 C 
ATOM     15  H1  <0> d           3.988   2.318  -1.055  0.00  0.00     0.033 H 
ATOM     16  H2  <0> d           3.565   3.084   0.495  0.00  0.00     0.033 H 
ATOM     17  H3  <0> d           4.443   1.536   0.478  0.00  0.00     0.033 H 
ENDBRANCH   1  14
TORSDOF 1
