REMARK  2 active torsions:
REMARK  status: ('A' for Active; 'I' for Inactive)
REMARK    1  A    between atoms: C1_1  and  N1_2 
REMARK       I    between atoms: N1_2  and  C2_3 
REMARK    2  A    between atoms: C2_3  and  C3_5 
ROOT
ATOM      1  C3  <0> d          -0.983   3.229   0.677  0.00  0.00     0.031 C 
ATOM      2  H1  <0> d          -2.043   3.467   0.592  0.00  0.00     0.055 H 
ATOM      3  C4  <0> d          -0.777   1.761   1.191  0.00  0.00    -0.047 C 
ATOM      4  C5  <0> d          -0.013   1.086   0.008  0.00  0.00    -0.037 C 
ATOM      5  H2  <0> d           0.002  -0.004   0.002  0.00  0.00     0.046 H 
ATOM      6  C6  <0> d          -0.682   1.789  -1.229  0.00  0.00    -0.051 C 
ATOM      7  C7  <0> d          -0.304   3.231  -0.730  0.00  0.00    -0.026 C 
ATOM      8  H3  <0> d          -0.551   4.068  -1.383  0.00  0.00     0.047 H 
ATOM      9  C8  <0> d           1.185   3.021  -0.426  0.00  0.00    -0.101 C 
ATOM     10  C9  <0> d           1.352   1.785  -0.001  0.00  0.00    -0.102 C 
ATOM     11  H8  <0> d          -1.732   1.265   1.363  0.00  0.00     0.035 H 
ATOM     12  H9  <0> d          -0.170   1.748   2.096  0.00  0.00     0.035 H 
ATOM     13  H10 <0> d          -0.194   1.532  -2.170  0.00  0.00     0.035 H 
ATOM     14  H11 <0> d          -1.759   1.629  -1.268  0.00  0.00     0.035 H 
ATOM     15  H12 <0> d           1.963   3.760  -0.541  0.00  0.00     0.077 H 
ATOM     16  H13 <0> d           2.292   1.339   0.291  0.00  0.00     0.076 H 
ENDROOT
BRANCH   1  17
ATOM     17  C2  <0> d          -0.295   4.204   1.598  0.00  0.00     0.222 C 
ATOM     18  N1  <0> d          -0.730   4.354   2.865  0.00  0.00    -0.365 N 
ATOM     19  H7  <0> d          -1.484   3.835   3.184  0.00  0.00     0.161 HD
ATOM     20  O1  <0> d           0.648   4.853   1.200  0.00  0.00    -0.273 OA
BRANCH  18  21
ATOM     21  C1  <0> d          -0.061   5.302   3.761  0.00  0.00    -0.018 C 
ATOM     22  H4  <0> d          -0.549   5.286   4.736  0.00  0.00     0.056 H 
ATOM     23  H5  <0> d           0.985   5.020   3.873  0.00  0.00     0.056 H 
ATOM     24  H6  <0> d          -0.124   6.306   3.340  0.00  0.00     0.056 H 
ENDBRANCH  18  21
ENDBRANCH   1  17
TORSDOF 2
