REMARK  4 active torsions:
REMARK  status: ('A' for Active; 'I' for Inactive)
REMARK    1  A    between atoms: C1_1  and  S1_2 
REMARK    2  A    between atoms: S1_2  and  C2_3 
REMARK    3  A    between atoms: C3_5  and  N5_10 
REMARK    4  A    between atoms: C4_7  and  N4_9 
ROOT
ATOM      1  C2  <0> d           1.127   2.005   0.002  0.00  0.00     0.225 A 
ATOM      2  N1  <0> d          -0.016   1.325   0.009  0.00  0.00    -0.035 NA
ATOM      3  C3  <0> d           0.002  -0.004   0.002  0.00  0.00     0.738 A 
ATOM      4  N2  <0> d           1.162  -0.653  -0.013  0.00  0.00     0.129 NA
ATOM      5  C4  <0> d           2.305   0.027  -0.020  0.00  0.00     0.738 A 
ATOM      6  N3  <0> d           2.287   1.356  -0.013  0.00  0.00    -0.035 NA
ENDROOT
BRANCH   1   7
ATOM      7  S1  <0> d           1.103   3.767   0.011  0.00  0.00    -0.093 SA
BRANCH   7   8
ATOM      8  C1  <0> d           2.881   4.105  -0.004  0.00  0.00    -0.027 C 
ATOM      9  H1  <0> d           3.343   3.664   0.880  0.00  0.00     0.042 H 
ATOM     10  H2  <0> d           3.326   3.673  -0.900  0.00  0.00     0.042 H 
ATOM     11  H3  <0> d           3.046   5.183   0.000  0.00  0.00     0.042 H 
ENDBRANCH   7   8
ENDBRANCH   1   7
BRANCH   5  12
ATOM     12  N4  <0> d           3.509  -0.647  -0.035  0.00  0.00    -0.230 N 
ATOM     13  H4  <0> d           3.522  -1.617  -0.041  0.00  0.00     0.174 HD
ATOM     14  H5  <0> d           4.342  -0.151  -0.041  0.00  0.00     0.174 HD
ENDBRANCH   5  12
BRANCH   3  15
ATOM     15  N5  <0> d          -1.184  -0.710   0.009  0.00  0.00    -0.230 N 
ATOM     16  H6  <0> d          -2.030  -0.237   0.020  0.00  0.00     0.174 HD
ATOM     17  H7  <0> d          -1.171  -1.680   0.004  0.00  0.00     0.174 HD
ENDBRANCH   3  15
TORSDOF 4
