REMARK  4 active torsions:
REMARK  status: ('A' for Active; 'I' for Inactive)
REMARK    1  A    between atoms: C1_1  and  C2_2 
REMARK    2  A    between atoms: C4_4  and  C7_9 
REMARK    3  A    between atoms: C5_5  and  C6_8 
REMARK    4  A    between atoms: C7_9  and  C8_11 
ROOT
ATOM      1  C2  <0> d          -0.666  -2.155  -0.003  0.00  0.00     0.006 A 
ATOM      2  C3  <0> d          -1.158  -0.905   0.015  0.00  0.00    -0.046 A 
ATOM      3  C4  <0> d           0.002  -0.004   0.002  0.00  0.00     0.033 A 
ATOM      4  C5  <0> d           1.116  -0.822  -0.013  0.00  0.00     0.019 A 
ATOM      5  N1  <0> d           0.698  -2.100  -0.016  0.00  0.00    -0.363 N 
ATOM      6  H1  <0> d           1.283  -2.874  -0.026  0.00  0.00     0.165 HD
ATOM      7  H5  <0> d          -2.199  -0.620   0.032  0.00  0.00     0.088 H 
ENDROOT
BRANCH   3   8
ATOM      8  C7  <0> d          -0.018   1.460   0.010  0.00  0.00     0.157 C 
ATOM      9  O1  <0> d           1.025   2.081   0.004  0.00  0.00    -0.293 OA
BRANCH   8  10
ATOM     10  C8  <0> d          -1.333   2.196   0.020  0.00  0.00    -0.017 C 
ATOM     11  H9  <0> d          -2.084   1.536   0.020  0.00  0.00     0.038 H 
ATOM     12  H10 <0> d          -1.395   2.817   0.914  0.00  0.00     0.038 H 
ATOM     13  H11 <0> d          -1.403   2.827  -0.866  0.00  0.00     0.038 H 
ENDBRANCH   8  10
ENDBRANCH   3   8
BRANCH   4  14
ATOM     14  C6  <0> d           2.551  -0.361  -0.025  0.00  0.00    -0.037 C 
ATOM     15  H6  <0> d           2.907  -0.256   1.000  0.00  0.00     0.035 H 
ATOM     16  H7  <0> d           3.164  -1.095  -0.548  0.00  0.00     0.035 H 
ATOM     17  H8  <0> d           2.620   0.600  -0.534  0.00  0.00     0.035 H 
ENDBRANCH   4  14
BRANCH   1  18
ATOM     18  C1  <0> d          -1.489  -3.418  -0.003  0.00  0.00    -0.037 C 
ATOM     19  H2  <0> d          -1.677  -3.728   1.025  0.00  0.00     0.035 H 
ATOM     20  H3  <0> d          -2.438  -3.233  -0.506  0.00  0.00     0.035 H 
ATOM     21  H4  <0> d          -0.947  -4.205  -0.526  0.00  0.00     0.035 H 
ENDBRANCH   1  18
TORSDOF 4
