REMARK  0 active torsions:
REMARK  status: ('A' for Active; 'I' for Inactive)
ROOT
ATOM      1  C1  <0> d           1.156   2.054   0.002  0.00  0.00    -0.044 A 
ATOM      2  C2  <0> d          -0.016   1.311   0.009  0.00  0.00     0.006 A 
ATOM      3  N1  <0> d           0.002  -0.004   0.002  0.00  0.00    -0.241 NA
ATOM      4  C3  <0> d           1.142  -0.685  -0.013  0.00  0.00     0.156 A 
ATOM      5  C4  <0> d           2.372   0.001  -0.021  0.00  0.00     0.052 A 
ATOM      6  C5  <0> d           2.374   1.402  -0.014  0.00  0.00     0.051 A 
ATOM      7 Cl1  <0> d           3.864   2.293  -0.024  0.00  0.00    -0.083 Cl
ATOM      8  C6  <0> d           3.414  -1.019  -0.036  0.00  0.00     0.037 A 
ATOM      9  N2  <0> d           2.829  -2.182  -0.036  0.00  0.00    -0.185 NA
ATOM     10  N3  <0> d           1.440  -2.021  -0.022  0.00  0.00    -0.261 N 
ATOM     11  H1  <0> d           0.771  -2.764  -0.020  0.00  0.00     0.191 HD
ATOM     12  H2  <0> d           1.116   3.133   0.008  0.00  0.00     0.088 H 
ATOM     13  H3  <0> d          -0.966   1.825   0.017  0.00  0.00     0.114 H 
ATOM     14  H4  <0> d           4.479  -0.841  -0.044  0.00  0.00     0.118 H 
ENDROOT
TORSDOF 0
