REMARK  2 active torsions:
REMARK  status: ('A' for Active; 'I' for Inactive)
REMARK    1  A    between atoms: C1_1  and  C2_2 
REMARK    2  A    between atoms: C2_2  and  S1_3 
ROOT
ATOM      1  C2  <0> d          -0.779   1.965   1.595  0.00  0.00     0.042 C 
ATOM      2  H4  <0> d          -1.785   1.548   1.647  0.00  0.00     0.059 H 
ATOM      3  H5  <0> d          -0.178   1.565   2.412  0.00  0.00     0.059 H 
ENDROOT
BRANCH   1   4
ATOM      4  C1  <0> d          -0.852   3.489   1.714  0.00  0.00    -0.061 C 
ATOM      5  H1  <0> d           0.153   3.906   1.663  0.00  0.00     0.028 H 
ATOM      6  H2  <0> d          -1.453   3.888   0.897  0.00  0.00     0.028 H 
ATOM      7  H3  <0> d          -1.309   3.757   2.667  0.00  0.00     0.028 H 
ENDBRANCH   1   4
BRANCH   1   8
ATOM      8  S1  <0> d          -0.019   1.518   0.010  0.00  0.00     0.101 S 
ATOM      9  O1  <0> d           1.350   1.899  -0.001  0.00  0.00    -0.595 OA
ATOM     10  O2  <0> d          -0.879   1.875  -1.063  0.00  0.00    -0.595 OA
ATOM     11  O3  <0> d           0.002  -0.004   0.002  0.00  0.00    -0.595 OA
ENDBRANCH   1   8
TORSDOF 2
