REMARK  3 active torsions:
REMARK  status: ('A' for Active; 'I' for Inactive)
REMARK    1  A    between atoms: C1_1  and  C2_2 
REMARK    2  A    between atoms: C2_2  and  C5_5 
REMARK    3  A    between atoms: C10_10  and  N1_11 
ROOT
ATOM      1  C5  <0> d           0.183  -0.559  -0.452  0.00  0.00    -0.024 A 
ATOM      2  C6  <0> d           1.077  -1.604  -0.325  0.00  0.00    -0.074 A 
ATOM      3  C7  <0> d           2.436  -1.352  -0.276  0.00  0.00    -0.082 A 
ATOM      4  C8  <0> d           2.904  -0.052  -0.353  0.00  0.00    -0.081 A 
ATOM      5  C9  <0> d           2.015   0.997  -0.479  0.00  0.00    -0.057 A 
ATOM      6  C10 <0> d           0.650   0.747  -0.529  0.00  0.00     0.032 A 
ATOM      7  H8  <0> d           0.715  -2.620  -0.266  0.00  0.00     0.084 H 
ATOM      8  H9  <0> d           3.133  -2.171  -0.178  0.00  0.00     0.083 H 
ATOM      9  H10 <0> d           3.966   0.141  -0.314  0.00  0.00     0.083 H 
ATOM     10  H11 <0> d           2.382   2.011  -0.539  0.00  0.00     0.086 H 
ENDROOT
BRANCH   1  11
ATOM     11  C2  <0> d          -1.298  -0.836  -0.506  0.00  0.00    -0.015 A 
ATOM     12  C4  <0> d          -1.819  -2.046   0.271  0.00  0.00    -0.053 A 
ATOM     13  C3  <0> d          -2.102  -0.630   0.779  0.00  0.00    -0.053 A 
ATOM     14  H6  <0> d          -2.651  -2.601  -0.162  0.00  0.00     0.034 H 
ATOM     15  H7  <0> d          -1.091  -2.643   0.821  0.00  0.00     0.034 H 
ATOM     16  H4  <0> d          -1.560  -0.295   1.664  0.00  0.00     0.034 H 
ATOM     17  H5  <0> d          -3.120  -0.255   0.681  0.00  0.00     0.034 H 
BRANCH  11  18
ATOM     18  C1  <0> d          -1.984  -0.497  -1.831  0.00  0.00    -0.065 C 
ATOM     19  H1  <0> d          -1.600  -1.148  -2.616  0.00  0.00     0.028 H 
ATOM     20  H2  <0> d          -3.059  -0.644  -1.730  0.00  0.00     0.028 H 
ATOM     21  H3  <0> d          -1.782   0.542  -2.089  0.00  0.00     0.028 H 
ENDBRANCH  11  18
ENDBRANCH   1  11
BRANCH   6  22
ATOM     22  N1  <0> d          -0.252   1.805  -0.662  0.00  0.00    -0.399 N 
ATOM     23  H12 <0> d          -1.206   1.641  -0.601  0.00  0.00     0.156 HD
ATOM     24  H13 <0> d           0.076   2.705  -0.816  0.00  0.00     0.156 HD
ENDBRANCH   6  22
TORSDOF 3
