REMARK  5 active torsions:
REMARK  status: ('A' for Active; 'I' for Inactive)
REMARK    1  A    between atoms: C1_1  and  C2_2 
REMARK    2  A    between atoms: C2_2  and  C3_3 
REMARK    3  A    between atoms: C3_3  and  O2_5 
REMARK    4  A    between atoms: O2_5  and  C4_6 
REMARK    5  A    between atoms: C4_6  and  C5_7 
ROOT
ATOM      1  C3  <0> d          -4.564   0.948   1.121  0.00  0.00     0.258 C 
ATOM      2  O1  <0> d          -4.852  -0.007   0.440  0.00  0.00    -0.265 OA
ENDROOT
BRANCH   1   3
ATOM      3  C2  <0> d          -5.558   1.494   2.114  0.00  0.00     0.013 C 
ATOM      4  H4  <0> d          -5.135   1.443   3.117  0.00  0.00     0.047 H 
ATOM      5  H5  <0> d          -5.785   2.531   1.867  0.00  0.00     0.047 H 
BRANCH   3   6
ATOM      6  C1  <0> d          -6.841   0.664   2.059  0.00  0.00    -0.068 C 
ATOM      7  H1  <0> d          -7.264   0.715   1.055  0.00  0.00     0.028 H 
ATOM      8  H2  <0> d          -6.614  -0.373   2.305  0.00  0.00     0.028 H 
ATOM      9  H3  <0> d          -7.561   1.059   2.776  0.00  0.00     0.028 H 
ENDBRANCH   3   6
ENDBRANCH   1   3
BRANCH   1  10
ATOM     10  O2  <0> d          -3.357   1.523   0.994  0.00  0.00    -0.318 OA
BRANCH  10  11
ATOM     11  C4  <0> d          -2.451   0.944   0.019  0.00  0.00     0.043 C 
ATOM     12  H6  <0> d          -2.904   0.992  -0.972  0.00  0.00     0.081 H 
ATOM     13  H7  <0> d          -2.253  -0.096   0.278  0.00  0.00     0.081 H 
BRANCH  11  14
ATOM     14  C5  <0> d          -1.156   1.715   0.017  0.00  0.00    -0.089 C 
ATOM     15  C6  <0> d          -0.013   1.076   0.008  0.00  0.00    -0.123 C 
ATOM     16  H9  <0> d           0.002  -0.004   0.002  0.00  0.00     0.066 H 
ATOM     17  H10 <0> d           0.915   1.629   0.002  0.00  0.00     0.066 H 
ATOM     18  H8  <0> d          -1.171   2.795   0.023  0.00  0.00     0.078 H 
ENDBRANCH  11  14
ENDBRANCH  10  11
ENDBRANCH   1  10
TORSDOF 5
