REMARK  1 active torsions:
REMARK  status: ('A' for Active; 'I' for Inactive)
REMARK    1  A    between atoms: C4_4  and  C7_7 
ROOT
ATOM      1  C1  <0> d           6.210  -1.773  -0.066  0.00  0.00    -0.083 A 
ATOM      2  C2  <0> d           6.114  -0.393  -0.058  0.00  0.00    -0.082 A 
ATOM      3  C3  <0> d           4.875   0.215  -0.043  0.00  0.00    -0.072 A 
ATOM      4  C4  <0> d           3.719  -0.564  -0.036  0.00  0.00    -0.025 A 
ATOM      5  C5  <0> d           3.822  -1.954  -0.038  0.00  0.00    -0.072 A 
ATOM      6  C6  <0> d           5.066  -2.551  -0.059  0.00  0.00    -0.082 A 
ATOM      7  H1  <0> d           7.181  -2.245  -0.077  0.00  0.00     0.083 H 
ATOM      8  H2  <0> d           7.010   0.209  -0.062  0.00  0.00     0.083 H 
ATOM      9  H3  <0> d           4.801   1.292  -0.037  0.00  0.00     0.084 H 
ATOM     10  H4  <0> d           2.930  -2.563  -0.028  0.00  0.00     0.084 H 
ATOM     11  H5  <0> d           5.147  -3.628  -0.065  0.00  0.00     0.083 H 
ENDROOT
BRANCH   4  12
ATOM     12  C7  <0> d           2.385   0.084  -0.020  0.00  0.00    -0.005 A 
ATOM     13  C10 <0> d           2.257   1.475  -0.012  0.00  0.00     0.034 A 
ATOM     14  N2  <0> d           1.057   2.020   0.003  0.00  0.00    -0.162 NA
ATOM     15  H8  <0> d           3.137   2.100  -0.016  0.00  0.00     0.118 H 
ATOM     16  N1  <0> d          -0.016   1.316   0.009  0.00  0.00    -0.163 NA
ATOM     17  C9  <0> d           0.002  -0.004   0.002  0.00  0.00     0.025 A 
ATOM     18  C8  <0> d           1.210  -0.679  -0.013  0.00  0.00    -0.052 A 
ATOM     19  H7  <0> d          -0.926  -0.557   0.007  0.00  0.00     0.117 H 
ATOM     20  H6  <0> d           1.245  -1.758  -0.019  0.00  0.00     0.087 H 
ENDBRANCH   4  12
TORSDOF 1
