REMARK  1 active torsions:
REMARK  status: ('A' for Active; 'I' for Inactive)
REMARK    1  A    between atoms: C7_9  and  O1_11 
ROOT
ATOM      1  C1  <0> d          -0.798   1.763  -1.156  0.00  0.00    -0.061 C 
ATOM      2  C2  <0> d          -1.083   3.228  -0.622  0.00  0.00    -0.059 C 
ATOM      3  C3  <0> d          -0.432   3.243   0.795  0.00  0.00    -0.029 C 
ATOM      4  H1  <0> d          -0.780   4.024   1.471  0.00  0.00     0.043 H 
ATOM      5  C4  <0> d          -0.670   1.764   1.262  0.00  0.00    -0.056 C 
ATOM      6  C5  <0> d          -0.013   1.086   0.008  0.00  0.00    -0.051 C 
ATOM      7  H2  <0> d           0.002  -0.004   0.002  0.00  0.00     0.040 H 
ATOM      8  C6  <0> d           1.380   1.786  -0.002  0.00  0.00    -0.037 C 
ATOM      9  C7  <0> d           1.103   3.215   0.520  0.00  0.00     0.039 C 
ATOM     10  H3  <0> d           1.368   3.954  -0.237  0.00  0.00     0.083 H 
ATOM     11  H4  <0> d          -0.185   1.802  -2.057  0.00  0.00     0.033 H 
ATOM     12  H5  <0> d          -1.727   1.227  -1.350  0.00  0.00     0.033 H 
ATOM     13  H6  <0> d          -2.156   3.406  -0.549  0.00  0.00     0.033 H 
ATOM     14  H7  <0> d          -0.617   3.976  -1.262  0.00  0.00     0.033 H 
ATOM     15  H8  <0> d          -1.727   1.516   1.353  0.00  0.00     0.034 H 
ATOM     16  H9  <0> d          -0.123   1.544   2.179  0.00  0.00     0.034 H 
ATOM     17  H10 <0> d           2.071   1.267   0.663  0.00  0.00     0.037 H 
ATOM     18  H11 <0> d           1.780   1.823  -1.015  0.00  0.00     0.037 H 
ENDROOT
BRANCH   9  19
ATOM     19  O1  <0> d           1.830   3.455   1.726  0.00  0.00    -0.395 OA
ATOM     20  H12 <0> d           2.790   3.399   1.625  0.00  0.00     0.210 HD
ENDBRANCH   9  19
TORSDOF 1
