REMARK  4 active torsions:
REMARK  status: ('A' for Active; 'I' for Inactive)
REMARK    1  A    between atoms: C2_2  and  C3_3 
REMARK    2  A    between atoms: C3_3  and  O1_4 
REMARK    3  A    between atoms: O1_4  and  C4_5 
REMARK    4  A    between atoms: C9_10  and  O2_11 
ROOT
ATOM      1  C1  <0> d           0.866   4.640   0.019  0.00  0.00    -0.152 C 
ATOM      2  C2  <0> d           1.035   3.478   0.011  0.00  0.00    -0.091 C 
ATOM      3  H1  <0> d           0.714   5.679   0.026  0.00  0.00     0.166 H 
ENDROOT
BRANCH   2   4
ATOM      4  C3  <0> d           1.248   2.022   0.001  0.00  0.00     0.080 C 
ATOM      5  H2  <0> d           1.817   1.732   0.884  0.00  0.00     0.094 H 
ATOM      6  H3  <0> d           1.800   1.741  -0.896  0.00  0.00     0.094 H 
BRANCH   4   7
ATOM      7  O1  <0> d          -0.016   1.356   0.009  0.00  0.00    -0.337 OA
BRANCH   7   8
ATOM      8  C4  <0> d           0.002  -0.004   0.002  0.00  0.00     0.102 A 
ATOM      9  C9  <0> d          -1.192  -0.718   0.010  0.00  0.00     0.099 A 
ATOM     10  C8  <0> d          -1.168  -2.103   0.002  0.00  0.00    -0.048 A 
ATOM     11  C7  <0> d           0.041  -2.773  -0.013  0.00  0.00    -0.080 A 
ATOM     12  H7  <0> d          -2.094  -2.659   0.007  0.00  0.00     0.087 H 
ATOM     13  C6  <0> d           1.227  -2.064  -0.021  0.00  0.00    -0.080 A 
ATOM     14  H6  <0> d           0.058  -3.853  -0.019  0.00  0.00     0.083 H 
ATOM     15  C5  <0> d           1.210  -0.682  -0.019  0.00  0.00    -0.048 A 
ATOM     16  H5  <0> d           2.170  -2.591  -0.033  0.00  0.00     0.083 H 
ATOM     17  H4  <0> d           2.139  -0.131  -0.030  0.00  0.00     0.087 H 
BRANCH   9  18
ATOM     18  O2  <0> d          -2.381  -0.057   0.024  0.00  0.00    -0.358 OA
ATOM     19  H8  <0> d          -2.733   0.139  -0.855  0.00  0.00     0.217 HD
ENDBRANCH   9  18
ENDBRANCH   7   8
ENDBRANCH   4   7
ENDBRANCH   2   4
TORSDOF 4
