REMARK  0 active torsions:
REMARK  status: ('A' for Active; 'I' for Inactive)
ROOT
ATOM      1  C1  <0> d          -0.017   1.377   0.010  0.00  0.00     0.018 A 
ATOM      2  C2  <0> d           0.002  -0.004   0.002  0.00  0.00     0.120 A 
ATOM      3  C3  <0> d          -1.220  -0.712   0.010  0.00  0.00     0.001 A 
ATOM      4  C4  <0> d          -2.387  -0.033   0.024  0.00  0.00     0.021 A 
ATOM      5  N1  <0> d          -2.393   1.331   0.032  0.00  0.00    -0.327 N 
ATOM      6  C5  <0> d          -1.250   2.038   0.031  0.00  0.00     0.248 A 
ATOM      7  O1  <0> d          -1.289   3.258   0.038  0.00  0.00    -0.268 OA
ATOM      8  C6  <0> d          -3.553  -1.002   0.029  0.00  0.00    -0.026 C 
ATOM      9  C7  <0> d          -2.947  -2.357   0.454  0.00  0.00    -0.056 C 
ATOM     10  C8  <0> d          -1.478  -2.204   0.004  0.00  0.00    -0.036 C 
ATOM     11  O2  <0> d           1.180  -0.673  -0.013  0.00  0.00    -0.191 OA
ATOM     12  H1  <0> d           0.906   1.938   0.004  0.00  0.00     0.096 H 
ATOM     13  H2  <0> d          -3.241   1.801   0.042  0.00  0.00     0.169 HD
ATOM     14  H3  <0> d          -4.308  -0.683   0.748  0.00  0.00     0.042 H 
ATOM     15  H4  <0> d          -3.987  -1.078  -0.968  0.00  0.00     0.042 H 
ATOM     16  H5  <0> d          -3.012  -2.491   1.534  0.00  0.00     0.034 H 
ATOM     17  H6  <0> d          -3.430  -3.182  -0.070  0.00  0.00     0.034 H 
ATOM     18  H7  <0> d          -1.344  -2.607  -0.999  0.00  0.00     0.040 H 
ATOM     19  H8  <0> d          -0.812  -2.705   0.707  0.00  0.00     0.040 H 
ENDROOT
TORSDOF 0
