REMARK  4 active torsions:
REMARK  status: ('A' for Active; 'I' for Inactive)
REMARK    1  A    between atoms: C1_1  and  C2_2 
REMARK    2  A    between atoms: C3_3  and  C7_11 
REMARK    3  A    between atoms: C4_5  and  N3_10 
REMARK    4  A    between atoms: N2_6  and  C6_9 
ROOT
ATOM      1  C2  <0> d          -0.718   1.572   1.248  0.00  0.00     0.032 A 
ATOM      2  C3  <0> d          -0.860   2.908   1.486  0.00  0.00     0.061 A 
ATOM      3  N1  <0> d          -1.490   3.327   2.581  0.00  0.00    -0.069 NA
ATOM      4  C4  <0> d          -1.978   2.475   3.461  0.00  0.00     0.703 A 
ATOM      5  N2  <0> d          -1.861   1.132   3.279  0.00  0.00    -0.150 N 
ATOM      6  C5  <0> d          -1.236   0.656   2.181  0.00  0.00     0.269 A 
ATOM      7  O1  <0> d          -1.122  -0.545   2.002  0.00  0.00    -0.267 OA
ENDROOT
BRANCH   1   8
ATOM      8  C1  <0> d          -0.013   1.086   0.008  0.00  0.00    -0.044 C 
ATOM      9  H1  <0> d           0.002  -0.004   0.002  0.00  0.00     0.033 H 
ATOM     10  H2  <0> d           1.010   1.463   0.000  0.00  0.00     0.033 H 
ATOM     11  H3  <0> d          -0.540   1.447  -0.875  0.00  0.00     0.033 H 
ENDBRANCH   1   8
BRANCH   2  12
ATOM     12  C7  <0> d          -0.309   3.910   0.505  0.00  0.00    -0.034 C 
ATOM     13  H9  <0> d          -1.070   4.147  -0.238  0.00  0.00     0.035 H 
ATOM     14  H10 <0> d          -0.024   4.819   1.035  0.00  0.00     0.035 H 
ATOM     15  H11 <0> d           0.565   3.489   0.009  0.00  0.00     0.035 H 
ENDBRANCH   2  12
BRANCH   5  16
ATOM     16  C6  <0> d          -2.411   0.205   4.271  0.00  0.00     0.006 C 
ATOM     17  H4  <0> d          -1.653  -0.015   5.023  0.00  0.00     0.058 H 
ATOM     18  H5  <0> d          -3.277   0.660   4.752  0.00  0.00     0.058 H 
ATOM     19  H6  <0> d          -2.712  -0.719   3.778  0.00  0.00     0.058 H 
ENDBRANCH   5  16
BRANCH   4  20
ATOM     20  N3  <0> d          -2.613   2.950   4.577  0.00  0.00    -0.233 N 
ATOM     21  H7  <0> d          -2.975   2.330   5.229  0.00  0.00     0.174 HD
ATOM     22  H8  <0> d          -2.701   3.906   4.715  0.00  0.00     0.174 HD
ENDBRANCH   4  20
TORSDOF 4
