REMARK  4 active torsions:
REMARK  status: ('A' for Active; 'I' for Inactive)
REMARK    1  A    between atoms: C1_1  and  N1_2 
REMARK       I    between atoms: N1_2  and  C2_3 
REMARK    2  A    between atoms: C2_3  and  C3_5 
REMARK    3  A    between atoms: C3_5  and  C4_6 
REMARK    4  A    between atoms: C4_6  and  O2_7 
ROOT
ATOM      1  N1  <0> d           0.002  -0.004   0.002  0.00  0.00    -0.365 N 
ATOM      2  C2  <0> d          -1.156  -0.694   0.009  0.00  0.00     0.219 C 
ATOM      3  O1  <0> d          -2.214  -0.102   0.023  0.00  0.00    -0.274 OA
ATOM      4  H4  <0> d           0.849  -0.478  -0.009  0.00  0.00     0.161 HD
ENDROOT
BRANCH   2   5
ATOM      5  C3  <0> d          -1.135  -2.201   0.001  0.00  0.00     0.029 C 
ATOM      6  H5  <0> d          -0.625  -2.552  -0.896  0.00  0.00     0.050 H 
ATOM      7  H6  <0> d          -0.608  -2.562   0.884  0.00  0.00     0.050 H 
BRANCH   5   8
ATOM      8  C4  <0> d          -2.571  -2.730   0.012  0.00  0.00     0.025 C 
ATOM      9  H7  <0> d          -3.081  -2.379   0.909  0.00  0.00     0.074 H 
ATOM     10  H8  <0> d          -3.098  -2.369  -0.871  0.00  0.00     0.074 H 
BRANCH   8  11
ATOM     11  O2  <0> d          -2.551  -4.159   0.004  0.00  0.00    -0.400 OA
ATOM     12  H9  <0> d          -3.429  -4.564   0.010  0.00  0.00     0.209 HD
ENDBRANCH   8  11
ENDBRANCH   5   8
ENDBRANCH   2   5
BRANCH   1  13
ATOM     13  C1  <0> d          -0.018   1.461   0.010  0.00  0.00    -0.018 C 
ATOM     14  H1  <0> d           1.005   1.838   0.002  0.00  0.00     0.056 H 
ATOM     15  H2  <0> d          -0.545   1.822  -0.873  0.00  0.00     0.056 H 
ATOM     16  H3  <0> d          -0.528   1.812   0.907  0.00  0.00     0.056 H 
ENDBRANCH   1  13
TORSDOF 4
