REMARK  5 active torsions:
REMARK  status: ('A' for Active; 'I' for Inactive)
REMARK    1  A    between atoms: C1_1  and  C2_2 
REMARK    2  A    between atoms: C2_2  and  C3_3 
REMARK    3  A    between atoms: C2_2  and  C4_4 
REMARK    4  A    between atoms: C2_2  and  C5_5 
REMARK    5  A    between atoms: C6_6  and  C7_7 
ROOT
ATOM      1  C7  <0> d           1.885  -1.302  -3.308  0.00  0.00    -0.026 C 
ATOM      2  C8  <0> d           2.435  -1.680  -4.274  0.00  0.00    -0.141 C 
ATOM      3  H10 <0> d           2.926  -2.019  -5.138  0.00  0.00     0.167 H 
ENDROOT
BRANCH   1   4
ATOM      4  C6  <0> d           1.241  -0.857  -2.175  0.00  0.00    -0.015 C 
ATOM      5  C5  <0> d           0.691  -0.479  -1.209  0.00  0.00    -0.084 C 
BRANCH   5   6
ATOM      6  C2  <0> d           0.002  -0.004   0.002  0.00  0.00     0.013 C 
BRANCH   6   7
ATOM      7  C1  <0> d          -0.019   1.526   0.010  0.00  0.00    -0.059 C 
ATOM      8  H1  <0> d           1.004   1.903   0.003  0.00  0.00     0.029 H 
ATOM      9  H2  <0> d          -0.546   1.887  -0.873  0.00  0.00     0.029 H 
ATOM     10  H3  <0> d          -0.529   1.877   0.907  0.00  0.00     0.029 H 
ENDBRANCH   6   7
BRANCH   6  11
ATOM     11  C3  <0> d           0.742  -0.511   1.242  0.00  0.00    -0.059 C 
ATOM     12  H4  <0> d           0.232  -0.159   2.138  0.00  0.00     0.029 H 
ATOM     13  H5  <0> d           0.757  -1.601   1.236  0.00  0.00     0.029 H 
ATOM     14  H6  <0> d           1.765  -0.134   1.234  0.00  0.00     0.029 H 
ENDBRANCH   6  11
BRANCH   6  15
ATOM     15  C4  <0> d          -1.433  -0.534   0.013  0.00  0.00    -0.059 C 
ATOM     16  H7  <0> d          -1.960  -0.173  -0.870  0.00  0.00     0.029 H 
ATOM     17  H8  <0> d          -1.419  -1.623   0.007  0.00  0.00     0.029 H 
ATOM     18  H9  <0> d          -1.944  -0.182   0.910  0.00  0.00     0.029 H 
ENDBRANCH   6  15
ENDBRANCH   5   6
ENDBRANCH   1   4
TORSDOF 5
