REMARK  2 active torsions:
REMARK  status: ('A' for Active; 'I' for Inactive)
REMARK    1  A    between atoms: C1_1  and  C2_2 
REMARK    2  A    between atoms: C6_6  and  C7_8 
ROOT
ATOM      1  C2  <0> d          -1.891   6.514   0.054  0.00  0.00     0.031 A 
ATOM      2  C3  <0> d          -3.270   6.414   0.067  0.00  0.00    -0.059 A 
ATOM      3  C4  <0> d          -3.862   5.159   0.066  0.00  0.00    -0.079 A 
ATOM      4  C5  <0> d          -3.043   4.043   0.052  0.00  0.00    -0.053 A 
ATOM      5  C6  <0> d          -1.661   4.217   0.040  0.00  0.00     0.087 A 
ATOM      6  N1  <0> d          -1.135   5.435   0.047  0.00  0.00    -0.252 NA
ATOM      7  H5  <0> d          -3.881   7.305   0.076  0.00  0.00     0.086 H 
ATOM      8  H6  <0> d          -4.937   5.055   0.076  0.00  0.00     0.083 H 
ATOM      9  H7  <0> d          -3.470   3.051   0.051  0.00  0.00     0.087 H 
ENDROOT
BRANCH   5  10
ATOM     10  C7  <0> d          -0.770   3.031   0.026  0.00  0.00     0.107 A 
ATOM     11  N3  <0> d          -1.156   1.772   0.017  0.00  0.00    -0.173 NA
ATOM     12  N2  <0> d          -0.011   0.966   0.007  0.00  0.00    -0.289 N 
ATOM     13  C9  <0> d           1.072   1.773   0.001  0.00  0.00    -0.002 A 
ATOM     14  H1  <0> d           0.003  -0.034   0.006  0.00  0.00     0.188 HD
ATOM     15  C8  <0> d           0.638   3.052   0.012  0.00  0.00    -0.035 A 
ATOM     16  H9  <0> d           2.103   1.452  -0.010  0.00  0.00     0.113 H 
ATOM     17  H8  <0> d           1.261   3.935   0.012  0.00  0.00     0.089 H 
ENDBRANCH   5  10
BRANCH   1  18
ATOM     18  C1  <0> d          -1.244   7.875   0.054  0.00  0.00    -0.035 C 
ATOM     19  H2  <0> d          -1.078   8.198   1.082  0.00  0.00     0.035 H 
ATOM     20  H3  <0> d          -0.289   7.824  -0.469  0.00  0.00     0.035 H 
ATOM     21  H4  <0> d          -1.897   8.588  -0.450  0.00  0.00     0.035 H 
ENDBRANCH   1  18
TORSDOF 2
