REMARK  1 active torsions:
REMARK  status: ('A' for Active; 'I' for Inactive)
REMARK    1  A    between atoms: C6_7  and  O1_12 
ROOT
ATOM      1  C1  <0> d          -1.425   5.763   1.196  0.00  0.00    -0.066 A 
ATOM      2  C2  <0> d          -1.127   5.138  -0.003  0.00  0.00    -0.073 A 
ATOM      3  C3  <0> d          -0.891   3.767  -0.006  0.00  0.00    -0.031 A 
ATOM      4  C4  <0> d          -0.966   3.071   1.179  0.00  0.00     0.069 A 
ATOM      5  N1  <0> d          -1.251   3.707   2.308  0.00  0.00    -0.262 NA
ATOM      6  C5  <0> d          -1.477   5.002   2.349  0.00  0.00     0.003 A 
ATOM      7  C6  <0> d          -0.736   1.583   1.258  0.00  0.00     0.078 C 
ATOM      8  H1  <0> d          -1.698   1.077   1.341  0.00  0.00     0.092 H 
ATOM      9  C7  <0> d          -0.013   1.086   0.008  0.00  0.00    -0.035 C 
ATOM     10  C8  <0> d          -0.763   1.598  -1.227  0.00  0.00    -0.059 C 
ATOM     11  C9  <0> d          -0.563   3.110  -1.319  0.00  0.00    -0.039 C 
ATOM     12  H2  <0> d          -1.613   6.826   1.230  0.00  0.00     0.085 H 
ATOM     13  H3  <0> d          -1.078   5.706  -0.920  0.00  0.00     0.084 H 
ATOM     14  H4  <0> d          -1.706   5.476   3.292  0.00  0.00     0.114 H 
ATOM     15  H5  <0> d           0.002  -0.004   0.002  0.00  0.00     0.037 H 
ATOM     16  H6  <0> d           1.009   1.466   0.000  0.00  0.00     0.037 H 
ATOM     17  H7  <0> d          -0.365   1.120  -2.123  0.00  0.00     0.033 H 
ATOM     18  H8  <0> d          -1.825   1.373  -1.132  0.00  0.00     0.033 H 
ATOM     19  H9  <0> d           0.474   3.321  -1.577  0.00  0.00     0.040 H 
ATOM     20  H10 <0> d          -1.216   3.512  -2.095  0.00  0.00     0.040 H 
ENDROOT
BRANCH   7  21
ATOM     21  O1  <0> d           0.054   1.283   2.410  0.00  0.00    -0.389 OA
ATOM     22  H11 <0> d          -0.342   1.570   3.244  0.00  0.00     0.210 HD
ENDBRANCH   7  21
TORSDOF 1
