REMARK  4 active torsions:
REMARK  status: ('A' for Active; 'I' for Inactive)
REMARK    1  A    between atoms: C1_1  and  C2_2 
REMARK    2  A    between atoms: C2_2  and  C3_3 
REMARK    3  A    between atoms: C5_6  and  C7_11 
REMARK    4  A    between atoms: C7_11  and  O2_12 
ROOT
ATOM      1  C3  <0> d          -0.835   1.635  -1.181  0.00  0.00     0.025 C 
ATOM      2  H1  <0> d          -0.427   2.587  -1.520  0.00  0.00     0.054 H 
ATOM      3  C4  <0> d          -0.013   1.086   0.008  0.00  0.00    -0.033 C 
ATOM      4  C5  <0> d          -0.811   1.621   1.217  0.00  0.00     0.033 C 
ATOM      5  H2  <0> d          -0.397   2.572   1.551  0.00  0.00     0.075 H 
ATOM      6  N1  <0> d          -2.183   1.808   0.728  0.00  0.00    -0.354 N 
ATOM      7  C6  <0> d          -2.225   1.825  -0.615  0.00  0.00     0.222 C 
ATOM      8  O1  <0> d          -3.230   1.972  -1.277  0.00  0.00    -0.273 OA
ATOM      9  H8  <0> d           0.002  -0.004   0.002  0.00  0.00     0.037 H 
ATOM     10  H9  <0> d           1.000   1.488   0.001  0.00  0.00     0.037 H 
ATOM     11  H10 <0> d          -2.960   1.906   1.301  0.00  0.00     0.162 HD
ENDROOT
BRANCH   1  12
ATOM     12  C2  <0> d          -0.855   0.624  -2.330  0.00  0.00    -0.057 C 
ATOM     13  H6  <0> d           0.168   0.365  -2.604  0.00  0.00     0.033 H 
ATOM     14  H7  <0> d          -1.385  -0.274  -2.014  0.00  0.00     0.033 H 
BRANCH  12  15
ATOM     15  C1  <0> d          -1.566   1.239  -3.537  0.00  0.00    -0.076 C 
ATOM     16  H3  <0> d          -2.588   1.498  -3.264  0.00  0.00     0.027 H 
ATOM     17  H4  <0> d          -1.035   2.137  -3.853  0.00  0.00     0.027 H 
ATOM     18  H5  <0> d          -1.580   0.519  -4.356  0.00  0.00     0.027 H 
ENDBRANCH  12  15
ENDBRANCH   1  12
BRANCH   4  19
ATOM     19  C7  <0> d          -0.789   0.603   2.359  0.00  0.00     0.035 C 
ATOM     20  H11 <0> d          -1.316  -0.300   2.051  0.00  0.00     0.077 H 
ATOM     21  H12 <0> d           0.244   0.355   2.605  0.00  0.00     0.077 H 
BRANCH  19  22
ATOM     22  O2  <0> d          -1.431   1.161   3.507  0.00  0.00    -0.399 OA
ATOM     23  H13 <0> d          -1.453   0.569   4.272  0.00  0.00     0.209 HD
ENDBRANCH  19  22
ENDBRANCH   4  19
TORSDOF 4
