REMARK  1 active torsions:
REMARK  status: ('A' for Active; 'I' for Inactive)
REMARK    1  A    between atoms: C1_1  and  C2_2 
ROOT
ATOM      1  C2  <0> d           0.002  -0.004   0.002  0.00  0.00     0.054 A 
ATOM      2  C3  <0> d           0.006  -0.709  -1.208  0.00  0.00     0.086 A 
ATOM      3  C4  <0> d           0.025  -2.108  -1.156  0.00  0.00     0.025 A 
ATOM      4  N1  <0> d           0.039  -2.703   0.024  0.00  0.00    -0.253 NA
ATOM      5  C5  <0> d           0.034  -2.000   1.139  0.00  0.00     0.086 A 
ATOM      6  N2  <0> d           0.022  -0.682   1.136  0.00  0.00    -0.245 NA
ATOM      7  C6  <0> d          -0.010  -0.019  -2.462  0.00  0.00     0.103 C 
ATOM      8  N3  <0> d          -0.022   0.529  -3.458  0.00  0.00    -0.191 NA
ATOM      9  H4  <0> d           0.029  -2.691  -2.065  0.00  0.00     0.117 H 
ATOM     10  H5  <0> d           0.045  -2.521   2.085  0.00  0.00     0.146 H 
ENDROOT
BRANCH   1  11
ATOM     11  C1  <0> d          -0.018   1.503   0.010  0.00  0.00    -0.034 C 
ATOM     12  H1  <0> d           1.004   1.880   0.003  0.00  0.00     0.035 H 
ATOM     13  H2  <0> d          -0.545   1.864  -0.873  0.00  0.00     0.035 H 
ATOM     14  H3  <0> d          -0.529   1.854   0.907  0.00  0.00     0.035 H 
ENDBRANCH   1  11
TORSDOF 1
