REMARK  1 active torsions:
REMARK  status: ('A' for Active; 'I' for Inactive)
REMARK    1  A    between atoms: C1_1  and  N1_2 
ROOT
ATOM      1  N1  <0> d           1.332  -0.374  -0.013  0.00  0.00    -0.336 N 
ATOM      2  C2  <0> d           2.058   0.760  -0.013  0.00  0.00     0.066 A 
ATOM      3  N2  <0> d           1.248   1.788  -0.000  0.00  0.00    -0.253 NA
ATOM      4  C3  <0> d          -0.017   1.363   0.009  0.00  0.00     0.040 A 
ATOM      5  C4  <0> d           0.002  -0.004   0.002  0.00  0.00     0.134 A 
ATOM      6  C5  <0> d          -1.132  -0.878   0.009  0.00  0.00     0.119 C 
ATOM      7  N3  <0> d          -2.032  -1.571   0.014  0.00  0.00    -0.190 NA
ATOM      8  H4  <0> d           3.136   0.814  -0.024  0.00  0.00     0.143 H 
ATOM      9  H5  <0> d          -0.898   1.987   0.017  0.00  0.00     0.119 H 
ENDROOT
BRANCH   1  10
ATOM     10  C1  <0> d           1.855  -1.742  -0.025  0.00  0.00    -0.012 C 
ATOM     11  H1  <0> d           1.975  -2.076  -1.056  0.00  0.00     0.057 H 
ATOM     12  H2  <0> d           2.821  -1.767   0.479  0.00  0.00     0.057 H 
ATOM     13  H3  <0> d           1.159  -2.402   0.492  0.00  0.00     0.057 H 
ENDBRANCH   1  10
TORSDOF 1
