REMARK  9 active torsions:
REMARK  status: ('A' for Active; 'I' for Inactive)
REMARK    1  A    between atoms: C1_1  and  C2_2 
REMARK    2  A    between atoms: C2_2  and  C3_3 
REMARK    3  A    between atoms: C3_3  and  C4_4 
REMARK    4  A    between atoms: C4_4  and  C5_5 
REMARK    5  A    between atoms: C5_5  and  C6_6 
REMARK    6  A    between atoms: C6_6  and  C7_8 
REMARK    7  A    between atoms: C6_6  and  O1_11 
REMARK    8  A    between atoms: C7_8  and  C8_9 
REMARK    9  A    between atoms: C7_8  and  C9_10 
ROOT
ATOM      1  C5  <0> d          -2.904   1.556   0.038  0.00  0.00    -0.041 C 
ATOM      2  H11 <0> d          -2.997   2.641   0.088  0.00  0.00     0.036 H 
ATOM      3  H12 <0> d          -2.346   1.281  -0.856  0.00  0.00     0.036 H 
ENDROOT
BRANCH   1   4
ATOM      4  C4  <0> d          -4.298   0.928  -0.016  0.00  0.00    -0.063 C 
ATOM      5  H9  <0> d          -4.205  -0.157  -0.067  0.00  0.00     0.033 H 
ATOM      6  H10 <0> d          -4.856   1.204   0.878  0.00  0.00     0.033 H 
BRANCH   4   7
ATOM      7  C3  <0> d          -5.038   1.435  -1.256  0.00  0.00    -0.065 C 
ATOM      8  H7  <0> d          -5.130   2.519  -1.206  0.00  0.00     0.033 H 
ATOM      9  H8  <0> d          -4.480   1.159  -2.151  0.00  0.00     0.033 H 
BRANCH   7  10
ATOM     10  C2  <0> d          -6.432   0.806  -1.310  0.00  0.00    -0.069 C 
ATOM     11  H5  <0> d          -6.339  -0.279  -1.361  0.00  0.00     0.032 H 
ATOM     12  H6  <0> d          -6.990   1.082  -0.416  0.00  0.00     0.032 H 
BRANCH  10  13
ATOM     13  C1  <0> d          -7.172   1.313  -2.550  0.00  0.00    -0.077 C 
ATOM     14  H2  <0> d          -6.614   1.037  -3.445  0.00  0.00     0.027 H 
ATOM     15  H3  <0> d          -8.165   0.865  -2.589  0.00  0.00     0.027 H 
ATOM     16  H4  <0> d          -7.264   2.398  -2.500  0.00  0.00     0.027 H 
ENDBRANCH  10  13
ENDBRANCH   7  10
ENDBRANCH   4   7
ENDBRANCH   1   4
BRANCH   1  17
ATOM     17  C6  <0> d          -2.164   1.050   1.278  0.00  0.00     0.038 C 
ATOM     18  H1  <0> d          -2.149  -0.040   1.272  0.00  0.00     0.083 H 
BRANCH  17  19
ATOM     19  C7  <0> d          -0.729   1.579   1.267  0.00  0.00    -0.036 C 
ATOM     20  H13 <0> d          -0.744   2.669   1.273  0.00  0.00     0.042 H 
BRANCH  19  21
ATOM     21  C8  <0> d          -0.013   1.086   0.008  0.00  0.00    -0.071 C 
ATOM     22  H14 <0> d           0.002  -0.004   0.002  0.00  0.00     0.028 H 
ATOM     23  H15 <0> d           1.010   1.463   0.000  0.00  0.00     0.028 H 
ATOM     24  H16 <0> d          -0.540   1.447  -0.875  0.00  0.00     0.028 H 
ENDBRANCH  19  21
BRANCH  19  25
ATOM     25  C9  <0> d           0.011   1.072   2.506  0.00  0.00    -0.071 C 
ATOM     26  H17 <0> d           1.034   1.450   2.499  0.00  0.00     0.028 H 
ATOM     27  H18 <0> d          -0.499   1.424   3.403  0.00  0.00     0.028 H 
ATOM     28  H19 <0> d           0.026  -0.018   2.500  0.00  0.00     0.028 H 
ENDBRANCH  19  25
ENDBRANCH  17  19
BRANCH  17  29
ATOM     29  O1  <0> d          -2.833   1.510   2.453  0.00  0.00    -0.395 OA
ATOM     30  H20 <0> d          -2.884   2.474   2.525  0.00  0.00     0.210 HD
ENDBRANCH  17  29
ENDBRANCH   1  17
TORSDOF 9
