REMARK  0 active torsions:
REMARK  status: ('A' for Active; 'I' for Inactive)
ROOT
ATOM      1  C1  <0> d          -0.798   1.763  -1.156  0.00  0.00    -0.061 C 
ATOM      2  C2  <0> d          -1.083   3.228  -0.622  0.00  0.00    -0.060 C 
ATOM      3  C3  <0> d          -0.432   3.243   0.795  0.00  0.00    -0.038 C 
ATOM      4  H1  <0> d          -0.780   4.024   1.471  0.00  0.00     0.042 H 
ATOM      5  C4  <0> d          -0.670   1.764   1.262  0.00  0.00    -0.057 C 
ATOM      6  C5  <0> d          -0.013   1.086   0.008  0.00  0.00    -0.052 C 
ATOM      7  H2  <0> d           0.002  -0.004   0.002  0.00  0.00     0.040 H 
ATOM      8  C6  <0> d           1.380   1.786  -0.002  0.00  0.00    -0.046 C 
ATOM      9  C7  <0> d           1.103   3.215   0.520  0.00  0.00     0.034 C 
ATOM     10  H3  <0> d           1.368   3.954  -0.237  0.00  0.00     0.063 H 
ATOM     11  C8  <0> d           1.852   3.462   1.762  0.00  0.00     0.064 C 
ATOM     12  N1  <0> d           2.430   3.653   2.722  0.00  0.00    -0.197 NA
ATOM     13  H4  <0> d          -0.185   1.802  -2.057  0.00  0.00     0.033 H 
ATOM     14  H5  <0> d          -1.727   1.227  -1.350  0.00  0.00     0.033 H 
ATOM     15  H6  <0> d          -2.156   3.406  -0.549  0.00  0.00     0.033 H 
ATOM     16  H7  <0> d          -0.617   3.976  -1.262  0.00  0.00     0.033 H 
ATOM     17  H8  <0> d          -1.727   1.516   1.353  0.00  0.00     0.034 H 
ATOM     18  H9  <0> d          -0.123   1.544   2.179  0.00  0.00     0.034 H 
ATOM     19  H10 <0> d           2.071   1.267   0.663  0.00  0.00     0.035 H 
ATOM     20  H11 <0> d           1.780   1.823  -1.015  0.00  0.00     0.035 H 
ENDROOT
TORSDOF 0
