REMARK  1 active torsions:
REMARK  status: ('A' for Active; 'I' for Inactive)
REMARK    1  A    between atoms: C1_1  and  C2_2 
ROOT
ATOM      1  C2  <0> d           2.389   1.415  -0.013  0.00  0.00    -0.022 A 
ATOM      2  C3  <0> d           2.397   0.032  -0.020  0.00  0.00    -0.074 A 
ATOM      3  C4  <0> d           1.207  -0.675  -0.013  0.00  0.00    -0.081 A 
ATOM      4  C5  <0> d           0.002  -0.004   0.002  0.00  0.00    -0.060 A 
ATOM      5  C6  <0> d          -0.017   1.392   0.010  0.00  0.00     0.083 A 
ATOM      6  C7  <0> d           1.189   2.101   0.002  0.00  0.00     0.142 A 
ATOM      7  F1  <0> d           1.182   3.452   0.009  0.00  0.00    -0.204 F 
ATOM      8  C8  <0> d          -1.264   2.095   0.019  0.00  0.00     0.102 C 
ATOM      9  N1  <0> d          -2.254   2.653   0.027  0.00  0.00    -0.191 NA
ATOM     10  H4  <0> d           3.337  -0.500  -0.031  0.00  0.00     0.084 H 
ATOM     11  H5  <0> d           1.222  -1.754  -0.019  0.00  0.00     0.083 H 
ATOM     12  H6  <0> d          -0.925  -0.558   0.008  0.00  0.00     0.086 H 
ENDROOT
BRANCH   1  13
ATOM     13  C1  <0> d           3.690   2.174  -0.021  0.00  0.00    -0.048 C 
ATOM     14  H1  <0> d           3.995   2.363  -1.050  0.00  0.00     0.033 H 
ATOM     15  H2  <0> d           3.560   3.123   0.500  0.00  0.00     0.033 H 
ATOM     16  H3  <0> d           4.458   1.586   0.483  0.00  0.00     0.033 H 
ENDBRANCH   1  13
TORSDOF 1
