REMARK  2 active torsions:
REMARK  status: ('A' for Active; 'I' for Inactive)
REMARK    1  A    between atoms: C1_1  and  N1_2 
REMARK       I    between atoms: N1_2  and  C2_3 
REMARK    2  A    between atoms: C2_3  and  C3_5 
ROOT
ATOM      1  N1  <0> d           0.002  -0.004   0.002  0.00  0.00    -0.359 N 
ATOM      2  C2  <0> d           0.604  -0.675   1.004  0.00  0.00     0.290 C 
ATOM      3  O1  <0> d           1.131  -0.065   1.913  0.00  0.00    -0.264 OA
ATOM      4  H4  <0> d          -0.418  -0.491  -0.724  0.00  0.00     0.162 HD
ENDROOT
BRANCH   2   5
ATOM      5  C3  <0> d           0.624  -2.153   0.995  0.00  0.00     0.242 A 
ATOM      6  N4  <0> d           1.175  -2.935   1.907  0.00  0.00    -0.191 NA
ATOM      7  C4  <0> d           0.969  -4.193   1.526  0.00  0.00     0.245 A 
ATOM      8  N3  <0> d           0.309  -4.180   0.394  0.00  0.00    -0.115 NA
ATOM      9 Cl1  <0> d           1.492  -5.611   2.380  0.00  0.00    -0.040 Cl
ATOM     10  N2  <0> d           0.088  -2.958   0.051  0.00  0.00    -0.121 NA
ENDBRANCH   2   5
BRANCH   1  11
ATOM     11  C1  <0> d          -0.018   1.461   0.010  0.00  0.00    -0.018 C 
ATOM     12  H1  <0> d           1.005   1.838   0.002  0.00  0.00     0.056 H 
ATOM     13  H2  <0> d          -0.545   1.822  -0.873  0.00  0.00     0.056 H 
ATOM     14  H3  <0> d          -0.528   1.812   0.907  0.00  0.00     0.056 H 
ENDBRANCH   1  11
TORSDOF 2
