REMARK  1 active torsions:
REMARK  status: ('A' for Active; 'I' for Inactive)
REMARK    1  A    between atoms: C1_1  and  C2_2 
ROOT
ATOM      1  C2  <0> d           0.779   3.417   0.013  0.00  0.00     0.015 A 
ATOM      2  C3  <0> d          -0.491   3.831   0.027  0.00  0.00    -0.018 A 
ATOM      3  S1  <0> d          -1.380   2.284   0.020  0.00  0.00    -0.039 SA
ATOM      4  C4  <0> d          -0.014   1.214   0.009  0.00  0.00     0.288 A 
ATOM      5  O1  <0> d           0.002  -0.004   0.002  0.00  0.00    -0.260 OA
ATOM      6  N1  <0> d           1.027   2.077   0.003  0.00  0.00    -0.321 N 
ATOM      7  H1  <0> d           1.939   1.746  -0.007  0.00  0.00     0.169 HD
ATOM      8  H5  <0> d          -0.878   4.840   0.036  0.00  0.00     0.098 H 
ENDROOT
BRANCH   1   9
ATOM      9  C1  <0> d           1.913   4.409   0.008  0.00  0.00    -0.037 C 
ATOM     10  H2  <0> d           2.177   4.654  -1.021  0.00  0.00     0.035 H 
ATOM     11  H3  <0> d           1.605   5.315   0.530  0.00  0.00     0.035 H 
ATOM     12  H4  <0> d           2.777   3.976   0.511  0.00  0.00     0.035 H 
ENDBRANCH   1   9
TORSDOF 1
