REMARK  2 active torsions:
REMARK  status: ('A' for Active; 'I' for Inactive)
REMARK    1  A    between atoms: C1_1  and  N1_2 
REMARK    2  A    between atoms: N1_2  and  C2_3 
ROOT
ATOM      1  C2  <0> d           1.102   2.026   0.002  0.00  0.00     0.124 A 
ATOM      2  C3  <0> d           2.342   1.394  -0.013  0.00  0.00    -0.039 A 
ATOM      3  C4  <0> d           2.393   0.011  -0.020  0.00  0.00    -0.076 A 
ATOM      4  C5  <0> d           1.198  -0.696  -0.013  0.00  0.00    -0.044 A 
ATOM      5  C6  <0> d           0.002  -0.004   0.002  0.00  0.00     0.128 A 
ATOM      6  N2  <0> d          -0.016   1.316   0.009  0.00  0.00    -0.220 NA
ATOM      7 Cl1  <0> d          -1.496  -0.882   0.012  0.00  0.00    -0.062 Cl
ATOM      8  H5  <0> d           3.252   1.975  -0.018  0.00  0.00     0.089 H 
ATOM      9  H6  <0> d           3.341  -0.506  -0.032  0.00  0.00     0.083 H 
ATOM     10  H7  <0> d           1.204  -1.776  -0.018  0.00  0.00     0.088 H 
ENDROOT
BRANCH   1  11
ATOM     11  N1  <0> d           1.037   3.414   0.010  0.00  0.00    -0.379 N 
ATOM     12  H4  <0> d           0.060   3.919   0.022  0.00  0.00     0.160 HD
BRANCH  11  13
ATOM     13  C1  <0> d           2.270   4.205   0.003  0.00  0.00    -0.020 C 
ATOM     14  H1  <0> d           2.019   5.276   0.010  0.00  0.00     0.056 H 
ATOM     15  H2  <0> d           2.850   3.971  -0.902  0.00  0.00     0.056 H 
ATOM     16  H3  <0> d           2.867   3.962   0.894  0.00  0.00     0.056 H 
ENDBRANCH  11  13
ENDBRANCH   1  11
TORSDOF 2
