REMARK  6 active torsions:
REMARK  status: ('A' for Active; 'I' for Inactive)
REMARK    1  A    between atoms: C1_1  and  O1_2 
REMARK    2  A    between atoms: O1_2  and  C2_3 
REMARK    3  A    between atoms: C2_3  and  O3_9 
REMARK    4  A    between atoms: C4_5  and  C6_7 
REMARK    5  A    between atoms: C6_7  and  O2_8 
REMARK    6  A    between atoms: O3_9  and  C7_10 
ROOT
ATOM      1  C2  <0> d           0.673  -0.661  -1.073  0.00  0.00     0.163 C 
ATOM      2  C3  <0> d           2.134  -1.100  -0.880  0.00  0.00    -0.007 C 
ATOM      3  C4  <0> d           1.582  -2.362  -0.195  0.00  0.00    -0.024 C 
ATOM      4  C5  <0> d           0.300  -2.152  -1.019  0.00  0.00    -0.007 C 
ATOM      5  H4  <0> d           2.656  -1.304  -1.814  0.00  0.00     0.041 H 
ATOM      6  H5  <0> d           2.699  -0.452  -0.210  0.00  0.00     0.041 H 
ATOM      7  H6  <0> d           1.434  -2.247   0.879  0.00  0.00     0.043 H 
ATOM      8  H7  <0> d          -0.615  -2.354  -0.462  0.00  0.00     0.041 H 
ATOM      9  H8  <0> d           0.321  -2.644  -1.992  0.00  0.00     0.041 H 
ENDROOT
BRANCH   1  10
ATOM     10  O1  <0> d           0.153   0.099   0.020  0.00  0.00    -0.360 OA
BRANCH  10  11
ATOM     11  C1  <0> d          -1.273   0.188   0.040  0.00  0.00     0.007 C 
ATOM     12  H1  <0> d          -1.616   0.727  -0.843  0.00  0.00     0.066 H 
ATOM     13  H2  <0> d          -1.699  -0.816   0.042  0.00  0.00     0.066 H 
ATOM     14  H3  <0> d          -1.591   0.719   0.937  0.00  0.00     0.066 H 
ENDBRANCH  10  11
ENDBRANCH   1  10
BRANCH   1  15
ATOM     15  O3  <0> d           0.419  -0.054  -2.342  0.00  0.00    -0.360 OA
BRANCH  15  16
ATOM     16  C7  <0> d           0.928   1.276  -2.462  0.00  0.00     0.007 C 
ATOM     17  H12 <0> d           0.406   1.929  -1.763  0.00  0.00     0.066 H 
ATOM     18  H13 <0> d           1.994   1.279  -2.234  0.00  0.00     0.066 H 
ATOM     19  H14 <0> d           0.772   1.634  -3.479  0.00  0.00     0.066 H 
ENDBRANCH  15  16
ENDBRANCH   1  15
BRANCH   3  20
ATOM     20  C6  <0> d           2.342  -3.639  -0.558  0.00  0.00     0.020 C 
ATOM     21  H9  <0> d           2.212  -3.850  -1.620  0.00  0.00     0.074 H 
ATOM     22  H10 <0> d           3.402  -3.504  -0.343  0.00  0.00     0.074 H 
BRANCH  20  23
ATOM     23  O2  <0> d           1.834  -4.731   0.210  0.00  0.00    -0.400 OA
ATOM     24  H11 <0> d           2.271  -5.575   0.032  0.00  0.00     0.209 HD
ENDBRANCH  20  23
ENDBRANCH   3  20
TORSDOF 6
