REMARK  5 active torsions:
REMARK  status: ('A' for Active; 'I' for Inactive)
REMARK    1  A    between atoms: C1_1  and  C2_2 
REMARK    2  A    between atoms: C3_3  and  N1_9 
REMARK    3  A    between atoms: C7_7  and  O1_8 
REMARK    4  A    between atoms: N1_9  and  C8_10 
REMARK    5  A    between atoms: N1_9  and  C9_11 
ROOT
ATOM      1  C2  <0> d           2.385   1.415  -0.014  0.00  0.00    -0.007 A 
ATOM      2  C3  <0> d           2.402   0.026  -0.021  0.00  0.00     0.018 A 
ATOM      3  C4  <0> d           1.206  -0.681  -0.013  0.00  0.00    -0.062 A 
ATOM      4  C5  <0> d           0.002  -0.004   0.002  0.00  0.00    -0.079 A 
ATOM      5  C6  <0> d          -0.017   1.377   0.010  0.00  0.00    -0.050 A 
ATOM      6  C7  <0> d           1.175   2.090   0.002  0.00  0.00     0.073 A 
ATOM      7  H4  <0> d           1.218  -1.761  -0.019  0.00  0.00     0.086 H 
ATOM      8  H5  <0> d          -0.926  -0.556   0.008  0.00  0.00     0.083 H 
ATOM      9  H6  <0> d          -0.960   1.904   0.017  0.00  0.00     0.087 H 
ENDROOT
BRANCH   2  10
ATOM     10  N1  <0> d           3.619  -0.658  -0.037  0.00  0.00    -0.291 NA
BRANCH  10  11
ATOM     11  C8  <0> d           3.754  -1.520   1.145  0.00  0.00    -0.029 C 
ATOM     12  H8  <0> d           2.943  -2.248   1.158  0.00  0.00     0.048 H 
ATOM     13  H9  <0> d           4.710  -2.041   1.108  0.00  0.00     0.048 H 
ATOM     14  H10 <0> d           3.707  -0.909   2.047  0.00  0.00     0.048 H 
ENDBRANCH  10  11
BRANCH  10  15
ATOM     15  C9  <0> d           3.771  -1.435  -1.274  0.00  0.00    -0.029 C 
ATOM     16  H11 <0> d           3.737  -0.762  -2.132  0.00  0.00     0.048 H 
ATOM     17  H12 <0> d           4.727  -1.958  -1.260  0.00  0.00     0.048 H 
ATOM     18  H13 <0> d           2.961  -2.160  -1.349  0.00  0.00     0.048 H 
ENDBRANCH  10  15
ENDBRANCH   2  10
BRANCH   1  19
ATOM     19  C1  <0> d           3.679   2.186  -0.023  0.00  0.00    -0.047 C 
ATOM     20  H1  <0> d           3.981   2.377  -1.053  0.00  0.00     0.033 H 
ATOM     21  H2  <0> d           3.542   3.133   0.497  0.00  0.00     0.033 H 
ATOM     22  H3  <0> d           4.452   1.604   0.480  0.00  0.00     0.033 H 
ENDBRANCH   1  19
BRANCH   6  23
ATOM     23  O1  <0> d           1.155   3.449   0.009  0.00  0.00    -0.360 OA
ATOM     24  H7  <0> d           1.157   3.837   0.894  0.00  0.00     0.217 HD
ENDBRANCH   6  23
TORSDOF 5
