REMARK  5 active torsions:
REMARK  status: ('A' for Active; 'I' for Inactive)
REMARK    1  A    between atoms: C1_1  and  C2_2 
REMARK    2  A    between atoms: C4_5  and  C10_15 
REMARK    3  A    between atoms: C5_7  and  C9_14 
REMARK    4  A    between atoms: C6_9  and  C8_12 
REMARK    5  A    between atoms: C8_12  and  O1_13 
ROOT
ATOM      1  C2  <0> d          -2.904   1.556   0.038  0.00  0.00    -0.057 C 
ATOM      2  H1  <0> d          -2.919   2.646   0.044  0.00  0.00     0.039 H 
ATOM      3  C3  <0> d          -2.164   1.050   1.278  0.00  0.00    -0.059 C 
ATOM      4  C4  <0> d          -0.729   1.579   1.267  0.00  0.00    -0.054 C 
ATOM      5  H2  <0> d          -0.744   2.669   1.273  0.00  0.00     0.040 H 
ATOM      6  C5  <0> d          -0.013   1.086   0.008  0.00  0.00    -0.049 C 
ATOM      7  H3  <0> d           0.002  -0.004   0.002  0.00  0.00     0.040 H 
ATOM      8  C6  <0> d          -0.753   1.593  -1.232  0.00  0.00    -0.030 C 
ATOM      9  H4  <0> d          -0.767   2.683  -1.226  0.00  0.00     0.043 H 
ATOM     10  C7  <0> d          -2.188   1.063  -1.221  0.00  0.00    -0.056 C 
ATOM     11  H8  <0> d          -2.149  -0.040   1.272  0.00  0.00     0.034 H 
ATOM     12  H9  <0> d          -2.674   1.401   2.175  0.00  0.00     0.034 H 
ATOM     13  H10 <0> d          -2.173  -0.027  -1.227  0.00  0.00     0.034 H 
ATOM     14  H11 <0> d          -2.715   1.424  -2.104  0.00  0.00     0.034 H 
ENDROOT
BRANCH   8  15
ATOM     15  C8  <0> d          -0.037   1.099  -2.490  0.00  0.00     0.020 C 
ATOM     16  H12 <0> d           1.010   1.402  -2.455  0.00  0.00     0.074 H 
ATOM     17  H13 <0> d          -0.099   0.012  -2.542  0.00  0.00     0.074 H 
BRANCH  15  18
ATOM     18  O1  <0> d          -0.658   1.667  -3.645  0.00  0.00    -0.400 OA
ATOM     19  H14 <0> d          -0.254   1.397  -4.482  0.00  0.00     0.209 HD
ENDBRANCH  15  18
ENDBRANCH   8  15
BRANCH   6  20
ATOM     20  C9  <0> d           1.423   1.615  -0.003  0.00  0.00    -0.072 C 
ATOM     21  H15 <0> d           1.950   1.254   0.880  0.00  0.00     0.028 H 
ATOM     22  H16 <0> d           1.933   1.264  -0.900  0.00  0.00     0.028 H 
ATOM     23  H17 <0> d           1.408   2.705   0.003  0.00  0.00     0.028 H 
ENDBRANCH   6  20
BRANCH   4  24
ATOM     24  C10 <0> d           0.011   1.072   2.506  0.00  0.00    -0.073 C 
ATOM     25  H18 <0> d           1.034   1.450   2.499  0.00  0.00     0.028 H 
ATOM     26  H19 <0> d          -0.499   1.424   3.403  0.00  0.00     0.028 H 
ATOM     27  H20 <0> d           0.026  -0.018   2.500  0.00  0.00     0.028 H 
ENDBRANCH   4  24
BRANCH   1  28
ATOM     28  C1  <0> d          -4.340   1.027   0.049  0.00  0.00    -0.073 C 
ATOM     29  H5  <0> d          -4.850   1.378   0.946  0.00  0.00     0.028 H 
ATOM     30  H6  <0> d          -4.867   1.388  -0.834  0.00  0.00     0.028 H 
ATOM     31  H7  <0> d          -4.325  -0.063   0.043  0.00  0.00     0.028 H 
ENDBRANCH   1  28
TORSDOF 5
