REMARK  3 active torsions:
REMARK  status: ('A' for Active; 'I' for Inactive)
REMARK    1  A    between atoms: C2_2  and  C3_3 
REMARK    2  A    between atoms: C3_3  and  O1_4 
REMARK    3  A    between atoms: O1_4  and  C4_5 
ROOT
ATOM      1  C4  <0> d          -0.017   1.397   0.010  0.00  0.00     0.089 A 
ATOM      2  C5  <0> d           1.178   2.101   0.002  0.00  0.00    -0.049 A 
ATOM      3  C6  <0> d           2.381   1.422  -0.013  0.00  0.00    -0.080 A 
ATOM      4  C7  <0> d           2.404   0.037  -0.021  0.00  0.00    -0.081 A 
ATOM      5  C8  <0> d           1.226  -0.678  -0.013  0.00  0.00    -0.060 A 
ATOM      6  C9  <0> d           0.002  -0.004   0.002  0.00  0.00     0.077 A 
ATOM      7  C10 <0> d          -1.226  -0.741   0.009  0.00  0.00     0.102 C 
ATOM      8  N1  <0> d          -2.200  -1.326   0.015  0.00  0.00    -0.191 NA
ATOM      9  H6  <0> d           1.168   3.181   0.008  0.00  0.00     0.087 H 
ATOM     10  H7  <0> d           3.309   1.975  -0.019  0.00  0.00     0.083 H 
ATOM     11  H8  <0> d           3.349  -0.484  -0.033  0.00  0.00     0.083 H 
ATOM     12  H9  <0> d           1.249  -1.758  -0.020  0.00  0.00     0.086 H 
ENDROOT
BRANCH   1  13
ATOM     13  O1  <0> d          -1.200   2.063   0.019  0.00  0.00    -0.346 OA
BRANCH  13  14
ATOM     14  C3  <0> d          -1.141   3.491   0.026  0.00  0.00     0.041 C 
ATOM     15  H4  <0> d          -0.608   3.828   0.916  0.00  0.00     0.081 H 
ATOM     16  H5  <0> d          -0.616   3.837  -0.864  0.00  0.00     0.081 H 
BRANCH  14  17
ATOM     17  C2  <0> d          -2.539   4.051   0.036  0.00  0.00    -0.089 C 
ATOM     18  C1  <0> d          -2.845   5.035   0.845  0.00  0.00    -0.123 C 
ATOM     19  H1  <0> d          -2.095   5.445   1.505  0.00  0.00     0.066 H 
ATOM     20  H2  <0> d          -3.847   5.437   0.852  0.00  0.00     0.066 H 
ATOM     21  H3  <0> d          -3.290   3.642  -0.624  0.00  0.00     0.078 H 
ENDBRANCH  14  17
ENDBRANCH  13  14
ENDBRANCH   1  13
TORSDOF 3
