REMARK  5 active torsions:
REMARK  status: ('A' for Active; 'I' for Inactive)
REMARK    1  A    between atoms: C1_1  and  C2_2 
REMARK    2  A    between atoms: C2_2  and  C3_3 
REMARK    3  A    between atoms: C2_2  and  C4_4 
REMARK    4  A    between atoms: C4_4  and  C5_5 
REMARK    5  A    between atoms: C8_8  and  N1_11 
ROOT
ATOM      1  C5  <0> d           1.208  -0.681  -0.013  0.00  0.00    -0.058 A 
ATOM      2  C6  <0> d           0.002  -0.004   0.002  0.00  0.00    -0.075 A 
ATOM      3  C7  <0> d          -0.017   1.377   0.010  0.00  0.00    -0.057 A 
ATOM      4  C8  <0> d           1.178   2.086   0.002  0.00  0.00     0.025 A 
ATOM      5  C9  <0> d           2.387   1.403  -0.012  0.00  0.00    -0.057 A 
ATOM      6  C10 <0> d           2.399   0.022  -0.020  0.00  0.00    -0.075 A 
ATOM      7  H10 <0> d          -0.926  -0.556   0.008  0.00  0.00     0.084 H 
ATOM      8  H11 <0> d          -0.959   1.905   0.017  0.00  0.00     0.086 H 
ATOM      9  H12 <0> d           3.318   1.952  -0.018  0.00  0.00     0.086 H 
ATOM     10  H13 <0> d           3.339  -0.509  -0.032  0.00  0.00     0.084 H 
ENDROOT
BRANCH   1  11
ATOM     11  C4  <0> d           1.224  -2.188  -0.021  0.00  0.00    -0.038 C 
ATOM     12  H8  <0> d           2.123  -2.544   0.482  0.00  0.00     0.040 H 
ATOM     13  H9  <0> d           0.344  -2.563   0.499  0.00  0.00     0.040 H 
BRANCH  11  14
ATOM     14  C2  <0> d           1.216  -2.690  -1.467  0.00  0.00    -0.057 C 
ATOM     15  H4  <0> d           2.048  -2.243  -2.011  0.00  0.00     0.039 H 
BRANCH  14  16
ATOM     16  C1  <0> d           1.359  -4.213  -1.478  0.00  0.00    -0.073 C 
ATOM     17  H1  <0> d           0.527  -4.660  -0.933  0.00  0.00     0.028 H 
ATOM     18  H2  <0> d           1.353  -4.571  -2.507  0.00  0.00     0.028 H 
ATOM     19  H3  <0> d           2.298  -4.494  -1.001  0.00  0.00     0.028 H 
ENDBRANCH  14  16
BRANCH  14  20
ATOM     20  C3  <0> d          -0.102  -2.296  -2.136  0.00  0.00    -0.073 C 
ATOM     21  H5  <0> d          -0.203  -1.210  -2.128  0.00  0.00     0.028 H 
ATOM     22  H6  <0> d          -0.108  -2.654  -3.166  0.00  0.00     0.028 H 
ATOM     23  H7  <0> d          -0.934  -2.743  -1.591  0.00  0.00     0.028 H 
ENDBRANCH  14  20
ENDBRANCH  11  14
ENDBRANCH   1  11
BRANCH   4  24
ATOM     24  N1  <0> d           1.162   3.483   0.010  0.00  0.00    -0.399 N 
ATOM     25  H14 <0> d           0.317   3.958   0.020  0.00  0.00     0.156 HD
ATOM     26  H15 <0> d           1.997   3.977   0.004  0.00  0.00     0.156 HD
ENDBRANCH   4  24
TORSDOF 5
