REMARK  4 active torsions:
REMARK  status: ('A' for Active; 'I' for Inactive)
REMARK    1  A    between atoms: C1_1  and  C2_2 
REMARK    2  A    between atoms: C4_5  and  C5_7 
REMARK    3  A    between atoms: C5_7  and  O2_9 
REMARK    4  A    between atoms: O2_9  and  C6_10 
ROOT
ATOM      1  C2  <0> d           0.002  -0.004   0.002  0.00  0.00     0.071 A 
ATOM      2  N1  <0> d           0.009  -0.811  -1.034  0.00  0.00    -0.257 NA
ATOM      3  C3  <0> d           0.027  -2.112  -0.893  0.00  0.00     0.025 A 
ATOM      4  C4  <0> d           0.039  -2.589   0.410  0.00  0.00     0.099 A 
ATOM      5  S1  <0> d           0.029  -1.052   1.319  0.00  0.00    -0.068 SA
ATOM      6  H4  <0> d           0.033  -2.778  -1.744  0.00  0.00     0.117 H 
ENDROOT
BRANCH   4   7
ATOM      7  C5  <0> d           0.059  -3.969   0.903  0.00  0.00     0.301 C 
ATOM      8  O1  <0> d           0.068  -4.896   0.116  0.00  0.00    -0.259 OA
BRANCH   7   9
ATOM      9  O2  <0> d           0.067  -4.211   2.230  0.00  0.00    -0.322 OA
BRANCH   9  10
ATOM     10  C6  <0> d           0.087  -5.580   2.639  0.00  0.00     0.013 C 
ATOM     11  H5  <0> d          -0.798  -6.087   2.255  0.00  0.00     0.067 H 
ATOM     12  H6  <0> d           0.982  -6.064   2.248  0.00  0.00     0.067 H 
ATOM     13  H7  <0> d           0.092  -5.633   3.728  0.00  0.00     0.067 H 
ENDBRANCH   9  10
ENDBRANCH   7   9
ENDBRANCH   4   7
BRANCH   1  14
ATOM     14  C1  <0> d          -0.018   1.503   0.010  0.00  0.00    -0.029 C 
ATOM     15  H1  <0> d           1.004   1.880   0.003  0.00  0.00     0.036 H 
ATOM     16  H2  <0> d          -0.545   1.864  -0.873  0.00  0.00     0.036 H 
ATOM     17  H3  <0> d          -0.529   1.854   0.907  0.00  0.00     0.036 H 
ENDBRANCH   1  14
TORSDOF 4
