REMARK  3 active torsions:
REMARK  status: ('A' for Active; 'I' for Inactive)
REMARK    1  A    between atoms: C3_3  and  N2_10 
REMARK    2  A    between atoms: C4_4  and  N1_9 
REMARK    3  A    between atoms: C6_6  and  C7_7 
ROOT
ATOM      1  C1  <0> d           1.239  -2.059  -0.020  0.00  0.00    -0.064 A 
ATOM      2  C2  <0> d           1.215  -0.681  -0.013  0.00  0.00    -0.054 A 
ATOM      3  C3  <0> d           0.002  -0.004   0.002  0.00  0.00     0.052 A 
ATOM      4  C4  <0> d          -1.200  -0.719   0.015  0.00  0.00     0.053 A 
ATOM      5  C5  <0> d          -1.181  -2.100   0.003  0.00  0.00    -0.039 A 
ATOM      6  C6  <0> d           0.042  -2.779  -0.012  0.00  0.00     0.043 A 
ATOM      7  H1  <0> d           2.184  -2.582  -0.031  0.00  0.00     0.085 H 
ATOM      8  H2  <0> d           2.142  -0.127  -0.019  0.00  0.00     0.087 H 
ATOM      9  H3  <0> d          -2.108  -2.653   0.009  0.00  0.00     0.088 H 
ENDROOT
BRANCH   3  10
ATOM     10  N2  <0> d          -0.017   1.389   0.010  0.00  0.00    -0.397 N 
ATOM     11  H6  <0> d           0.817   1.885   0.004  0.00  0.00     0.156 HD
ATOM     12  H7  <0> d          -0.863   1.862   0.016  0.00  0.00     0.156 HD
ENDBRANCH   3  10
BRANCH   4  13
ATOM     13  N1  <0> d          -2.421  -0.034   0.037  0.00  0.00    -0.397 N 
ATOM     14  H4  <0> d          -2.434   0.936   0.042  0.00  0.00     0.156 HD
ATOM     15  H5  <0> d          -3.255  -0.530   0.046  0.00  0.00     0.156 HD
ENDBRANCH   4  13
BRANCH   6  16
ATOM     16  C7  <0> d           0.067  -4.253  -0.020  0.00  0.00     0.209 C 
ATOM     17  O1  <0> d          -0.975  -4.878  -0.013  0.00  0.00    -0.644 OA
ATOM     18  O2  <0> d           1.245  -4.907  -0.034  0.00  0.00    -0.644 OA
ENDBRANCH   6  16
TORSDOF 3
