REMARK  3 active torsions:
REMARK  status: ('A' for Active; 'I' for Inactive)
REMARK    1  A    between atoms: C4_4  and  C7_7 
REMARK    2  A    between atoms: C7_7  and  O1_8 
REMARK    3  A    between atoms: O1_8  and  C8_9 
ROOT
ATOM      1  C8  <0> d           0.042  -1.913   1.452  0.00  0.00     0.098 C 
ATOM      2  C9  <0> d           0.060  -2.300   2.872  0.00  0.00     0.085 C 
ATOM      3  N1  <0> d           0.075  -2.599   3.967  0.00  0.00    -0.195 NA
ATOM      4  H8  <0> d          -0.847  -2.325   0.974  0.00  0.00     0.097 H 
ATOM      5  H9  <0> d           0.932  -2.301   0.957  0.00  0.00     0.097 H 
ENDROOT
BRANCH   1   6
ATOM      6  O1  <0> d           0.021  -0.488   1.347  0.00  0.00    -0.373 OA
BRANCH   6   7
ATOM      7  C7  <0> d           0.002  -0.004   0.002  0.00  0.00     0.044 C 
ATOM      8  H6  <0> d          -0.888  -0.377  -0.505  0.00  0.00     0.081 H 
ATOM      9  H7  <0> d           0.892  -0.352  -0.522  0.00  0.00     0.081 H 
BRANCH   7  10
ATOM     10  C4  <0> d          -0.018   1.503   0.010  0.00  0.00    -0.035 A 
ATOM     11  C3  <0> d           1.169   2.210   0.003  0.00  0.00    -0.075 A 
ATOM     12  C2  <0> d           1.151   3.592   0.010  0.00  0.00    -0.082 A 
ATOM     13  H3  <0> d           2.112   1.683  -0.009  0.00  0.00     0.084 H 
ATOM     14  C1  <0> d          -0.056   4.267   0.025  0.00  0.00    -0.083 A 
ATOM     15  H2  <0> d           2.078   4.145   0.004  0.00  0.00     0.083 H 
ATOM     16  C6  <0> d          -1.244   3.560   0.032  0.00  0.00    -0.082 A 
ATOM     17  H1  <0> d          -0.070   5.347   0.031  0.00  0.00     0.083 H 
ATOM     18  C5  <0> d          -1.225   2.178   0.020  0.00  0.00    -0.075 A 
ATOM     19  H5  <0> d          -2.186   4.087   0.044  0.00  0.00     0.083 H 
ATOM     20  H4  <0> d          -2.153   1.625   0.021  0.00  0.00     0.084 H 
ENDBRANCH   7  10
ENDBRANCH   6   7
ENDBRANCH   1   6
TORSDOF 3
