REMARK  5 active torsions:
REMARK  status: ('A' for Active; 'I' for Inactive)
REMARK    1  A    between atoms: C1_1  and  C2_2 
REMARK    2  A    between atoms: C3_3  and  C4_4 
REMARK    3  A    between atoms: C4_4  and  C5_5 
REMARK    4  A    between atoms: C5_5  and  C6_6 
REMARK    5  A    between atoms: C7_7  and  C8_8 
ROOT
ATOM      1  C4  <0> d          -1.103  -2.181   0.001  0.00  0.00    -0.047 C 
ATOM      2  H6  <0> d          -1.541  -2.546  -0.928  0.00  0.00     0.039 H 
ATOM      3  H7  <0> d          -0.074  -2.531   0.079  0.00  0.00     0.039 H 
ENDROOT
BRANCH   1   4
ATOM      4  C3  <0> d          -1.123  -0.674   0.009  0.00  0.00    -0.106 C 
ATOM      5  C2  <0> d           0.002  -0.004   0.002  0.00  0.00    -0.110 C 
ATOM      6  H4  <0> d           0.945  -0.531  -0.010  0.00  0.00     0.075 H 
ATOM      7  H5  <0> d          -2.066  -0.147   0.021  0.00  0.00     0.076 H 
BRANCH   5   8
ATOM      8  C1  <0> d          -0.018   1.503   0.010  0.00  0.00    -0.060 C 
ATOM      9  H1  <0> d           1.004   1.880   0.003  0.00  0.00     0.032 H 
ATOM     10  H2  <0> d          -0.545   1.864  -0.873  0.00  0.00     0.032 H 
ATOM     11  H3  <0> d          -0.529   1.854   0.907  0.00  0.00     0.032 H 
ENDBRANCH   5   8
ENDBRANCH   1   4
BRANCH   1  12
ATOM     12  C5  <0> d          -1.912  -2.709   1.188  0.00  0.00    -0.047 C 
ATOM     13  H8  <0> d          -1.474  -2.345   2.117  0.00  0.00     0.039 H 
ATOM     14  H9  <0> d          -2.941  -2.359   1.110  0.00  0.00     0.039 H 
BRANCH  12  15
ATOM     15  C6  <0> d          -1.892  -4.216   1.179  0.00  0.00    -0.106 C 
ATOM     16  C7  <0> d          -1.485  -4.871   2.238  0.00  0.00    -0.110 C 
ATOM     17  H11 <0> d          -1.164  -4.332   3.117  0.00  0.00     0.075 H 
ATOM     18  H10 <0> d          -2.212  -4.755   0.300  0.00  0.00     0.076 H 
BRANCH  16  19
ATOM     19  C8  <0> d          -1.464  -6.378   2.230  0.00  0.00    -0.060 C 
ATOM     20  H12 <0> d          -1.099  -6.742   3.190  0.00  0.00     0.032 H 
ATOM     21  H13 <0> d          -2.473  -6.754   2.059  0.00  0.00     0.032 H 
ATOM     22  H14 <0> d          -0.806  -6.728   1.434  0.00  0.00     0.032 H 
ENDBRANCH  16  19
ENDBRANCH  12  15
ENDBRANCH   1  12
TORSDOF 5
