REMARK  4 active torsions:
REMARK  status: ('A' for Active; 'I' for Inactive)
REMARK    1  A    between atoms: C1_1  and  C2_2 
REMARK    2  A    between atoms: C2_2  and  C3_3 
REMARK    3  A    between atoms: C2_2  and  N1_4 
REMARK    4  A    between atoms: C7_8  and  O2_11 
ROOT
ATOM      1  N1  <0> d           2.340   1.444  -0.013  0.00  0.00    -0.318 N 
ATOM      2  C4  <0> d           1.145   2.091   0.002  0.00  0.00    -0.017 A 
ATOM      3  C5  <0> d          -0.017   1.399   0.010  0.00  0.00    -0.065 A 
ATOM      4  C6  <0> d           0.002  -0.004   0.002  0.00  0.00    -0.044 A 
ATOM      5  C7  <0> d           1.203  -0.655  -0.013  0.00  0.00     0.134 A 
ATOM      6  C8  <0> d           2.395   0.098  -0.020  0.00  0.00     0.281 A 
ATOM      7  O1  <0> d           3.476  -0.469  -0.034  0.00  0.00    -0.265 OA
ATOM      8  H8  <0> d           1.122   3.171   0.008  0.00  0.00     0.111 H 
ATOM      9  H9  <0> d          -0.960   1.925   0.017  0.00  0.00     0.085 H 
ATOM     10  H10 <0> d          -0.922  -0.563   0.007  0.00  0.00     0.088 H 
ENDROOT
BRANCH   1  11
ATOM     11  C2  <0> d           3.583   2.219  -0.020  0.00  0.00     0.012 C 
ATOM     12  H4  <0> d           4.415   1.499  -0.032  0.00  0.00     0.072 H 
BRANCH  11  13
ATOM     13  C1  <0> d           3.623   3.108  -1.265  0.00  0.00    -0.057 C 
ATOM     14  H1  <0> d           3.578   2.479  -2.166  0.00  0.00     0.030 H 
ATOM     15  H2  <0> d           4.556   3.690  -1.270  0.00  0.00     0.030 H 
ATOM     16  H3  <0> d           2.763   3.794  -1.253  0.00  0.00     0.030 H 
ENDBRANCH  11  13
BRANCH  11  17
ATOM     17  C3  <0> d           3.646   3.095   1.234  0.00  0.00    -0.057 C 
ATOM     18  H5  <0> d           3.617   2.456   2.129  0.00  0.00     0.030 H 
ATOM     19  H6  <0> d           2.786   3.780   1.245  0.00  0.00     0.030 H 
ATOM     20  H7  <0> d           4.579   3.677   1.228  0.00  0.00     0.030 H 
ENDBRANCH  11  17
ENDBRANCH   1  11
BRANCH   5  21
ATOM     21  O2  <0> d           1.248  -2.015  -0.020  0.00  0.00    -0.356 OA
ATOM     22  H11 <0> d           2.219  -2.533  -0.032  0.00  0.00     0.218 HD
ENDBRANCH   5  21
TORSDOF 4
