REMARK  2 active torsions:
REMARK  status: ('A' for Active; 'I' for Inactive)
REMARK    1  A    between atoms: C1_1  and  C2_2 
REMARK    2  A    between atoms: C2_2  and  C8_13 
ROOT
ATOM      1  C2  <0> d          -3.366   0.064  -0.390  0.00  0.00     0.158 C 
ATOM      2  O1  <0> d          -2.842   0.417   0.891  0.00  0.00    -0.348 OA
ATOM      3  C3  <0> d          -2.236   1.717   0.788  0.00  0.00     0.074 C 
ATOM      4  H1  <0> d          -2.826   2.431   1.383  0.00  0.00     0.088 H 
ATOM      5  C4  <0> d          -0.766   1.599   1.249  0.00  0.00    -0.032 C 
ATOM      6  C5  <0> d          -0.013   1.086   0.008  0.00  0.00    -0.005 C 
ATOM      7  C6  <0> d          -0.776   1.603  -1.191  0.00  0.00     0.158 C 
ATOM      8  O2  <0> d          -0.354   1.688  -2.320  0.00  0.00    -0.295 OA
ATOM      9  C7  <0> d          -2.156   1.993  -0.730  0.00  0.00     0.124 C 
ATOM     10  H2  <0> d          -2.362   3.023  -1.055  0.00  0.00     0.099 H 
ATOM     11  O3  <0> d          -3.151   1.139  -1.308  0.00  0.00    -0.341 OA
ATOM     12  H6  <0> d          -0.402   2.586   1.571  0.00  0.00     0.037 H 
ATOM     13  H7  <0> d          -0.701   0.892   2.089  0.00  0.00     0.037 H 
ATOM     14  H8  <0> d           1.017   1.472   0.019  0.00  0.00     0.044 H 
ATOM     15  H9  <0> d           0.008  -0.014   0.020  0.00  0.00     0.044 H 
ENDROOT
BRANCH   1  16
ATOM     16  C1  <0> d          -2.659  -1.193  -0.902  0.00  0.00    -0.025 C 
ATOM     17  H3  <0> d          -2.825  -2.020  -0.197  0.00  0.00     0.035 H 
ATOM     18  H4  <0> d          -1.581  -0.996  -0.990  0.00  0.00     0.035 H 
ATOM     19  H5  <0> d          -3.064  -1.465  -1.888  0.00  0.00     0.035 H 
ENDBRANCH   1  16
BRANCH   1  20
ATOM     20  C8  <0> d          -4.867  -0.211  -0.269  0.00  0.00    -0.025 C 
ATOM     21  H10 <0> d          -5.376   0.692   0.100  0.00  0.00     0.035 H 
ATOM     22  H11 <0> d          -5.032  -1.038   0.437  0.00  0.00     0.035 H 
ATOM     23  H12 <0> d          -5.271  -0.483  -1.255  0.00  0.00     0.035 H 
ENDBRANCH   1  20
TORSDOF 2
