REMARK  2 active torsions:
REMARK  status: ('A' for Active; 'I' for Inactive)
REMARK    1  A    between atoms: C4_6  and  C5_8 
REMARK    2  A    between atoms: C5_8  and  C6_9 
ROOT
ATOM      1  C1  <0> d          -3.829   1.664   0.155  0.00  0.00    -0.032 C 
ATOM      2  C2  <0> d          -4.581   1.257  -1.132  0.00  0.00     0.018 C 
ATOM      3  C3  <0> d          -3.803   0.053  -1.632  0.00  0.00     0.259 C 
ATOM      4  O1  <0> d          -4.249  -0.882  -2.254  0.00  0.00    -0.265 OA
ATOM      5  O2  <0> d          -2.523   0.223  -1.253  0.00  0.00    -0.316 OA
ATOM      6  C4  <0> d          -2.479   0.930   0.019  0.00  0.00     0.057 C 
ATOM      7  H1  <0> d          -2.354   0.221   0.838  0.00  0.00     0.085 H 
ATOM      8  H2  <0> d          -4.366   1.321   1.040  0.00  0.00     0.037 H 
ATOM      9  H3  <0> d          -3.679   2.743   0.189  0.00  0.00     0.037 H 
ATOM     10  H4  <0> d          -5.610   0.981  -0.904  0.00  0.00     0.048 H 
ATOM     11  H5  <0> d          -4.554   2.065  -1.863  0.00  0.00     0.048 H 
ENDROOT
BRANCH   6  12
ATOM     12  C5  <0> d          -1.329   1.940   0.019  0.00  0.00     0.040 C 
ATOM     13  H6  <0> d          -1.391   2.561   0.913  0.00  0.00     0.053 H 
ATOM     14  H7  <0> d          -1.400   2.570  -0.867  0.00  0.00     0.053 H 
BRANCH  12  15
ATOM     15  C6  <0> d          -0.014   1.204   0.009  0.00  0.00     0.175 C 
ATOM     16  O3  <0> d           0.002  -0.004   0.002  0.00  0.00    -0.648 OA
ATOM     17  O4  <0> d           1.139   1.891   0.001  0.00  0.00    -0.648 OA
ENDBRANCH  12  15
ENDBRANCH   6  12
TORSDOF 2
