REMARK  0 active torsions:
REMARK  status: ('A' for Active; 'I' for Inactive)
ROOT
ATOM      1  C1  <0> d          -0.016   1.361   0.009  0.00  0.00    -0.024 A 
ATOM      2  C2  <0> d           0.002  -0.004   0.002  0.00  0.00     0.072 A 
ATOM      3  C3  <0> d           1.315  -0.626  -0.014  0.00  0.00     0.072 A 
ATOM      4  C4  <0> d           2.382   0.224  -0.019  0.00  0.00    -0.024 A 
ATOM      5  S1  <0> d           1.657   1.795  -0.004  0.00  0.00    -0.111 SA
ATOM      6  C5  <0> d           1.479  -2.048  -0.023  0.00  0.00     0.101 C 
ATOM      7  N1  <0> d           1.609  -3.177  -0.029  0.00  0.00    -0.191 NA
ATOM      8  C6  <0> d          -1.203  -0.778   0.009  0.00  0.00     0.101 C 
ATOM      9  N2  <0> d          -2.159  -1.392   0.014  0.00  0.00    -0.191 NA
ATOM     10  H1  <0> d          -0.875   2.016   0.017  0.00  0.00     0.097 H 
ATOM     11  H2  <0> d           3.433  -0.025  -0.030  0.00  0.00     0.097 H 
ENDROOT
TORSDOF 0
