REMARK  5 active torsions:
REMARK  status: ('A' for Active; 'I' for Inactive)
REMARK    1  A    between atoms: C1_1  and  C2_2 
REMARK    2  A    between atoms: C2_2  and  O1_3 
REMARK    3  A    between atoms: O1_3  and  C3_4 
REMARK    4  A    between atoms: C3_4  and  C4_6 
REMARK    5  A    between atoms: C3_4  and  C5_7 
ROOT
ATOM      1  C3  <0> d          -0.068   1.127   2.404  0.00  0.00     0.118 C 
ATOM      2  H1  <0> d           0.397   0.152   2.194  0.00  0.00     0.099 H 
ENDROOT
BRANCH   1   3
ATOM      3  O1  <0> d          -0.682   1.547   1.184  0.00  0.00    -0.376 OA
BRANCH   3   4
ATOM      4  C2  <0> d          -0.013   1.086   0.008  0.00  0.00     0.017 C 
ATOM      5  H5  <0> d           0.002  -0.014   0.002  0.00  0.00     0.073 H 
ATOM      6  H6  <0> d           1.019   1.466   0.000  0.00  0.00     0.073 H 
BRANCH   4   7
ATOM      7  C1  <0> d          -0.753   1.593  -1.232  0.00  0.00    -0.056 C 
ATOM      8  H2  <0> d          -0.238   1.238  -2.136  0.00  0.00     0.030 H 
ATOM      9  H3  <0> d          -0.768   2.693  -1.225  0.00  0.00     0.030 H 
ATOM     10  H4  <0> d          -1.785   1.212  -1.224  0.00  0.00     0.030 H 
ENDBRANCH   4   7
ENDBRANCH   3   4
ENDBRANCH   1   3
BRANCH   1  11
ATOM     11  C4  <0> d           0.968   2.166   2.838  0.00  0.00    -0.043 C 
ATOM     12  H7  <0> d           1.440   1.842   3.777  0.00  0.00     0.031 H 
ATOM     13  H8  <0> d           0.472   3.135   2.992  0.00  0.00     0.031 H 
ATOM     14  H9  <0> d           1.736   2.266   2.057  0.00  0.00     0.031 H 
ENDBRANCH   1  11
BRANCH   1  15
ATOM     15  C5  <0> d          -1.120   0.989   3.474  0.00  0.00     0.202 C 
ATOM     16  O2  <0> d          -2.277   1.226   3.218  0.00  0.00    -0.646 OA
ATOM     17  O3  <0> d          -0.772   0.603   4.712  0.00  0.00    -0.646 OA
ENDBRANCH   1  15
TORSDOF 5
