REMARK  1 active torsions:
REMARK  status: ('A' for Active; 'I' for Inactive)
REMARK    1  A    between atoms: C4_5  and  O1_11 
ROOT
ATOM      1  C1  <0> d           1.524   1.863  -0.003  0.00  0.00    -0.050 C 
ATOM      2  C2  <0> d           1.791   1.034   1.307  0.00  0.00    -0.035 C 
ATOM      3  H1  <0> d           2.811   1.044   1.692  0.00  0.00     0.046 H 
ATOM      4  C3  <0> d           1.228  -0.359   0.880  0.00  0.00    -0.034 C 
ATOM      5  C4  <0> d           0.002  -0.004   0.002  0.00  0.00     0.043 C 
ATOM      6  H2  <0> d           0.136  -0.380  -1.012  0.00  0.00     0.084 H 
ATOM      7  C5  <0> d          -0.019   1.558   0.011  0.00  0.00    -0.013 C 
ATOM      8  H3  <0> d          -0.619   2.037  -0.763  0.00  0.00     0.050 H 
ATOM      9  C6  <0> d          -0.344   1.918   1.465  0.00  0.00    -0.100 C 
ATOM     10  C7  <0> d           0.699   1.617   2.212  0.00  0.00    -0.102 C 
ATOM     11  H4  <0> d           2.025   1.441  -0.873  0.00  0.00     0.035 H 
ATOM     12  H5  <0> d           1.741   2.923   0.123  0.00  0.00     0.035 H 
ATOM     13  H6  <0> d           0.920  -0.932   1.754  0.00  0.00     0.037 H 
ATOM     14  H7  <0> d           1.966  -0.912   0.300  0.00  0.00     0.037 H 
ATOM     15  H8  <0> d          -1.271   2.347   1.818  0.00  0.00     0.077 H 
ATOM     16  H9  <0> d           0.772   1.756   3.281  0.00  0.00     0.076 H 
ENDROOT
BRANCH   5  17
ATOM     17  O1  <0> d          -1.198  -0.526   0.576  0.00  0.00    -0.395 OA
ATOM     18  H10 <0> d          -1.237  -1.492   0.595  0.00  0.00     0.210 HD
ENDBRANCH   5  17
TORSDOF 1
