REMARK  3 active torsions:
REMARK  status: ('A' for Active; 'I' for Inactive)
REMARK    1  A    between atoms: C1_1  and  C2_2 
REMARK    2  A    between atoms: C2_2  and  C3_4 
REMARK    3  A    between atoms: C8_9  and  N1_10 
ROOT
ATOM      1  C3  <0> d           1.222  -0.694  -0.119  0.00  0.00     0.035 A 
ATOM      2  C4  <0> d           1.226  -2.095  -0.110  0.00  0.00    -0.067 A 
ATOM      3  C5  <0> d           0.039  -2.784   0.003  0.00  0.00    -0.082 A 
ATOM      4  C6  <0> d          -1.162  -2.099   0.107  0.00  0.00    -0.081 A 
ATOM      5  C7  <0> d          -1.185  -0.720   0.104  0.00  0.00    -0.057 A 
ATOM      6  C8  <0> d           0.001  -0.004  -0.014  0.00  0.00     0.039 A 
ATOM      7  H4  <0> d           2.158  -2.634  -0.190  0.00  0.00     0.085 H 
ATOM      8  H5  <0> d           0.044  -3.864   0.010  0.00  0.00     0.083 H 
ATOM      9  H6  <0> d          -2.087  -2.650   0.195  0.00  0.00     0.083 H 
ATOM     10  H7  <0> d          -2.125  -0.195   0.190  0.00  0.00     0.086 H 
ENDROOT
BRANCH   1  11
ATOM     11  C2  <0> d           2.481   0.047  -0.238  0.00  0.00     0.158 C 
ATOM     12  O1  <0> d           2.485   1.256  -0.141  0.00  0.00    -0.293 OA
BRANCH  11  13
ATOM     13  C1  <0> d           3.771  -0.693  -0.480  0.00  0.00    -0.017 C 
ATOM     14  H1  <0> d           3.708  -1.201  -1.339  0.00  0.00     0.038 H 
ATOM     15  H2  <0> d           4.594   0.019  -0.539  0.00  0.00     0.038 H 
ATOM     16  H3  <0> d           3.951  -1.388   0.340  0.00  0.00     0.038 H 
ENDBRANCH  11  13
ENDBRANCH   1  11
BRANCH   6  17
ATOM     17  N1  <0> d          -0.020   1.383  -0.022  0.00  0.00    -0.398 N 
ATOM     18  H8  <0> d           0.813   1.880  -0.021  0.00  0.00     0.156 HD
ATOM     19  H9  <0> d          -0.867   1.855  -0.033  0.00  0.00     0.156 HD
ENDBRANCH   6  17
TORSDOF 3
