REMARK  9 active torsions:
REMARK  status: ('A' for Active; 'I' for Inactive)
REMARK    1  A    between atoms: C1_1  and  C2_2 
REMARK    2  A    between atoms: C2_2  and  C3_3 
REMARK    3  A    between atoms: C3_3  and  C4_4 
REMARK    4  A    between atoms: C4_4  and  C5_5 
REMARK    5  A    between atoms: C5_5  and  C6_6 
REMARK    6  A    between atoms: C6_6  and  C7_7 
REMARK    7  A    between atoms: C6_6  and  C8_9 
REMARK    8  A    between atoms: C7_7  and  O1_8 
REMARK    9  A    between atoms: C8_9  and  O2_10 
ROOT
ATOM      1  C5  <0> d           2.567   3.699  -0.271  0.00  0.00    -0.058 C 
ATOM      2  H10 <0> d           3.393   3.392   0.371  0.00  0.00     0.033 H 
ATOM      3  H11 <0> d           2.748   3.349  -1.287  0.00  0.00     0.033 H 
ENDROOT
BRANCH   1   4
ATOM      4  C4  <0> d           2.458   5.225  -0.269  0.00  0.00    -0.065 C 
ATOM      5  H8  <0> d           1.694   5.535  -0.980  0.00  0.00     0.033 H 
ATOM      6  H9  <0> d           2.187   5.568   0.730  0.00  0.00     0.033 H 
BRANCH   4   7
ATOM      7  C3  <0> d           3.804   5.832  -0.668  0.00  0.00    -0.065 C 
ATOM      8  H6  <0> d           4.569   5.522   0.043  0.00  0.00     0.033 H 
ATOM      9  H7  <0> d           4.076   5.489  -1.667  0.00  0.00     0.033 H 
BRANCH   7  10
ATOM     10  C2  <0> d           3.696   7.359  -0.666  0.00  0.00    -0.069 C 
ATOM     11  H4  <0> d           2.931   7.669  -1.378  0.00  0.00     0.032 H 
ATOM     12  H5  <0> d           3.424   7.702   0.332  0.00  0.00     0.032 H 
BRANCH  10  13
ATOM     13  C1  <0> d           5.041   7.966  -1.066  0.00  0.00    -0.077 C 
ATOM     14  H1  <0> d           4.964   9.054  -1.065  0.00  0.00     0.027 H 
ATOM     15  H2  <0> d           5.806   7.656  -0.354  0.00  0.00     0.027 H 
ATOM     16  H3  <0> d           5.313   7.623  -2.064  0.00  0.00     0.027 H 
ENDBRANCH  10  13
ENDBRANCH   7  10
ENDBRANCH   4   7
ENDBRANCH   1   4
BRANCH   1  17
ATOM     17  C6  <0> d           1.263   3.093   0.253  0.00  0.00    -0.013 C 
ATOM     18  H12 <0> d           1.030   3.522   1.228  0.00  0.00     0.046 H 
BRANCH  17  19
ATOM     19  C7  <0> d           0.128   3.403  -0.725  0.00  0.00     0.022 C 
ATOM     20  H13 <0> d           0.319   2.900  -1.673  0.00  0.00     0.074 H 
ATOM     21  H14 <0> d           0.073   4.479  -0.889  0.00  0.00     0.074 H 
BRANCH  19  22
ATOM     22  O1  <0> d          -1.109   2.940  -0.181  0.00  0.00    -0.400 OA
ATOM     23  H15 <0> d          -1.874   3.103  -0.749  0.00  0.00     0.209 HD
ENDBRANCH  19  22
ENDBRANCH  17  19
BRANCH  17  24
ATOM     24  C8  <0> d           1.422   1.578   0.387  0.00  0.00     0.022 C 
ATOM     25  H16 <0> d           0.466   1.136   0.668  0.00  0.00     0.074 H 
ATOM     26  H17 <0> d           1.749   1.161  -0.565  0.00  0.00     0.074 H 
BRANCH  24  27
ATOM     27  O2  <0> d           2.395   1.288   1.393  0.00  0.00    -0.400 OA
ATOM     28  H18 <0> d           2.548   0.343   1.532  0.00  0.00     0.209 HD
ENDBRANCH  24  27
ENDBRANCH  17  24
ENDBRANCH   1  17
TORSDOF 9
