REMARK  2 active torsions:
REMARK  status: ('A' for Active; 'I' for Inactive)
REMARK    1  A    between atoms: C1_1  and  C2_2 
REMARK    2  A    between atoms: C4_4  and  N2_9 
ROOT
ATOM      1  C2  <0> d           1.171   1.793   0.001  0.00  0.00    -0.035 A 
ATOM      2  C3  <0> d          -0.013   1.076   0.008  0.00  0.00    -0.032 A 
ATOM      3  C4  <0> d          -1.221   1.764   0.017  0.00  0.00     0.121 A 
ATOM      4  N1  <0> d          -1.243   3.088   0.029  0.00  0.00    -0.242 NA
ATOM      5  C5  <0> d          -0.131   3.799   0.023  0.00  0.00     0.026 A 
ATOM      6  C6  <0> d           1.104   3.181   0.008  0.00  0.00     0.057 A 
ATOM      7 Cl1  <0> d           2.559   4.128  -0.001  0.00  0.00    -0.082 Cl
ATOM      8  H4  <0> d           0.002  -0.004   0.002  0.00  0.00     0.090 H 
ATOM      9  H5  <0> d          -0.188   4.877   0.029  0.00  0.00     0.117 H 
ENDROOT
BRANCH   1  10
ATOM     10  C1  <0> d           2.501   1.085  -0.015  0.00  0.00    -0.049 C 
ATOM     11  H1  <0> d           2.337  -0.003  -0.019  0.00  0.00     0.033 H 
ATOM     12  H2  <0> d           3.076   1.366   0.879  0.00  0.00     0.033 H 
ATOM     13  H3  <0> d           3.060   1.375  -0.917  0.00  0.00     0.033 H 
ENDBRANCH   1  10
BRANCH   3  14
ATOM     14  N2  <0> d          -2.418   1.055   0.019  0.00  0.00    -0.384 N 
ATOM     15  H6  <0> d          -3.376   1.595   0.026  0.00  0.00     0.157 HD
ATOM     16  H7  <0> d          -2.405  -0.045   0.013  0.00  0.00     0.157 HD
ENDBRANCH   3  14
TORSDOF 2
