REMARK  1 active torsions:
REMARK  status: ('A' for Active; 'I' for Inactive)
REMARK    1  A    between atoms: C1_1  and  C2_2 
ROOT
ATOM      1  C2  <0> d          -1.727   5.600   0.049  0.00  0.00     0.006 A 
ATOM      2  C3  <0> d          -0.387   5.533   0.036  0.00  0.00    -0.050 A 
ATOM      3  C4  <0> d          -0.029   4.112   0.024  0.00  0.00    -0.007 A 
ATOM      4  C5  <0> d           1.183   3.418   0.009  0.00  0.00    -0.068 A 
ATOM      5  C6  <0> d           1.182   2.052   0.002  0.00  0.00    -0.045 A 
ATOM      6  C7  <0> d          -0.016   1.347   0.009  0.00  0.00     0.118 A 
ATOM      7  C8  <0> d          -1.224   2.014   0.019  0.00  0.00    -0.019 A 
ATOM      8  C9  <0> d          -1.244   3.405   0.032  0.00  0.00     0.045 A 
ATOM      9  N1  <0> d          -2.257   4.337   0.047  0.00  0.00    -0.359 N 
ATOM     10  H1  <0> d          -3.205   4.131   0.055  0.00  0.00     0.166 HD
ATOM     11  F1  <0> d           0.002  -0.004   0.002  0.00  0.00    -0.206 F 
ATOM     12  H5  <0> d           0.298   6.368   0.034  0.00  0.00     0.087 H 
ATOM     13  H6  <0> d           2.117   3.959   0.004  0.00  0.00     0.085 H 
ATOM     14  H7  <0> d           2.119   1.516  -0.010  0.00  0.00     0.088 H 
ATOM     15  H8  <0> d          -2.150   1.458   0.020  0.00  0.00     0.091 H 
ENDROOT
BRANCH   1  16
ATOM     16  C1  <0> d          -2.530   6.875   0.064  0.00  0.00    -0.037 C 
ATOM     17  H2  <0> d          -2.714   7.177   1.095  0.00  0.00     0.035 H 
ATOM     18  H3  <0> d          -1.975   7.659  -0.451  0.00  0.00     0.035 H 
ATOM     19  H4  <0> d          -3.482   6.711  -0.442  0.00  0.00     0.035 H 
ENDBRANCH   1  16
TORSDOF 1
