REMARK  1 active torsions:
REMARK  status: ('A' for Active; 'I' for Inactive)
REMARK    1  A    between atoms: C6_6  and  N1_7 
ROOT
ATOM      1  C1  <0> d          -0.017   1.384   0.010  0.00  0.00    -0.056 A 
ATOM      2  C2  <0> d           1.153   2.109   0.002  0.00  0.00    -0.054 A 
ATOM      3  C3  <0> d           2.406   1.472  -0.013  0.00  0.00     0.045 A 
ATOM      4  C4  <0> d           2.395   0.074  -0.020  0.00  0.00     0.030 A 
ATOM      5  C5  <0> d           1.230  -0.658  -0.013  0.00  0.00    -0.039 A 
ATOM      6  C6  <0> d           0.002  -0.004   0.002  0.00  0.00     0.027 A 
ATOM      7  S1  <0> d           4.108  -0.405  -0.039  0.00  0.00    -0.108 SA
ATOM      8  C7  <0> d           4.849   1.277  -0.037  0.00  0.00     0.038 A 
ATOM      9  N2  <0> d           3.645   2.119  -0.021  0.00  0.00    -0.380 N 
ATOM     10  H1  <0> d          -0.964   1.903   0.026  0.00  0.00     0.087 H 
ATOM     11  H2  <0> d           1.107   3.188   0.008  0.00  0.00     0.087 H 
ATOM     12  H3  <0> d           1.268  -1.737  -0.019  0.00  0.00     0.089 H 
ATOM     13  H6  <0> d           5.452   1.438   0.856  0.00  0.00     0.081 H 
ATOM     14  H7  <0> d           5.435   1.448  -0.940  0.00  0.00     0.081 H 
ATOM     15  H8  <0> d           3.708   3.087  -0.017  0.00  0.00     0.160 HD
ENDROOT
BRANCH   6  16
ATOM     16  N1  <0> d          -1.193  -0.733   0.010  0.00  0.00    -0.399 N 
ATOM     17  H4  <0> d          -2.045  -0.268   0.021  0.00  0.00     0.156 HD
ATOM     18  H5  <0> d          -1.170  -1.702   0.004  0.00  0.00     0.156 HD
ENDBRANCH   6  16
TORSDOF 1
