REMARK  0 active torsions:
REMARK  status: ('A' for Active; 'I' for Inactive)
ROOT
ATOM      1  C1  <0> d           1.207  -0.683  -0.013  0.00  0.00    -0.079 A 
ATOM      2  C2  <0> d           0.002  -0.004   0.002  0.00  0.00    -0.062 A 
ATOM      3  C3  <0> d          -0.017   1.389   0.010  0.00  0.00     0.057 A 
ATOM      4  C4  <0> d           1.203   2.096   0.002  0.00  0.00     0.013 A 
ATOM      5  C5  <0> d           1.555   3.513   0.005  0.00  0.00    -0.054 A 
ATOM      6  C6  <0> d           2.898   3.585  -0.008  0.00  0.00    -0.022 A 
ATOM      7  N1  <0> d           3.430   2.327  -0.019  0.00  0.00    -0.365 N 
ATOM      8  H1  <0> d           4.379   2.123  -0.030  0.00  0.00     0.165 HD
ATOM      9  C7  <0> d           2.419   1.391  -0.014  0.00  0.00     0.043 A 
ATOM     10  C8  <0> d           2.406   0.000  -0.021  0.00  0.00    -0.056 A 
ATOM     11  C9  <0> d          -1.262   2.095   0.019  0.00  0.00     0.100 C 
ATOM     12  N2  <0> d          -2.250   2.656   0.027  0.00  0.00    -0.191 NA
ATOM     13  H2  <0> d           1.210  -1.763  -0.018  0.00  0.00     0.083 H 
ATOM     14  H3  <0> d          -0.927  -0.555   0.008  0.00  0.00     0.085 H 
ATOM     15  H4  <0> d           0.867   4.346   0.015  0.00  0.00     0.087 H 
ATOM     16  H5  <0> d           3.470   4.501  -0.008  0.00  0.00     0.111 H 
ATOM     17  H6  <0> d           3.337  -0.547  -0.033  0.00  0.00     0.086 H 
ENDROOT
TORSDOF 0
