REMARK  4 active torsions:
REMARK  status: ('A' for Active; 'I' for Inactive)
REMARK    1  A    between atoms: C1_1  and  C2_2 
REMARK    2  A    between atoms: C2_2  and  C3_3 
REMARK    3  A    between atoms: C3_3  and  C4_5 
REMARK    4  A    between atoms: C7_8  and  C8_10 
ROOT
ATOM      1  C4  <0> d           1.331  -0.379  -0.013  0.00  0.00     0.121 A 
ATOM      2  C5  <0> d           0.002  -0.004   0.002  0.00  0.00    -0.044 A 
ATOM      3  C6  <0> d          -0.017   1.397   0.010  0.00  0.00    -0.052 A 
ATOM      4  C7  <0> d           1.270   1.815  -0.000  0.00  0.00     0.050 A 
ATOM      5  O2  <0> d           2.076   0.747  -0.014  0.00  0.00    -0.312 OA
ATOM      6  H6  <0> d          -0.855  -0.662   0.006  0.00  0.00     0.088 H 
ATOM      7  H7  <0> d          -0.895   2.026   0.018  0.00  0.00     0.087 H 
ENDROOT
BRANCH   1   8
ATOM      8  C3  <0> d           1.823  -1.703  -0.024  0.00  0.00     0.182 C 
ATOM      9  O1  <0> d           1.048  -2.639  -0.021  0.00  0.00    -0.290 OA
BRANCH   8  10
ATOM     10  C2  <0> d           3.309  -1.955  -0.040  0.00  0.00    -0.006 C 
ATOM     11  H4  <0> d           3.708  -1.542  -0.858  0.00  0.00     0.044 H 
ATOM     12  H5  <0> d           3.761  -1.514   0.848  0.00  0.00     0.044 H 
BRANCH  10  13
ATOM     13  C1  <0> d           3.570  -3.463  -0.050  0.00  0.00    -0.070 C 
ATOM     14  H1  <0> d           4.645  -3.645  -0.061  0.00  0.00     0.028 H 
ATOM     15  H2  <0> d           3.135  -3.913   0.842  0.00  0.00     0.028 H 
ATOM     16  H3  <0> d           3.118  -3.904  -0.938  0.00  0.00     0.028 H 
ENDBRANCH  10  13
ENDBRANCH   8  10
ENDBRANCH   1   8
BRANCH   4  17
ATOM     17  C8  <0> d           1.722   3.253   0.003  0.00  0.00    -0.031 C 
ATOM     18  H8  <0> d           1.841   3.594   1.032  0.00  0.00     0.036 H 
ATOM     19  H9  <0> d           2.675   3.335  -0.519  0.00  0.00     0.036 H 
ATOM     20  H10 <0> d           0.977   3.869  -0.500  0.00  0.00     0.036 H 
ENDBRANCH   4  17
TORSDOF 4
