REMARK  0 active torsions:
REMARK  status: ('A' for Active; 'I' for Inactive)
ROOT
ATOM      1  C1  <0> d          -0.801   3.585   0.028  0.00  0.00    -0.078 A 
ATOM      2  C2  <0> d           0.533   4.018   0.018  0.00  0.00    -0.067 A 
ATOM      3  C3  <0> d           1.540   3.115   0.003  0.00  0.00    -0.012 A 
ATOM      4  N1  <0> d           1.274   1.780  -0.001  0.00  0.00    -0.297 N 
ATOM      5  C4  <0> d          -0.016   1.327   0.009  0.00  0.00     0.134 A 
ATOM      6  C5  <0> d          -1.077   2.251   0.030  0.00  0.00    -0.038 A 
ATOM      7  N2  <0> d           0.002  -0.004   0.002  0.00  0.00    -0.240 NA
ATOM      8  C6  <0> d           1.254  -0.435  -0.012  0.00  0.00     0.041 A 
ATOM      9  C7  <0> d           2.092   0.667  -0.014  0.00  0.00     0.139 A 
ATOM     10  C8  <0> d           3.524   0.656  -0.027  0.00  0.00     0.119 C 
ATOM     11  N3  <0> d           4.660   0.647  -0.038  0.00  0.00    -0.190 NA
ATOM     12  H1  <0> d          -1.605   4.306   0.039  0.00  0.00     0.083 H 
ATOM     13  H2  <0> d           0.757   5.074   0.021  0.00  0.00     0.085 H 
ATOM     14  H3  <0> d           2.564   3.456  -0.005  0.00  0.00     0.112 H 
ATOM     15  H4  <0> d          -2.100   1.906   0.042  0.00  0.00     0.089 H 
ATOM     16  H5  <0> d           1.568  -1.469  -0.020  0.00  0.00     0.119 H 
ENDROOT
TORSDOF 0
