REMARK  0 active torsions:
REMARK  status: ('A' for Active; 'I' for Inactive)
ROOT
ATOM      1  C1  <0> d          -1.386   2.767  -1.343  0.00  0.00    -0.037 C 
ATOM      2  C2  <0> d          -2.564   2.256  -0.546  0.00  0.00    -0.106 C 
ATOM      3  C3  <0> d          -2.330   1.718   0.632  0.00  0.00    -0.105 C 
ATOM      4  C4  <0> d          -0.905   1.651   1.116  0.00  0.00    -0.030 C 
ATOM      5  C5  <0> d          -0.013   1.086   0.008  0.00  0.00     0.027 A 
ATOM      6  H1  <0> d           0.002  -0.004   0.002  0.00  0.00     0.074 H 
ATOM      7  C6  <0> d          -0.302   1.688  -1.367  0.00  0.00     0.046 A 
ATOM      8  H2  <0> d          -0.415   0.959  -2.169  0.00  0.00     0.058 H 
ATOM      9  C7  <0> d           1.091   2.233  -1.205  0.00  0.00     0.224 A 
ATOM     10  O1  <0> d           1.773   2.938  -1.919  0.00  0.00    -0.273 OA
ATOM     11  N1  <0> d           1.327   1.678  -0.002  0.00  0.00    -0.355 N 
ATOM     12  H3  <0> d          -0.993   3.670  -0.876  0.00  0.00     0.040 H 
ATOM     13  H4  <0> d          -1.703   2.989  -2.362  0.00  0.00     0.040 H 
ATOM     14  H5  <0> d          -3.570   2.331  -0.932  0.00  0.00     0.076 H 
ATOM     15  H6  <0> d          -3.139   1.335   1.236  0.00  0.00     0.076 H 
ATOM     16  H7  <0> d          -0.852   1.004   1.991  0.00  0.00     0.042 H 
ATOM     17  H8  <0> d          -0.563   2.652   1.382  0.00  0.00     0.042 H 
ATOM     18  H9  <0> d           2.079   1.672   0.611  0.00  0.00     0.162 HD
ENDROOT
TORSDOF 0
