REMARK  2 active torsions:
REMARK  status: ('A' for Active; 'I' for Inactive)
REMARK    1  A    between atoms: C3_3  and  O1_7 
REMARK    2  A    between atoms: O1_7  and  C6_8 
ROOT
ATOM      1  O1  <0> d          -2.843   2.969  -1.141  0.00  0.00    -0.373 OA
ENDROOT
BRANCH   1   2
ATOM      2  C3  <0> d          -2.213   1.808  -0.595  0.00  0.00     0.056 C 
ATOM      3  C2  <0> d          -0.806   1.621  -1.207  0.00  0.00    -0.035 C 
ATOM      4  C1  <0> d          -0.013   1.086   0.008  0.00  0.00    -0.048 C 
ATOM      5  H5  <0> d          -0.399   2.571  -1.552  0.00  0.00     0.037 H 
ATOM      6  H6  <0> d          -0.825   0.889  -2.015  0.00  0.00     0.037 H 
ATOM      7  C5  <0> d          -0.765   1.595   1.215  0.00  0.00    -0.104 C 
ATOM      8  H3  <0> d           0.002  -0.004   0.002  0.00  0.00     0.038 H 
ATOM      9  H4  <0> d           1.004   1.479   0.000  0.00  0.00     0.038 H 
ATOM     10  C4  <0> d          -1.968   1.989   0.885  0.00  0.00    -0.079 C 
ATOM     11  H8  <0> d          -0.362   1.629   2.217  0.00  0.00     0.076 H 
ATOM     12  H7  <0> d          -2.690   2.392   1.579  0.00  0.00     0.080 H 
ATOM     13  H1  <0> d          -2.826   0.924  -0.773  0.00  0.00     0.089 H 
ENDBRANCH   1   2
BRANCH   1  14
ATOM     14  C6  <0> d          -4.268   2.883  -1.202  0.00  0.00     0.056 C 
ATOM     15  H2  <0> d          -4.642   2.219  -0.423  0.00  0.00     0.089 H 
ATOM     16  C10 <0> d          -4.707   2.398  -2.564  0.00  0.00    -0.079 C 
ATOM     17  C9  <0> d          -5.708   3.105  -3.015  0.00  0.00    -0.104 C 
ATOM     18  H14 <0> d          -4.253   1.575  -3.096  0.00  0.00     0.080 H 
ATOM     19  C8  <0> d          -6.102   4.179  -2.028  0.00  0.00    -0.048 C 
ATOM     20  H13 <0> d          -6.190   2.943  -3.967  0.00  0.00     0.076 H 
ATOM     21  C7  <0> d          -4.899   4.287  -1.063  0.00  0.00    -0.035 C 
ATOM     22  H11 <0> d          -7.000   3.885  -1.485  0.00  0.00     0.038 H 
ATOM     23  H12 <0> d          -6.264   5.128  -2.541  0.00  0.00     0.038 H 
ATOM     24  H9  <0> d          -5.233   4.466  -0.041  0.00  0.00     0.037 H 
ATOM     25  H10 <0> d          -4.205   5.062  -1.387  0.00  0.00     0.037 H 
ENDBRANCH   1  14
TORSDOF 2
