REMARK  0 active torsions:
REMARK  status: ('A' for Active; 'I' for Inactive)
ROOT
ATOM      1  C1  <0> d           1.162   1.758   0.000  0.00  0.00    -0.036 A 
ATOM      2  C2  <0> d          -0.013   1.076   0.008  0.00  0.00     0.004 A 
ATOM      3  N1  <0> d          -1.173   1.708   0.017  0.00  0.00    -0.271 NA
ATOM      4  C3  <0> d          -1.245   3.017   0.030  0.00  0.00     0.030 A 
ATOM      5  C4  <0> d          -0.087   3.810   0.023  0.00  0.00     0.080 A 
ATOM      6  C5  <0> d           1.159   3.180   0.008  0.00  0.00     0.087 A 
ATOM      7  N2  <0> d           2.286   3.944   0.000  0.00  0.00    -0.229 NA
ATOM      8  P1  <0> d           1.744   5.530   0.014  0.00  0.00     0.185 P 
ATOM      9  N3  <0> d          -0.055   5.208   0.030  0.00  0.00    -0.338 N 
ATOM     10  H1  <0> d          -0.792   5.839   0.040  0.00  0.00     0.166 HD
ATOM     11  H2  <0> d           2.098   1.220  -0.011  0.00  0.00     0.089 H 
ATOM     12  H3  <0> d           0.002  -0.004   0.002  0.00  0.00     0.114 H 
ATOM     13  H4  <0> d          -2.214   3.495   0.041  0.00  0.00     0.118 H 
ENDROOT
TORSDOF 0
