REMARK  2 active torsions:
REMARK  status: ('A' for Active; 'I' for Inactive)
REMARK    1  A    between atoms: C1_1  and  C2_2 
REMARK    2  A    between atoms: C5_5  and  C7_9 
ROOT
ATOM      1  C2  <0> d           1.073   2.225   0.004  0.00  0.00     0.003 C 
ATOM      2  C3  <0> d          -0.018   1.498   0.010  0.00  0.00    -0.028 C 
ATOM      3  C4  <0> d           0.002  -0.004   0.002  0.00  0.00    -0.046 C 
ATOM      4  C5  <0> d           1.362  -0.520   0.478  0.00  0.00     0.048 C 
ATOM      5  H1  <0> d           1.476  -0.355   1.560  0.00  0.00     0.059 H 
ATOM      6  C6  <0> d           2.463   0.215  -0.299  0.00  0.00     0.027 C 
ATOM      7  N1  <0> d           2.337   1.650  -0.003  0.00  0.00    -0.298 NA
ATOM      8  H3  <0> d          -0.550   1.862  -0.881  0.00  0.00     0.041 H 
ATOM      9  H5  <0> d          -0.533   1.853   0.915  0.00  0.00     0.041 H 
ATOM     10  H6  <0> d          -0.187  -0.360  -1.022  0.00  0.00     0.034 H 
ATOM     11  H7  <0> d          -0.787  -0.378   0.672  0.00  0.00     0.034 H 
ATOM     12  H8  <0> d           3.448  -0.157   0.019  0.00  0.00     0.068 H 
ATOM     13  H9  <0> d           2.334   0.034  -1.377  0.00  0.00     0.068 H 
ENDROOT
BRANCH   1  14
ATOM     14  C1  <0> d           0.952   3.727   0.004  0.00  0.00    -0.039 C 
ATOM     15  H2  <0> d           1.956   4.176  -0.002  0.00  0.00     0.035 H 
ATOM     16  H4  <0> d           0.410   4.051   0.905  0.00  0.00     0.035 H 
ATOM     17  H10 <0> d           0.400   4.051  -0.891  0.00  0.00     0.035 H 
ENDBRANCH   1  14
BRANCH   4  18
ATOM     18  C7  <0> d           1.461  -2.001   0.218  0.00  0.00     0.178 C 
ATOM     19  O1  <0> d           0.538  -2.587  -0.296  0.00  0.00    -0.648 OA
ATOM     20  O2  <0> d           2.575  -2.669   0.558  0.00  0.00    -0.648 OA
ENDBRANCH   4  18
TORSDOF 2
