REMARK  3 active torsions:
REMARK  status: ('A' for Active; 'I' for Inactive)
REMARK    1  A    between atoms: C1_1  and  C2_2 
REMARK    2  A    between atoms: C2_2  and  C3_3 
REMARK    3  A    between atoms: C2_2  and  C4_4 
ROOT
ATOM      1  C4  <0> d           1.351   1.876  -0.001  0.00  0.00     0.134 C 
ATOM      2  O1  <0> d          -0.017   1.435   0.010  0.00  0.00    -0.359 OA
ATOM      3  C5  <0> d           0.002  -0.004   0.002  0.00  0.00     0.042 C 
ATOM      4  C6  <0> d           1.498  -0.386   0.030  0.00  0.00     0.042 C 
ATOM      5  O2  <0> d           2.125   0.801   0.574  0.00  0.00    -0.359 OA
ATOM      6  H8  <0> d           1.675   2.066  -1.024  0.00  0.00     0.129 H 
ATOM      7  H9  <0> d          -0.505  -0.394   0.884  0.00  0.00     0.077 H 
ATOM      8  H10 <0> d          -0.470  -0.384  -0.904  0.00  0.00     0.077 H 
ATOM      9  H11 <0> d           1.666  -1.243   0.682  0.00  0.00     0.077 H 
ATOM     10  H12 <0> d           1.864  -0.588  -0.977  0.00  0.00     0.077 H 
ENDROOT
BRANCH   1  11
ATOM     11  C2  <0> d           1.502   3.143   0.844  0.00  0.00    -0.013 C 
ATOM     12  H4  <0> d           1.202   2.933   1.871  0.00  0.00     0.046 H 
BRANCH  11  13
ATOM     13  C1  <0> d           2.962   3.600   0.822  0.00  0.00    -0.069 C 
ATOM     14  H1  <0> d           3.262   3.810  -0.204  0.00  0.00     0.028 H 
ATOM     15  H2  <0> d           3.069   4.502   1.424  0.00  0.00     0.028 H 
ATOM     16  H3  <0> d           3.595   2.813   1.232  0.00  0.00     0.028 H 
ENDBRANCH  11  13
BRANCH  11  17
ATOM     17  C3  <0> d           0.613   4.248   0.269  0.00  0.00    -0.069 C 
ATOM     18  H5  <0> d          -0.427   3.923   0.284  0.00  0.00     0.028 H 
ATOM     19  H6  <0> d           0.720   5.151   0.870  0.00  0.00     0.028 H 
ATOM     20  H7  <0> d           0.913   4.458  -0.758  0.00  0.00     0.028 H 
ENDBRANCH  11  17
ENDBRANCH   1  11
TORSDOF 3
