REMARK  1 active torsions:
REMARK  status: ('A' for Active; 'I' for Inactive)
REMARK    1  A    between atoms: C2_2  and  C3_3 
ROOT
ATOM      1  C1  <0> d           0.018  -1.178  -0.004  0.00  0.00    -0.149 C 
ATOM      2  C2  <0> d           0.002  -0.004   0.002  0.00  0.00    -0.075 C 
ATOM      3  H1  <0> d           0.032  -2.228  -0.010  0.00  0.00     0.166 H 
ENDROOT
BRANCH   2   4
ATOM      4  C3  <0> d          -0.017   1.428   0.010  0.00  0.00     0.057 A 
ATOM      5  C8  <0> d           1.183   2.145   0.002  0.00  0.00     0.135 A 
ATOM      6  C7  <0> d           1.165   3.529   0.004  0.00  0.00    -0.043 A 
ATOM      7  F1  <0> d           2.363   1.486  -0.012  0.00  0.00    -0.205 F 
ATOM      8  C6  <0> d          -0.035   4.209   0.025  0.00  0.00    -0.060 A 
ATOM      9  H4  <0> d           2.095   4.079  -0.006  0.00  0.00     0.088 H 
ATOM     10  C5  <0> d          -1.242   3.503   0.038  0.00  0.00     0.046 A 
ATOM     11  H3  <0> d          -0.042   5.289   0.030  0.00  0.00     0.086 H 
ATOM     12  C4  <0> d          -1.231   2.109   0.031  0.00  0.00    -0.042 A 
ATOM     13  C9  <0> d          -2.486   4.211   0.060  0.00  0.00     0.099 C 
ATOM     14  H2  <0> d          -2.161   1.560   0.041  0.00  0.00     0.088 H 
ATOM     15  N1  <0> d          -3.473   4.773   0.076  0.00  0.00    -0.191 NA
ENDBRANCH   2   4
TORSDOF 1
