REMARK  1 active torsions:
REMARK  status: ('A' for Active; 'I' for Inactive)
REMARK    1  A    between atoms: C5_6  and  N2_7 
ROOT
ATOM      1  C1  <0> d          -2.429   0.940   0.019  0.00  0.00    -0.053 A 
ATOM      2  C2  <0> d          -3.612   1.655   0.028  0.00  0.00    -0.043 A 
ATOM      3  C3  <0> d          -3.563   3.050   0.035  0.00  0.00     0.136 A 
ATOM      4  N1  <0> d          -2.397   3.688   0.033  0.00  0.00    -0.248 NA
ATOM      5  C4  <0> d          -1.254   3.039   0.030  0.00  0.00     0.029 A 
ATOM      6  C5  <0> d          -1.226   1.645   0.017  0.00  0.00     0.043 A 
ATOM      7  C6  <0> d          -4.781   3.802   0.045  0.00  0.00     0.119 C 
ATOM      8  N3  <0> d          -5.748   4.399   0.053  0.00  0.00    -0.190 NA
ATOM      9  H1  <0> d          -2.436  -0.140   0.013  0.00  0.00     0.087 H 
ATOM     10  H2  <0> d          -4.562   1.142   0.030  0.00  0.00     0.088 H 
ATOM     11  H3  <0> d          -0.327   3.591   0.034  0.00  0.00     0.118 H 
ENDROOT
BRANCH   6  12
ATOM     12  N2  <0> d          -0.011   0.966   0.007  0.00  0.00    -0.398 N 
ATOM     13  H4  <0> d           0.002  -0.004   0.002  0.00  0.00     0.156 HD
ATOM     14  H5  <0> d           0.822   1.462   0.002  0.00  0.00     0.156 HD
ENDBRANCH   6  12
TORSDOF 1
