REMARK  2 active torsions:
REMARK  status: ('A' for Active; 'I' for Inactive)
REMARK    1  A    between atoms: C1_1  and  C2_2 
REMARK    2  A    between atoms: C9_9  and  C10_11 
ROOT
ATOM      1  C2  <0> d           0.002  -0.004   0.002  0.00  0.00    -0.053 A 
ATOM      2  C3  <0> d           0.006  -0.692  -1.201  0.00  0.00    -0.077 A 
ATOM      3  C4  <0> d           0.025  -2.075  -1.205  0.00  0.00    -0.080 A 
ATOM      4  C5  <0> d           0.041  -2.779  -0.020  0.00  0.00    -0.055 A 
ATOM      5  C6  <0> d           0.037  -2.095   1.200  0.00  0.00     0.064 A 
ATOM      6  C7  <0> d           0.023  -0.698   1.185  0.00  0.00    -0.018 A 
ATOM      7  C8  <0> d           0.030  -0.288   2.641  0.00  0.00    -0.002 A 
ATOM      8  C9  <0> d           0.055  -1.614   3.373  0.00  0.00     0.013 A 
ATOM      9  N1  <0> d           0.049  -2.548   2.490  0.00  0.00    -0.257 NA
ATOM     10  H4  <0> d          -0.007  -0.149  -2.135  0.00  0.00     0.084 H 
ATOM     11  H5  <0> d           0.028  -2.608  -2.145  0.00  0.00     0.083 H 
ATOM     12  H6  <0> d           0.056  -3.859  -0.033  0.00  0.00     0.087 H 
ATOM     13  H7  <0> d           0.921   0.296   2.872  0.00  0.00     0.049 H 
ATOM     14  H8  <0> d          -0.873   0.271   2.888  0.00  0.00     0.049 H 
ENDROOT
BRANCH   1  15
ATOM     15  C1  <0> d          -0.018   1.503   0.010  0.00  0.00    -0.051 C 
ATOM     16  H1  <0> d           1.004   1.880   0.003  0.00  0.00     0.033 H 
ATOM     17  H2  <0> d          -0.545   1.864  -0.873  0.00  0.00     0.033 H 
ATOM     18  H3  <0> d          -0.529   1.854   0.907  0.00  0.00     0.033 H 
ENDBRANCH   1  15
BRANCH   8  19
ATOM     19  C10 <0> d           0.072  -1.804   4.868  0.00  0.00    -0.039 C 
ATOM     20  H9  <0> d          -0.952  -1.864   5.238  0.00  0.00     0.035 H 
ATOM     21  H10 <0> d           0.601  -2.726   5.111  0.00  0.00     0.035 H 
ATOM     22  H11 <0> d           0.579  -0.960   5.335  0.00  0.00     0.035 H 
ENDBRANCH   8  19
TORSDOF 2
