REMARK  1 active torsions:
REMARK  status: ('A' for Active; 'I' for Inactive)
REMARK    1  A    between atoms: C2_2  and  C3_3 
ROOT
ATOM      1  C3  <0> d           1.103   3.189   0.008  0.00  0.00    -0.019 A 
ATOM      2  C4  <0> d           1.172   1.791   0.001  0.00  0.00    -0.070 A 
ATOM      3  C5  <0> d          -0.013   1.076   0.008  0.00  0.00    -0.065 A 
ATOM      4  C6  <0> d          -1.216   1.758   0.017  0.00  0.00     0.002 A 
ATOM      5  N1  <0> d          -1.250   3.077   0.030  0.00  0.00    -0.272 NA
ATOM      6  C7  <0> d          -0.150   3.802   0.023  0.00  0.00     0.012 A 
ATOM      7  H4  <0> d           2.125   1.284  -0.011  0.00  0.00     0.084 H 
ATOM      8  H5  <0> d           0.002  -0.004   0.002  0.00  0.00     0.085 H 
ATOM      9  H6  <0> d          -2.142   1.203   0.019  0.00  0.00     0.114 H 
ATOM     10  H7  <0> d          -0.219   4.879   0.029  0.00  0.00     0.116 H 
ENDROOT
BRANCH   1  11
ATOM     11  C2  <0> d           2.337   4.003   0.001  0.00  0.00    -0.081 C 
ATOM     12  C1  <0> d           2.259   5.326   0.009  0.00  0.00    -0.120 C 
ATOM     13  H1  <0> d           1.293   5.809   0.020  0.00  0.00     0.066 H 
ATOM     14  H2  <0> d           3.160   5.920   0.004  0.00  0.00     0.066 H 
ATOM     15  H3  <0> d           3.303   3.519  -0.010  0.00  0.00     0.083 H 
ENDBRANCH   1  11
TORSDOF 1
