REMARK  4 active torsions:
REMARK  status: ('A' for Active; 'I' for Inactive)
REMARK    1  A    between atoms: C1_1  and  C2_2 
REMARK    2  A    between atoms: C2_2  and  O1_3 
REMARK    3  A    between atoms: O1_3  and  C3_4 
REMARK    4  A    between atoms: C3_4  and  C4_5 
ROOT
ATOM      1  C4  <0> d          -0.013   1.086   0.008  0.00  0.00     0.059 C 
ATOM      2  H1  <0> d           0.002  -0.004   0.002  0.00  0.00     0.086 H 
ATOM      3  C5  <0> d          -0.692   1.593   1.298  0.00  0.00    -0.037 C 
ATOM      4  C6  <0> d           0.525   1.919   2.206  0.00  0.00    -0.043 C 
ATOM      5  C7  <0> d           1.552   2.412   1.155  0.00  0.00     0.020 C 
ATOM      6  O2  <0> d           1.328   1.590  -0.002  0.00  0.00    -0.384 OA
ATOM      7  H9  <0> d          -1.280   2.490   1.100  0.00  0.00     0.036 H 
ATOM      8  H10 <0> d          -1.310   0.814   1.743  0.00  0.00     0.036 H 
ATOM      9  H11 <0> d           0.884   1.026   2.717  0.00  0.00     0.036 H 
ATOM     10  H12 <0> d           0.284   2.707   2.919  0.00  0.00     0.036 H 
ATOM     11  H13 <0> d           2.568   2.275   1.525  0.00  0.00     0.074 H 
ATOM     12  H14 <0> d           1.376   3.460   0.914  0.00  0.00     0.074 H 
ENDROOT
BRANCH   1  13
ATOM     13  C3  <0> d          -0.770   1.601  -1.217  0.00  0.00     0.043 C 
ATOM     14  H7  <0> d          -1.819   1.312  -1.144  0.00  0.00     0.078 H 
ATOM     15  H8  <0> d          -0.695   2.688  -1.260  0.00  0.00     0.078 H 
BRANCH  13  16
ATOM     16  O1  <0> d          -0.202   1.037  -2.401  0.00  0.00    -0.389 OA
BRANCH  16  17
ATOM     17  C2  <0> d          -0.840   1.456  -3.609  0.00  0.00     0.016 C 
ATOM     18  H5  <0> d          -1.890   1.164  -3.586  0.00  0.00     0.073 H 
ATOM     19  H6  <0> d          -0.766   2.540  -3.701  0.00  0.00     0.073 H 
BRANCH  17  20
ATOM     20  C1  <0> d          -0.152   0.794  -4.805  0.00  0.00    -0.056 C 
ATOM     21  H2  <0> d          -0.226  -0.289  -4.712  0.00  0.00     0.030 H 
ATOM     22  H3  <0> d          -0.639   1.114  -5.726  0.00  0.00     0.030 H 
ATOM     23  H4  <0> d           0.897   1.087  -4.828  0.00  0.00     0.030 H 
ENDBRANCH  17  20
ENDBRANCH  16  17
ENDBRANCH  13  16
ENDBRANCH   1  13
TORSDOF 4
