REMARK  2 active torsions:
REMARK  status: ('A' for Active; 'I' for Inactive)
REMARK    1  A    between atoms: C1_1  and  C2_2 
REMARK    2  A    between atoms: C6_8  and  C8_11 
ROOT
ATOM      1  C2  <0> d          -1.198   3.153   0.029  0.00  0.00    -0.046 A 
ATOM      2  C3  <0> d          -1.195   1.748   0.017  0.00  0.00    -0.072 A 
ATOM      3  C4  <0> d          -0.013   1.076   0.008  0.00  0.00    -0.036 A 
ATOM      4  C5  <0> d           1.192   1.805   0.000  0.00  0.00     0.157 A 
ATOM      5  N1  <0> d           2.468   1.454  -0.013  0.00  0.00    -0.130 NA
ATOM      6  N2  <0> d           3.203   2.510  -0.015  0.00  0.00    -0.135 NA
ATOM      7  C6  <0> d           2.456   3.583  -0.003  0.00  0.00     0.130 A 
ATOM      8  N3  <0> d           1.157   3.178   0.008  0.00  0.00    -0.291 N 
ATOM      9  C7  <0> d          -0.036   3.838   0.022  0.00  0.00    -0.006 A 
ATOM     10  H4  <0> d          -2.128   1.204   0.018  0.00  0.00     0.084 H 
ATOM     11  H5  <0> d           0.002  -0.004   0.002  0.00  0.00     0.089 H 
ATOM     12  H6  <0> d          -0.050   4.918   0.028  0.00  0.00     0.113 H 
ENDROOT
BRANCH   1  13
ATOM     13  C1  <0> d          -2.508   3.899   0.044  0.00  0.00    -0.050 C 
ATOM     14  H1  <0> d          -2.833   4.084  -0.979  0.00  0.00     0.033 H 
ATOM     15  H2  <0> d          -3.260   3.303   0.562  0.00  0.00     0.033 H 
ATOM     16  H3  <0> d          -2.378   4.850   0.562  0.00  0.00     0.033 H 
ENDBRANCH   1  13
BRANCH   7  17
ATOM     17  C8  <0> d           2.944   5.009  -0.001  0.00  0.00    -0.019 C 
ATOM     18  H7  <0> d           3.071   5.348   1.027  0.00  0.00     0.037 H 
ATOM     19  H8  <0> d           3.899   5.067  -0.523  0.00  0.00     0.037 H 
ATOM     20  H9  <0> d           2.215   5.643  -0.505  0.00  0.00     0.037 H 
ENDBRANCH   7  17
TORSDOF 2
