REMARK  5 active torsions:
REMARK  status: ('A' for Active; 'I' for Inactive)
REMARK    1  A    between atoms: C1_1  and  C2_2 
REMARK    2  A    between atoms: C2_2  and  O1_3 
REMARK    3  A    between atoms: O1_3  and  C3_4 
REMARK    4  A    between atoms: C3_4  and  N1_5 
REMARK    5  A    between atoms: C5_7  and  N3_10 
ROOT
ATOM      1  C3  <0> d           2.475   1.468  -0.013  0.00  0.00     0.098 C 
ATOM      2  H6  <0> d           2.964   1.858  -0.906  0.00  0.00     0.110 H 
ATOM      3  H7  <0> d           2.980   1.849   0.874  0.00  0.00     0.110 H 
ENDROOT
BRANCH   1   4
ATOM      4  O1  <0> d           2.538   0.040  -0.021  0.00  0.00    -0.371 OA
BRANCH   4   5
ATOM      5  C2  <0> d           3.868  -0.483  -0.036  0.00  0.00     0.018 C 
ATOM      6  H4  <0> d           4.386  -0.133  -0.929  0.00  0.00     0.073 H 
ATOM      7  H5  <0> d           4.402  -0.142   0.851  0.00  0.00     0.073 H 
BRANCH   5   8
ATOM      8  C1  <0> d           3.815  -2.012  -0.043  0.00  0.00    -0.056 C 
ATOM      9  H1  <0> d           4.829  -2.410  -0.055  0.00  0.00     0.030 H 
ATOM     10  H2  <0> d           3.297  -2.361   0.850  0.00  0.00     0.030 H 
ATOM     11  H3  <0> d           3.281  -2.352  -0.930  0.00  0.00     0.030 H 
ENDBRANCH   5   8
ENDBRANCH   4   5
ENDBRANCH   1   4
BRANCH   1  12
ATOM     12  N1  <0> d           1.073   1.894   0.002  0.00  0.00    -0.255 N 
ATOM     13  N2  <0> d           0.614   3.217   0.013  0.00  0.00    -0.181 NA
ATOM     14  C6  <0> d          -0.695   3.200   0.026  0.00  0.00     0.048 A 
ATOM     15  C5  <0> d          -1.118   1.863   0.017  0.00  0.00     0.062 A 
ATOM     16  H9  <0> d          -1.338   4.066   0.036  0.00  0.00     0.121 H 
ATOM     17  C4  <0> d          -0.013   1.076   0.008  0.00  0.00     0.027 A 
ATOM     18  H8  <0> d           0.002  -0.004   0.002  0.00  0.00     0.117 H 
BRANCH  15  19
ATOM     19  N3  <0> d          -2.453   1.416   0.019  0.00  0.00    -0.397 N 
ATOM     20  H10 <0> d          -2.647   0.466   0.015  0.00  0.00     0.156 HD
ATOM     21  H11 <0> d          -3.180   2.059   0.026  0.00  0.00     0.156 HD
ENDBRANCH  15  19
ENDBRANCH   1  12
TORSDOF 5
