REMARK  1 active torsions:
REMARK  status: ('A' for Active; 'I' for Inactive)
REMARK    1  A    between atoms: C6_6  and  O1_7 
ROOT
ATOM      1  C1  <0> d          -1.220   1.749   0.017  0.00  0.00    -0.048 A 
ATOM      2  C2  <0> d          -0.013   1.076   0.008  0.00  0.00    -0.046 A 
ATOM      3  C3  <0> d           1.179   1.784   0.000  0.00  0.00     0.095 A 
ATOM      4  C4  <0> d           1.153   3.176   0.007  0.00  0.00     0.064 A 
ATOM      5  C5  <0> d          -0.057   3.851   0.023  0.00  0.00    -0.023 A 
ATOM      6  C6  <0> d          -1.246   3.136   0.031  0.00  0.00     0.068 A 
ATOM      7  N1  <0> d           2.358   3.896  -0.006  0.00  0.00    -0.386 N 
ATOM      8  C7  <0> d           3.599   3.158   0.285  0.00  0.00     0.013 C 
ATOM      9  C8  <0> d           3.524   1.813  -0.452  0.00  0.00     0.041 C 
ATOM     10  O2  <0> d           2.361   1.110  -0.010  0.00  0.00    -0.347 OA
ATOM     11  H1  <0> d          -2.146   1.194   0.018  0.00  0.00     0.087 H 
ATOM     12  H2  <0> d           0.002  -0.004   0.002  0.00  0.00     0.087 H 
ATOM     13  H3  <0> d          -0.075   4.931   0.030  0.00  0.00     0.091 H 
ATOM     14  H5  <0> d           2.373   4.846  -0.201  0.00  0.00     0.159 HD
ATOM     15  H6  <0> d           3.684   2.987   1.359  0.00  0.00     0.067 H 
ATOM     16  H7  <0> d           4.460   3.726  -0.068  0.00  0.00     0.067 H 
ATOM     17  H8  <0> d           4.414   1.224  -0.229  0.00  0.00     0.077 H 
ATOM     18  H9  <0> d           3.459   1.989  -1.526  0.00  0.00     0.077 H 
ENDROOT
BRANCH   6  19
ATOM     19  O1  <0> d          -2.436   3.794   0.047  0.00  0.00    -0.361 OA
ATOM     20  H4  <0> d          -2.789   3.989  -0.832  0.00  0.00     0.217 HD
ENDBRANCH   6  19
TORSDOF 1
