REMARK  2 active torsions:
REMARK  status: ('A' for Active; 'I' for Inactive)
REMARK    1  A    between atoms: C1_1  and  C2_2 
REMARK    2  A    between atoms: C5_6  and  N3_8 
ROOT
ATOM      1  C2  <0> d          -0.742   1.585  -1.213  0.00  0.00     0.055 A 
ATOM      2  C3  <0> d          -0.881   2.926  -1.422  0.00  0.00     0.007 A 
ATOM      3  C4  <0> d          -1.565   3.368  -2.568  0.00  0.00     0.261 A 
ATOM      4  N1  <0> d          -2.061   2.447  -3.423  0.00  0.00    -0.155 N 
ATOM      5  C5  <0> d          -1.891   1.123  -3.163  0.00  0.00     0.701 A 
ATOM      6  N2  <0> d          -1.244   0.717  -2.088  0.00  0.00    -0.070 NA
ATOM      7  O1  <0> d          -1.709   4.560  -2.787  0.00  0.00    -0.268 OA
ATOM      8  H4  <0> d          -0.473   3.637  -0.719  0.00  0.00     0.095 H 
ATOM      9  H7  <0> d          -2.536   2.729  -4.220  0.00  0.00     0.187 HD
ENDROOT
BRANCH   1  10
ATOM     10  C1  <0> d          -0.013   1.086   0.008  0.00  0.00    -0.035 C 
ATOM     11  H1  <0> d           0.002  -0.004   0.002  0.00  0.00     0.035 H 
ATOM     12  H2  <0> d           1.010   1.463   0.000  0.00  0.00     0.035 H 
ATOM     13  H3  <0> d          -0.523   1.437   0.905  0.00  0.00     0.035 H 
ENDBRANCH   1  10
BRANCH   5  14
ATOM     14  N3  <0> d          -2.397   0.196  -4.034  0.00  0.00    -0.233 N 
ATOM     15  H5  <0> d          -2.871   0.485  -4.829  0.00  0.00     0.174 HD
ATOM     16  H6  <0> d          -2.280  -0.751  -3.856  0.00  0.00     0.174 HD
ENDBRANCH   5  14
TORSDOF 2
