REMARK  2 active torsions:
REMARK  status: ('A' for Active; 'I' for Inactive)
REMARK    1  A    between atoms: C3_3  and  C7_8 
REMARK    2  A    between atoms: C5_5  and  N1_7 
ROOT
ATOM      1  C1  <0> d          -1.220   1.748   0.017  0.00  0.00    -0.080 A 
ATOM      2  C2  <0> d          -1.246   3.128   0.031  0.00  0.00    -0.069 A 
ATOM      3  C3  <0> d          -0.052   3.849   0.023  0.00  0.00     0.012 A 
ATOM      4  C4  <0> d           1.167   3.171   0.008  0.00  0.00    -0.044 A 
ATOM      5  C5  <0> d           1.183   1.785   0.000  0.00  0.00     0.026 A 
ATOM      6  C6  <0> d          -0.013   1.076   0.008  0.00  0.00    -0.058 A 
ATOM      7  H2  <0> d          -2.146   1.192   0.019  0.00  0.00     0.083 H 
ATOM      8  H3  <0> d          -2.192   3.650   0.043  0.00  0.00     0.085 H 
ATOM      9  H4  <0> d           2.094   3.724   0.002  0.00  0.00     0.088 H 
ATOM     10  H5  <0> d           0.002  -0.004   0.002  0.00  0.00     0.086 H 
ENDROOT
BRANCH   3  11
ATOM     11  C7  <0> d          -0.078   5.328   0.032  0.00  0.00     0.137 A 
ATOM     12  N3  <0> d           0.974   6.117   0.032  0.00  0.00    -0.241 NA
ATOM     13  C9  <0> d           0.570   7.392   0.038  0.00  0.00     0.019 A 
ATOM     14  C8  <0> d          -0.778   7.410   0.050  0.00  0.00    -0.004 A 
ATOM     15  H9  <0> d           1.214   8.259   0.037  0.00  0.00     0.117 H 
ATOM     16  N2  <0> d          -1.197   6.107   0.047  0.00  0.00    -0.349 N 
ATOM     17  H8  <0> d          -1.409   8.288   0.061  0.00  0.00     0.113 H 
ATOM     18  H1  <0> d          -2.193   5.639   0.053  0.00  0.00     0.167 HD
ENDBRANCH   3  11
BRANCH   5  19
ATOM     19  N1  <0> d           2.401   1.101  -0.015  0.00  0.00    -0.399 N 
ATOM     20  H6  <0> d           2.414   0.001  -0.021  0.00  0.00     0.156 HD
ATOM     21  H7  <0> d           3.347   1.662  -0.022  0.00  0.00     0.156 HD
ENDBRANCH   5  19
TORSDOF 2
