REMARK  2 active torsions:
REMARK  status: ('A' for Active; 'I' for Inactive)
REMARK    1  A    between atoms: C1_1  and  C2_2 
REMARK    2  A    between atoms: C4_5  and  C6_10 
ROOT
ATOM      1  C2  <0> d           2.101   0.912   0.778  0.00  0.00     0.029 C 
ATOM      2  H1  <0> d           3.056   0.752   0.279  0.00  0.00     0.055 H 
ATOM      3  C3  <0> d           1.273  -0.393   0.787  0.00  0.00    -0.029 C 
ATOM      4  C4  <0> d           0.002  -0.004   0.002  0.00  0.00     0.045 C 
ATOM      5  H2  <0> d           0.059  -0.376  -1.021  0.00  0.00     0.083 H 
ATOM      6  O1  <0> d          -0.018   1.455   0.010  0.00  0.00    -0.316 OA
ATOM      7  C5  <0> d           1.253   1.897   0.000  0.00  0.00     0.263 C 
ATOM      8  O2  <0> d           1.649   2.905  -0.536  0.00  0.00    -0.265 OA
ATOM      9  H6  <0> d           1.022  -0.682   1.808  0.00  0.00     0.038 H 
ATOM     10  H7  <0> d           1.810  -1.193   0.279  0.00  0.00     0.038 H 
ENDROOT
BRANCH   1  11
ATOM     11  C1  <0> d           2.324   1.411   2.207  0.00  0.00    -0.064 C 
ATOM     12  H3  <0> d           2.862   0.654   2.777  0.00  0.00     0.028 H 
ATOM     13  H4  <0> d           2.909   2.331   2.183  0.00  0.00     0.028 H 
ATOM     14  H5  <0> d           1.361   1.606   2.679  0.00  0.00     0.028 H 
ENDBRANCH   1  11
BRANCH   4  15
ATOM     15  C6  <0> d          -1.243  -0.556   0.699  0.00  0.00    -0.052 C 
ATOM     16  H8  <0> d          -2.134  -0.231   0.162  0.00  0.00     0.030 H 
ATOM     17  H9  <0> d          -1.201  -1.645   0.708  0.00  0.00     0.030 H 
ATOM     18  H10 <0> d          -1.280  -0.186   1.724  0.00  0.00     0.030 H 
ENDBRANCH   4  15
TORSDOF 2
