REMARK  4 active torsions:
REMARK  status: ('A' for Active; 'I' for Inactive)
REMARK    1  A    between atoms: C1_1  and  O1_2 
REMARK    2  A    between atoms: O1_2  and  C2_3 
REMARK    3  A    between atoms: C2_3  and  C3_4 
REMARK    4  A    between atoms: C3_4  and  C4_5 
ROOT
ATOM      1  C3  <0> d          -2.530   3.893   0.046  0.00  0.00    -0.021 C 
ATOM      2  H6  <0> d          -3.289   3.308   0.564  0.00  0.00     0.043 H 
ATOM      3  H7  <0> d          -2.387   4.842   0.563  0.00  0.00     0.043 H 
ENDROOT
BRANCH   1   4
ATOM      4  C2  <0> d          -2.983   4.158  -1.391  0.00  0.00     0.023 C 
ATOM      5  H4  <0> d          -2.223   4.744  -1.909  0.00  0.00     0.074 H 
ATOM      6  H5  <0> d          -3.125   3.209  -1.909  0.00  0.00     0.074 H 
BRANCH   4   7
ATOM      7  O1  <0> d          -4.214   4.883  -1.377  0.00  0.00    -0.396 OA
BRANCH   7   8
ATOM      8  C1  <0> d          -4.727   5.184  -2.676  0.00  0.00     0.004 C 
ATOM      9  H1  <0> d          -4.004   5.790  -3.221  0.00  0.00     0.066 H 
ATOM     10  H2  <0> d          -4.906   4.256  -3.220  0.00  0.00     0.066 H 
ATOM     11  H3  <0> d          -5.663   5.734  -2.579  0.00  0.00     0.066 H 
ENDBRANCH   7   8
ENDBRANCH   4   7
ENDBRANCH   1   4
BRANCH   1  12
ATOM     12  C4  <0> d          -1.231   3.129   0.030  0.00  0.00    -0.053 A 
ATOM     13  C8  <0> d          -0.015   3.796   0.022  0.00  0.00    -0.060 A 
ATOM     14  C7  <0> d           1.155   3.061   0.007  0.00  0.00     0.002 A 
ATOM     15  H11 <0> d           0.016   4.875   0.027  0.00  0.00     0.086 H 
ATOM     16  N1  <0> d           1.125   1.743   0.001  0.00  0.00    -0.273 NA
ATOM     17  H10 <0> d           2.107   3.573   0.001  0.00  0.00     0.114 H 
ATOM     18  C6  <0> d          -0.013   1.076   0.008  0.00  0.00     0.002 A 
ATOM     19  C5  <0> d          -1.223   1.742   0.017  0.00  0.00    -0.060 A 
ATOM     20  H9  <0> d           0.002  -0.004   0.002  0.00  0.00     0.114 H 
ATOM     21  H8  <0> d          -2.151   1.190   0.018  0.00  0.00     0.086 H 
ENDBRANCH   1  12
TORSDOF 4
