REMARK  5 active torsions:
REMARK  status: ('A' for Active; 'I' for Inactive)
REMARK    1  A    between atoms: C2_2  and  C5_8 
REMARK    2  A    between atoms: C4_5  and  N3_7 
REMARK    3  A    between atoms: C5_8  and  C6_9 
REMARK    4  A    between atoms: C6_9  and  C7_10 
REMARK    5  A    between atoms: C7_10  and  O1_11 
ROOT
ATOM      1  C1  <0> d          -0.016   1.319   0.009  0.00  0.00     0.028 A 
ATOM      2  C2  <0> d           1.185   2.011   0.002  0.00  0.00    -0.022 A 
ATOM      3  C3  <0> d           2.367   1.288  -0.014  0.00  0.00     0.028 A 
ATOM      4  N1  <0> d           2.314  -0.034  -0.020  0.00  0.00    -0.075 NA
ATOM      5  C4  <0> d           1.150  -0.666  -0.013  0.00  0.00     0.719 A 
ATOM      6  N2  <0> d           0.002  -0.004   0.002  0.00  0.00    -0.075 NA
ATOM      7  H1  <0> d          -0.955   1.852   0.026  0.00  0.00     0.116 H 
ATOM      8  H2  <0> d           3.319   1.797  -0.020  0.00  0.00     0.116 H 
ENDROOT
BRANCH   2   9
ATOM      9  C5  <0> d           1.204   3.518   0.009  0.00  0.00    -0.036 C 
ATOM     10  H5  <0> d           2.094   3.872  -0.511  0.00  0.00     0.040 H 
ATOM     11  H6  <0> d           0.314   3.895  -0.495  0.00  0.00     0.040 H 
BRANCH   9  12
ATOM     12  C6  <0> d           1.224   4.021   1.454  0.00  0.00    -0.042 C 
ATOM     13  H7  <0> d           0.335   3.666   1.974  0.00  0.00     0.036 H 
ATOM     14  H8  <0> d           2.115   3.643   1.958  0.00  0.00     0.036 H 
BRANCH  12  15
ATOM     15  C7  <0> d           1.244   5.551   1.461  0.00  0.00     0.017 C 
ATOM     16  H9  <0> d           2.134   5.905   0.941  0.00  0.00     0.073 H 
ATOM     17  H10 <0> d           0.354   5.928   0.958  0.00  0.00     0.073 H 
BRANCH  15  18
ATOM     18  O1  <0> d           1.263   6.020   2.811  0.00  0.00    -0.401 OA
ATOM     19  H11 <0> d           1.276   6.984   2.892  0.00  0.00     0.209 HD
ENDBRANCH  15  18
ENDBRANCH  12  15
ENDBRANCH   9  12
ENDBRANCH   2   9
BRANCH   5  20
ATOM     20  N3  <0> d           1.132  -2.050  -0.020  0.00  0.00    -0.231 N 
ATOM     21  H3  <0> d           1.966  -2.546  -0.031  0.00  0.00     0.174 HD
ATOM     22  H4  <0> d           0.286  -2.524  -0.015  0.00  0.00     0.174 HD
ENDBRANCH   5  20
TORSDOF 5
