REMARK  9 active torsions:
REMARK  status: ('A' for Active; 'I' for Inactive)
REMARK    1  A    between atoms: C1_1  and  C2_2 
REMARK    2  A    between atoms: C2_2  and  C3_4 
REMARK    3  A    between atoms: C2_2  and  O2_9 
REMARK    4  A    between atoms: C3_4  and  C4_5 
REMARK    5  A    between atoms: C4_5  and  C5_6 
REMARK    6  A    between atoms: C4_5  and  C6_7 
REMARK    7  A    between atoms: C4_5  and  O1_8 
REMARK    8  A    between atoms: O2_9  and  C7_10 
REMARK    9  A    between atoms: C7_10  and  C8_11 
ROOT
ATOM      1  C2  <0> d          -0.854   1.357   1.264  0.00  0.00     0.038 C 
ATOM      2  H1  <0> d          -1.026   2.433   1.273  0.00  0.00     0.082 H 
ENDROOT
BRANCH   1   3
ATOM      3  C1  <0> d          -0.050   0.958   2.502  0.00  0.00    -0.052 C 
ATOM      4  H2  <0> d           0.908   1.478   2.498  0.00  0.00     0.030 H 
ATOM      5  H3  <0> d          -0.606   1.229   3.400  0.00  0.00     0.030 H 
ATOM      6  H4  <0> d           0.122  -0.119   2.493  0.00  0.00     0.030 H 
ENDBRANCH   1   3
BRANCH   1   7
ATOM      7  C3  <0> d          -0.073   0.976   0.004  0.00  0.00    -0.013 C 
ATOM      8  H5  <0> d           0.016  -0.109  -0.054  0.00  0.00     0.041 H 
ATOM      9  H6  <0> d           0.922   1.421   0.045  0.00  0.00     0.041 H 
BRANCH   7  10
ATOM     10  C4  <0> d          -0.812   1.494  -1.231  0.00  0.00     0.053 C 
BRANCH  10  11
ATOM     11  C5  <0> d          -0.935   3.017  -1.150  0.00  0.00    -0.048 C 
ATOM     12  H7  <0> d           0.060   3.461  -1.110  0.00  0.00     0.031 H 
ATOM     13  H8  <0> d          -1.462   3.387  -2.030  0.00  0.00     0.031 H 
ATOM     14  H9  <0> d          -1.491   3.290  -0.253  0.00  0.00     0.031 H 
ENDBRANCH  10  11
BRANCH  10  15
ATOM     15  C6  <0> d          -0.033   1.112  -2.490  0.00  0.00    -0.048 C 
ATOM     16  H10 <0> d           0.055   0.027  -2.548  0.00  0.00     0.031 H 
ATOM     17  H11 <0> d          -0.559   1.482  -3.370  0.00  0.00     0.031 H 
ATOM     18  H12 <0> d           0.963   1.555  -2.450  0.00  0.00     0.031 H 
ENDBRANCH  10  15
BRANCH  10  19
ATOM     19  O1  <0> d          -2.117   0.913  -1.284  0.00  0.00    -0.391 OA
ATOM     20  H13 <0> d          -2.644   1.198  -2.043  0.00  0.00     0.210 HD
ENDBRANCH  10  19
ENDBRANCH   7  10
ENDBRANCH   1   7
BRANCH   1  21
ATOM     21  O2  <0> d          -2.109   0.674   1.270  0.00  0.00    -0.383 OA
BRANCH  21  22
ATOM     22  C7  <0> d          -3.154   1.385   1.938  0.00  0.00     0.034 C 
ATOM     23  H14 <0> d          -2.873   1.551   2.978  0.00  0.00     0.080 H 
ATOM     24  H15 <0> d          -3.312   2.345   1.446  0.00  0.00     0.080 H 
BRANCH  22  25
ATOM     25  C8  <0> d          -4.425   0.577   1.884  0.00  0.00    -0.090 C 
ATOM     26  C9  <0> d          -5.162   0.443   2.958  0.00  0.00    -0.123 C 
ATOM     27  H17 <0> d          -4.859   0.912   3.883  0.00  0.00     0.066 H 
ATOM     28  H18 <0> d          -6.073  -0.136   2.920  0.00  0.00     0.066 H 
ATOM     29  H16 <0> d          -4.728   0.108   0.959  0.00  0.00     0.078 H 
ENDBRANCH  22  25
ENDBRANCH  21  22
ENDBRANCH   1  21
TORSDOF 9
