REMARK  2 active torsions:
REMARK  status: ('A' for Active; 'I' for Inactive)
REMARK    1  A    between atoms: C1_1  and  C2_2 
REMARK    2  A    between atoms: C2_2  and  N1_3 
ROOT
ATOM      1  N1  <0> d           2.170   0.954  -0.013  0.00  0.00    -0.326 N 
ATOM      2  C3  <0> d           1.502  -0.357  -0.014  0.00  0.00     0.020 A 
ATOM      3  C4  <0> d           0.002  -0.004   0.002  0.00  0.00     0.045 A 
ATOM      4  O1  <0> d          -0.018   1.453   0.010  0.00  0.00    -0.302 OA
ATOM      5  C5  <0> d           1.237   1.916   0.001  0.00  0.00     0.362 A 
ATOM      6  O2  <0> d           1.507   3.101   0.004  0.00  0.00    -0.238 OA
ATOM      7  H6  <0> d           1.772  -0.924   0.876  0.00  0.00     0.067 H 
ATOM      8  H7  <0> d           1.754  -0.915  -0.916  0.00  0.00     0.067 H 
ATOM      9  H8  <0> d          -0.473  -0.398   0.900  0.00  0.00     0.077 H 
ATOM     10  H9  <0> d          -0.490  -0.388  -0.891  0.00  0.00     0.077 H 
ENDROOT
BRANCH   1  11
ATOM     11  C2  <0> d           3.619   1.172  -0.027  0.00  0.00    -0.004 C 
ATOM     12  H4  <0> d           3.851   2.103   0.490  0.00  0.00     0.064 H 
ATOM     13  H5  <0> d           4.115   0.343   0.478  0.00  0.00     0.064 H 
BRANCH  11  14
ATOM     14  C1  <0> d           4.109   1.256  -1.474  0.00  0.00    -0.061 C 
ATOM     15  H1  <0> d           5.186   1.418  -1.483  0.00  0.00     0.029 H 
ATOM     16  H2  <0> d           3.877   0.324  -1.990  0.00  0.00     0.029 H 
ATOM     17  H3  <0> d           3.612   2.084  -1.978  0.00  0.00     0.029 H 
ENDBRANCH  11  14
ENDBRANCH   1  11
TORSDOF 2
