REMARK  2 active torsions:
REMARK  status: ('A' for Active; 'I' for Inactive)
REMARK    1  A    between atoms: C1_1  and  C2_2 
REMARK    2  A    between atoms: C3_3  and  C4_4 
ROOT
ATOM      1  C4  <0> d           0.615  -2.142   0.979  0.00  0.00    -0.037 A 
ATOM      2  C5  <0> d           0.016  -2.845  -0.067  0.00  0.00    -0.073 A 
ATOM      3  C6  <0> d           0.038  -4.225  -0.069  0.00  0.00    -0.082 A 
ATOM      4  C7  <0> d           0.652  -4.911   0.964  0.00  0.00    -0.083 A 
ATOM      5  C8  <0> d           1.247  -4.220   2.004  0.00  0.00    -0.082 A 
ATOM      6  C9  <0> d           1.237  -2.840   2.014  0.00  0.00    -0.073 A 
ATOM      7  H6  <0> d          -0.464  -2.311  -0.873  0.00  0.00     0.084 H 
ATOM      8  H7  <0> d          -0.425  -4.770  -0.878  0.00  0.00     0.083 H 
ATOM      9  H8  <0> d           0.666  -5.991   0.958  0.00  0.00     0.083 H 
ATOM     10  H9  <0> d           1.724  -4.761   2.808  0.00  0.00     0.083 H 
ATOM     11  H10 <0> d           1.707  -2.302   2.824  0.00  0.00     0.084 H 
ENDROOT
BRANCH   1  12
ATOM     12  C3  <0> d           0.595  -0.664   0.987  0.00  0.00    -0.077 C 
ATOM     13  C2  <0> d           0.002  -0.004   0.002  0.00  0.00    -0.106 C 
ATOM     14  H4  <0> d          -0.466  -0.546  -0.806  0.00  0.00     0.076 H 
ATOM     15  H5  <0> d           1.062  -0.122   1.796  0.00  0.00     0.084 H 
BRANCH  13  16
ATOM     16  C1  <0> d          -0.018   1.503   0.010  0.00  0.00    -0.060 C 
ATOM     17  H1  <0> d           1.004   1.880   0.003  0.00  0.00     0.032 H 
ATOM     18  H2  <0> d          -0.545   1.864  -0.873  0.00  0.00     0.032 H 
ATOM     19  H3  <0> d          -0.529   1.854   0.907  0.00  0.00     0.032 H 
ENDBRANCH  13  16
ENDBRANCH   1  12
TORSDOF 2
