REMARK  3 active torsions:
REMARK  status: ('A' for Active; 'I' for Inactive)
REMARK    1  A    between atoms: C1_1  and  C2_2 
REMARK    2  A    between atoms: C2_2  and  C3_3 
REMARK    3  A    between atoms: C5_6  and  C7_9 
ROOT
ATOM      1  C3  <0> d          -3.643   3.372   0.037  0.00  0.00     0.124 A 
ATOM      2  N1  <0> d          -2.523   4.067   0.036  0.00  0.00    -0.245 NA
ATOM      3  C4  <0> d          -1.347   3.463   0.027  0.00  0.00     0.022 A 
ATOM      4  C5  <0> d          -1.305   2.064   0.019  0.00  0.00     0.075 A 
ATOM      5  C6  <0> d          -2.520   1.367   0.015  0.00  0.00     0.022 A 
ATOM      6  N2  <0> d          -3.649   2.053   0.030  0.00  0.00    -0.245 NA
ATOM      7  H6  <0> d          -0.434   4.040   0.027  0.00  0.00     0.116 H 
ATOM      8  H7  <0> d          -2.533   0.288   0.005  0.00  0.00     0.116 H 
ENDROOT
BRANCH   1   9
ATOM      9  C2  <0> d          -4.958   4.107   0.047  0.00  0.00    -0.011 C 
ATOM     10  H4  <0> d          -5.707   3.505   0.561  0.00  0.00     0.044 H 
ATOM     11  H5  <0> d          -4.838   5.058   0.566  0.00  0.00     0.044 H 
BRANCH   9  12
ATOM     12  C1  <0> d          -5.410   4.365  -1.392  0.00  0.00    -0.070 C 
ATOM     13  H1  <0> d          -5.530   3.413  -1.911  0.00  0.00     0.028 H 
ATOM     14  H2  <0> d          -6.361   4.897  -1.385  0.00  0.00     0.028 H 
ATOM     15  H3  <0> d          -4.661   4.967  -1.906  0.00  0.00     0.028 H 
ENDBRANCH   9  12
ENDBRANCH   1   9
BRANCH   4  16
ATOM     16  C7  <0> d          -0.016   1.343   0.009  0.00  0.00     0.212 C 
ATOM     17  O1  <0> d           1.027   1.964   0.003  0.00  0.00    -0.644 OA
ATOM     18  O2  <0> d           0.002  -0.004   0.002  0.00  0.00    -0.644 OA
ENDBRANCH   4  16
TORSDOF 3
