REMARK  2 active torsions:
REMARK  status: ('A' for Active; 'I' for Inactive)
REMARK    1  A    between atoms: C3_3  and  C7_9 
REMARK    2  A    between atoms: C7_9  and  O1_10 
ROOT
ATOM      1  C1  <0> d          -0.013   1.076   0.008  0.00  0.00    -0.065 A 
ATOM      2  C2  <0> d          -1.219   1.759   0.017  0.00  0.00    -0.070 A 
ATOM      3  C3  <0> d          -1.194   3.144   0.029  0.00  0.00     0.005 A 
ATOM      4  C4  <0> d           0.036   3.799   0.021  0.00  0.00     0.144 A 
ATOM      5  N1  <0> d           1.169   3.107   0.007  0.00  0.00    -0.249 NA
ATOM      6  C5  <0> d           1.173   1.791   0.001  0.00  0.00     0.004 A 
ATOM      7  C6  <0> d           0.079   5.231   0.027  0.00  0.00     0.120 C 
ATOM      8  N2  <0> d           0.113   6.366   0.032  0.00  0.00    -0.190 NA
ATOM      9  H1  <0> d           0.002  -0.004   0.002  0.00  0.00     0.085 H 
ATOM     10  H2  <0> d          -2.157   1.224   0.019  0.00  0.00     0.084 H 
ATOM     11  H3  <0> d           2.114   1.261  -0.011  0.00  0.00     0.114 H 
ENDROOT
BRANCH   3  12
ATOM     12  C7  <0> d          -2.479   3.931   0.044  0.00  0.00     0.043 C 
ATOM     13  H4  <0> d          -2.513   4.555   0.938  0.00  0.00     0.081 H 
ATOM     14  H5  <0> d          -2.529   4.564  -0.842  0.00  0.00     0.081 H 
BRANCH  12  15
ATOM     15  O1  <0> d          -3.590   3.031   0.050  0.00  0.00    -0.396 OA
ATOM     16  H6  <0> d          -4.451   3.470   0.060  0.00  0.00     0.209 HD
ENDBRANCH  12  15
ENDBRANCH   3  12
TORSDOF 2
