REMARK  1 active torsions:
REMARK  status: ('A' for Active; 'I' for Inactive)
REMARK    1  A    between atoms: C4_4  and  C6_6 
ROOT
ATOM      1  C6  <0> d          -1.273   2.342   0.021  0.00  0.00     0.035 C 
ATOM      2  C7  <0> d          -1.755   2.521  -1.358  0.00  0.00     0.063 C 
ATOM      3  N1  <0> d          -2.127   2.659  -2.423  0.00  0.00    -0.197 NA
ATOM      4  H8  <0> d          -2.039   1.840   0.612  0.00  0.00     0.061 H 
ATOM      5  H9  <0> d          -1.056   3.316   0.460  0.00  0.00     0.061 H 
ENDROOT
BRANCH   1   6
ATOM      6  C4  <0> d          -0.018   1.507   0.010  0.00  0.00    -0.071 C 
ATOM      7  C3  <0> d           1.193   1.993   0.001  0.00  0.00    -0.100 C 
ATOM      8  C2  <0> d           2.223   0.888  -0.014  0.00  0.00    -0.049 C 
ATOM      9  H5  <0> d           1.428   3.047   0.004  0.00  0.00     0.077 H 
ATOM     10  C1  <0> d           1.446  -0.380   0.409  0.00  0.00    -0.059 C 
ATOM     11  H3  <0> d           3.019   1.101   0.699  0.00  0.00     0.038 H 
ATOM     12  H4  <0> d           2.634   0.764  -1.016  0.00  0.00     0.038 H 
ATOM     13  C5  <0> d           0.002  -0.004   0.002  0.00  0.00    -0.044 C 
ATOM     14  H1  <0> d           1.519  -0.543   1.485  0.00  0.00     0.033 H 
ATOM     15  H2  <0> d           1.792  -1.254  -0.141  0.00  0.00     0.033 H 
ATOM     16  H6  <0> d          -0.711  -0.398   0.726  0.00  0.00     0.039 H 
ATOM     17  H7  <0> d          -0.221  -0.381  -0.996  0.00  0.00     0.039 H 
ENDBRANCH   1   6
TORSDOF 1
