REMARK  1 active torsions:
REMARK  status: ('A' for Active; 'I' for Inactive)
REMARK    1  A    between atoms: C1_1  and  C2_2 
ROOT
ATOM      1  C2  <0> d           0.002  -0.004   0.002  0.00  0.00    -0.053 A 
ATOM      2  C3  <0> d           0.006  -0.691  -1.200  0.00  0.00    -0.077 A 
ATOM      3  C4  <0> d           0.025  -2.073  -1.202  0.00  0.00    -0.080 A 
ATOM      4  C5  <0> d           0.040  -2.773  -0.013  0.00  0.00    -0.057 A 
ATOM      5  C6  <0> d           0.036  -2.089   1.200  0.00  0.00     0.042 A 
ATOM      6  C7  <0> d           0.023  -0.700   1.190  0.00  0.00    -0.017 A 
ATOM      7  C8  <0> d           0.030  -0.263   2.636  0.00  0.00     0.036 A 
ATOM      8  C9  <0> d           0.055  -1.562   3.413  0.00  0.00     0.226 A 
ATOM      9  O1  <0> d           0.068  -1.680   4.620  0.00  0.00    -0.273 OA
ATOM     10  N1  <0> d           0.048  -2.561   2.514  0.00  0.00    -0.326 N 
ATOM     11  H4  <0> d          -0.007  -0.148  -2.134  0.00  0.00     0.084 H 
ATOM     12  H5  <0> d           0.028  -2.608  -2.140  0.00  0.00     0.083 H 
ATOM     13  H6  <0> d           0.055  -3.853  -0.024  0.00  0.00     0.086 H 
ATOM     14  H7  <0> d           0.920   0.329   2.853  0.00  0.00     0.054 H 
ATOM     15  H8  <0> d          -0.872   0.303   2.869  0.00  0.00     0.054 H 
ATOM     16  H9  <0> d           0.061  -3.501   2.750  0.00  0.00     0.169 HD
ENDROOT
BRANCH   1  17
ATOM     17  C1  <0> d          -0.018   1.503   0.010  0.00  0.00    -0.051 C 
ATOM     18  H1  <0> d           1.004   1.880   0.003  0.00  0.00     0.033 H 
ATOM     19  H2  <0> d          -0.545   1.864  -0.873  0.00  0.00     0.033 H 
ATOM     20  H3  <0> d          -0.529   1.854   0.907  0.00  0.00     0.033 H 
ENDBRANCH   1  17
TORSDOF 1
