REMARK  2 active torsions:
REMARK  status: ('A' for Active; 'I' for Inactive)
REMARK    1  A    between atoms: C3_3  and  C7_11 
REMARK    2  A    between atoms: C4_5  and  C6_8 
REMARK       I    between atoms: C6_8  and  N1_10 
REMARK       I    between atoms: C7_11  and  N2_13 
ROOT
ATOM      1  C1  <0> d           0.002  -0.004   0.002  0.00  0.00    -0.063 C 
ATOM      2  C2  <0> d          -0.019   1.534   0.011  0.00  0.00    -0.053 C 
ATOM      3  C3  <0> d           1.453   1.995  -0.001  0.00  0.00     0.035 C 
ATOM      4  H1  <0> d           1.800   2.190   1.014  0.00  0.00     0.056 H 
ATOM      5  C4  <0> d           2.221   0.799  -0.616  0.00  0.00     0.035 C 
ATOM      6  H2  <0> d           2.137   0.804  -1.703  0.00  0.00     0.056 H 
ATOM      7  C5  <0> d           1.486  -0.425  -0.014  0.00  0.00    -0.053 C 
ATOM      8  H3  <0> d          -0.485  -0.389   0.898  0.00  0.00     0.033 H 
ATOM      9  H4  <0> d          -0.502  -0.379  -0.888  0.00  0.00     0.033 H 
ATOM     10  H5  <0> d          -0.533   1.906  -0.876  0.00  0.00     0.034 H 
ATOM     11  H6  <0> d          -0.516   1.896   0.910  0.00  0.00     0.034 H 
ATOM     12  H7  <0> d           1.838  -0.621   0.998  0.00  0.00     0.034 H 
ATOM     13  H8  <0> d           1.627  -1.304  -0.643  0.00  0.00     0.034 H 
ENDROOT
BRANCH   3  14
ATOM     14  C7  <0> d           1.615   3.223  -0.860  0.00  0.00     0.220 C 
ATOM     15  O2  <0> d           2.333   3.190  -1.837  0.00  0.00    -0.273 OA
ATOM     16  N2  <0> d           0.962   4.359  -0.542  0.00  0.00    -0.370 N 
ATOM     17  H11 <0> d           0.388   4.385   0.240  0.00  0.00     0.159 HD
ATOM     18  H12 <0> d           1.066   5.149  -1.094  0.00  0.00     0.159 HD
ENDBRANCH   3  14
BRANCH   5  19
ATOM     19  C6  <0> d           3.668   0.814  -0.194  0.00  0.00     0.220 C 
ATOM     20  O1  <0> d           4.100   1.741   0.457  0.00  0.00    -0.273 OA
ATOM     21  N1  <0> d           4.481  -0.203  -0.541  0.00  0.00    -0.370 N 
ATOM     22  H9  <0> d           4.136  -0.945  -1.062  0.00  0.00     0.159 HD
ATOM     23  H10 <0> d           5.412  -0.194  -0.270  0.00  0.00     0.159 HD
ENDBRANCH   5  19
TORSDOF 2
