REMARK  1 active torsions:
REMARK  status: ('A' for Active; 'I' for Inactive)
REMARK    1  A    between atoms: C2_2  and  C3_3 
ROOT
ATOM      1  C1  <0> d           0.018  -1.178  -0.004  0.00  0.00    -0.149 C 
ATOM      2  C2  <0> d           0.002  -0.004   0.002  0.00  0.00    -0.076 C 
ATOM      3  H1  <0> d           0.032  -2.228  -0.010  0.00  0.00     0.166 H 
ENDROOT
BRANCH   2   4
ATOM      4  C3  <0> d          -0.017   1.428   0.010  0.00  0.00     0.034 A 
ATOM      5  C7  <0> d           1.174   2.153   0.002  0.00  0.00     0.022 A 
ATOM      6  N1  <0> d           1.157   3.470   0.003  0.00  0.00    -0.247 NA
ATOM      7  H4  <0> d           2.119   1.630  -0.009  0.00  0.00     0.117 H 
ATOM      8  C6  <0> d           0.027   4.152   0.024  0.00  0.00     0.125 A 
ATOM      9  C5  <0> d          -1.197   3.505   0.038  0.00  0.00    -0.042 A 
ATOM     10 Cl1  <0> d           0.077   5.887   0.032  0.00  0.00    -0.062 Cl
ATOM     11  C4  <0> d          -1.232   2.123   0.031  0.00  0.00    -0.060 A 
ATOM     12  H3  <0> d          -2.115   4.074   0.054  0.00  0.00     0.088 H 
ATOM     13  H2  <0> d          -2.173   1.593   0.042  0.00  0.00     0.086 H 
ENDBRANCH   2   4
TORSDOF 1
