REMARK  3 active torsions:
REMARK  status: ('A' for Active; 'I' for Inactive)
REMARK    1  A    between atoms: C1_1  and  C2_2 
REMARK    2  A    between atoms: C2_2  and  C3_4 
REMARK    3  A    between atoms: C2_2  and  O1_10 
ROOT
ATOM      1  C3  <0> d          -0.749   3.086   1.275  0.00  0.00    -0.013 A 
ATOM      2  C4  <0> d          -1.884   3.775   0.875  0.00  0.00    -0.072 A 
ATOM      3  C5  <0> d          -1.859   5.161   0.903  0.00  0.00    -0.065 A 
ATOM      4  C6  <0> d          -0.708   5.805   1.317  0.00  0.00     0.002 A 
ATOM      5  N1  <0> d           0.354   5.117   1.686  0.00  0.00    -0.272 NA
ATOM      6  C7  <0> d           0.365   3.799   1.676  0.00  0.00     0.010 A 
ATOM      7  H5  <0> d          -2.768   3.245   0.553  0.00  0.00     0.084 H 
ATOM      8  H6  <0> d          -2.726   5.730   0.602  0.00  0.00     0.085 H 
ATOM      9  H7  <0> d          -0.679   6.885   1.339  0.00  0.00     0.114 H 
ATOM     10  H8  <0> d           1.254   3.270   1.985  0.00  0.00     0.115 H 
ENDROOT
BRANCH   1  11
ATOM     11  C2  <0> d          -0.729   1.579   1.267  0.00  0.00     0.059 C 
ATOM     12  H1  <0> d          -1.751   1.202   1.275  0.00  0.00     0.090 H 
BRANCH  11  13
ATOM     13  C1  <0> d          -0.013   1.086   0.008  0.00  0.00    -0.049 C 
ATOM     14  H2  <0> d           0.002  -0.004   0.002  0.00  0.00     0.031 H 
ATOM     15  H3  <0> d           1.010   1.463   0.000  0.00  0.00     0.031 H 
ATOM     16  H4  <0> d          -0.540   1.447  -0.875  0.00  0.00     0.031 H 
ENDBRANCH  11  13
BRANCH  11  17
ATOM     17  O1  <0> d          -0.038   1.106   2.425  0.00  0.00    -0.391 OA
ATOM     18  H9  <0> d           0.880   1.403   2.483  0.00  0.00     0.210 HD
ENDBRANCH  11  17
ENDBRANCH   1  11
TORSDOF 3
