REMARK  0 active torsions:
REMARK  status: ('A' for Active; 'I' for Inactive)
ROOT
ATOM      1  C1  <0> d          -0.017   1.405   0.010  0.00  0.00    -0.012 A 
ATOM      2  C2  <0> d           1.160   2.087   0.002  0.00  0.00    -0.022 A 
ATOM      3  C3  <0> d           2.376   1.379  -0.013  0.00  0.00     0.218 A 
ATOM      4  O1  <0> d           3.552   2.059  -0.021  0.00  0.00    -0.169 OA
ATOM      5  N1  <0> d           2.383   0.070  -0.020  0.00  0.00    -0.143 NA
ATOM      6  N2  <0> d           1.184  -0.652  -0.012  0.00  0.00    -0.241 N 
ATOM      7  H1  <0> d           1.204  -1.622  -0.017  0.00  0.00     0.192 HD
ATOM      8  C4  <0> d           0.002  -0.004   0.002  0.00  0.00     0.261 A 
ATOM      9  O2  <0> d          -1.044  -0.633   0.009  0.00  0.00    -0.267 OA
ATOM     10  H2  <0> d          -0.956   1.938   0.026  0.00  0.00     0.092 H 
ATOM     11  H3  <0> d           1.161   3.167   0.008  0.00  0.00     0.090 H 
ENDROOT
TORSDOF 0
