REMARK  5 active torsions:
REMARK  status: ('A' for Active; 'I' for Inactive)
REMARK    1  A    between atoms: C1_1  and  C2_2 
REMARK       I    between atoms: C2_2  and  N1_4 
REMARK    2  A    between atoms: N1_4  and  C3_5 
REMARK    3  A    between atoms: C3_5  and  C4_6 
REMARK    4  A    between atoms: C4_6  and  C7_9 
REMARK    5  A    between atoms: C7_9  and  O2_10 
ROOT
ATOM      1  C4  <0> d          -2.530  -2.787  -0.053  0.00  0.00    -0.003 A 
ATOM      2  C5  <0> d          -2.687  -3.057  -1.551  0.00  0.00    -0.054 A 
ATOM      3  C6  <0> d          -2.870  -4.196  -0.546  0.00  0.00    -0.054 A 
ATOM      4  H7  <0> d          -3.580  -2.670  -2.041  0.00  0.00     0.034 H 
ATOM      5  H8  <0> d          -1.782  -3.063  -2.159  0.00  0.00     0.034 H 
ATOM      6  H9  <0> d          -2.085  -4.950  -0.492  0.00  0.00     0.034 H 
ATOM      7  H10 <0> d          -3.884  -4.557  -0.374  0.00  0.00     0.034 H 
ENDROOT
BRANCH   1   8
ATOM      8  C3  <0> d          -1.115  -2.547   0.477  0.00  0.00     0.004 C 
ATOM      9  H5  <0> d          -0.987  -1.488   0.703  0.00  0.00     0.065 H 
ATOM     10  H6  <0> d          -0.388  -2.848  -0.277  0.00  0.00     0.065 H 
BRANCH   8  11
ATOM     11  N1  <0> d          -0.909  -3.334   1.695  0.00  0.00    -0.361 N 
ATOM     12  C2  <0> d           0.304  -3.367   2.280  0.00  0.00     0.213 C 
ATOM     13  O1  <0> d           1.227  -2.744   1.797  0.00  0.00    -0.274 OA
ATOM     14  H4  <0> d          -1.647  -3.832   2.081  0.00  0.00     0.162 HD
BRANCH  12  15
ATOM     15  C1  <0> d           0.516  -4.176   3.533  0.00  0.00    -0.003 C 
ATOM     16  H1  <0> d           1.552  -4.082   3.857  0.00  0.00     0.040 H 
ATOM     17  H2  <0> d          -0.145  -3.809   4.319  0.00  0.00     0.040 H 
ATOM     18  H3  <0> d           0.293  -5.224   3.331  0.00  0.00     0.040 H 
ENDBRANCH  12  15
ENDBRANCH   8  11
ENDBRANCH   1   8
BRANCH   1  19
ATOM     19  C7  <0> d          -3.639  -1.995   0.642  0.00  0.00     0.025 C 
ATOM     20  H11 <0> d          -4.607  -2.307   0.252  0.00  0.00     0.075 H 
ATOM     21  H12 <0> d          -3.601  -2.183   1.715  0.00  0.00     0.075 H 
BRANCH  19  22
ATOM     22  O2  <0> d          -3.453  -0.600   0.397  0.00  0.00    -0.400 OA
ATOM     23  H13 <0> d          -4.122  -0.036   0.809  0.00  0.00     0.209 HD
ENDBRANCH  19  22
ENDBRANCH   1  19
TORSDOF 5
