REMARK  7 active torsions:
REMARK  status: ('A' for Active; 'I' for Inactive)
REMARK    1  A    between atoms: C1_1  and  C2_2 
REMARK    2  A    between atoms: C2_2  and  C3_4 
REMARK    3  A    between atoms: C2_2  and  O2_9 
REMARK    4  A    between atoms: C3_4  and  C4_5 
REMARK    5  A    between atoms: C3_4  and  O1_7 
REMARK    6  A    between atoms: C4_5  and  C5_6 
REMARK    7  A    between atoms: O1_7  and  C6_8 
ROOT
ATOM      1  C3  <0> d          -1.412  -0.526   0.013  0.00  0.00     0.181 C 
ENDROOT
BRANCH   1   2
ATOM      2  C2  <0> d           0.002  -0.004   0.002  0.00  0.00     0.076 C 
ATOM      3  H1  <0> d           0.529  -0.365   0.885  0.00  0.00     0.088 H 
BRANCH   2   4
ATOM      4  C1  <0> d          -0.019   1.526   0.010  0.00  0.00    -0.049 C 
ATOM      5  H2  <0> d           1.004   1.903   0.003  0.00  0.00     0.031 H 
ATOM      6  H3  <0> d          -0.546   1.887  -0.873  0.00  0.00     0.031 H 
ATOM      7  H4  <0> d          -0.529   1.877   0.907  0.00  0.00     0.031 H 
ENDBRANCH   2   4
BRANCH   2   8
ATOM      8  O2  <0> d           0.671  -0.465  -1.174  0.00  0.00    -0.392 OA
ATOM      9  H10 <0> d           1.588  -0.167  -1.247  0.00  0.00     0.210 HD
ENDBRANCH   2   8
ENDBRANCH   1   2
BRANCH   1  10
ATOM     10  C4  <0> d          -1.901  -1.109  -1.049  0.00  0.00    -0.138 C 
BRANCH  10  11
ATOM     11  C5  <0> d          -2.390  -1.693  -2.112  0.00  0.00    -0.009 C 
ATOM     12  H5  <0> d          -2.900  -1.108  -2.863  0.00  0.00     0.051 H 
ATOM     13  H6  <0> d          -2.285  -2.760  -2.238  0.00  0.00     0.051 H 
ENDBRANCH  10  11
ENDBRANCH   1  10
BRANCH   1  14
ATOM     14  O1  <0> d          -2.175  -0.390   1.122  0.00  0.00    -0.366 OA
BRANCH  14  15
ATOM     15  C6  <0> d          -3.505  -0.907   1.061  0.00  0.00     0.006 C 
ATOM     16  H7  <0> d          -4.054  -0.406   0.265  0.00  0.00     0.066 H 
ATOM     17  H8  <0> d          -3.470  -1.978   0.860  0.00  0.00     0.066 H 
ATOM     18  H9  <0> d          -4.006  -0.733   2.014  0.00  0.00     0.066 H 
ENDBRANCH  14  15
ENDBRANCH   1  14
TORSDOF 7
