REMARK  2 active torsions:
REMARK  status: ('A' for Active; 'I' for Inactive)
REMARK    1  A    between atoms: C4_4  and  N1_7 
REMARK       I    between atoms: N1_7  and  C7_8 
REMARK    2  A    between atoms: C7_8  and  O2_10 
ROOT
ATOM      1  C1  <0> d           2.261   6.067  -0.814  0.00  0.00    -0.065 C 
ATOM      2  C2  <0> d           2.407   5.551   0.619  0.00  0.00    -0.063 C 
ATOM      3  C3  <0> d           2.428   4.021   0.610  0.00  0.00    -0.046 C 
ATOM      4  C4  <0> d           1.122   3.497   0.010  0.00  0.00     0.015 C 
ATOM      5  C5  <0> d           0.976   4.013  -1.423  0.00  0.00    -0.046 C 
ATOM      6  C6  <0> d           0.955   5.543  -1.414  0.00  0.00    -0.063 C 
ATOM      7  H1  <0> d           2.246   7.157  -0.808  0.00  0.00     0.033 H 
ATOM      8  H2  <0> d           3.102   5.718  -1.414  0.00  0.00     0.033 H 
ATOM      9  H3  <0> d           1.566   5.900   1.218  0.00  0.00     0.033 H 
ATOM     10  H4  <0> d           3.338   5.925   1.046  0.00  0.00     0.033 H 
ATOM     11  H5  <0> d           2.532   3.654   1.631  0.00  0.00     0.035 H 
ATOM     12  H6  <0> d           3.269   3.672   0.011  0.00  0.00     0.035 H 
ATOM     13  H7  <0> d           0.281   3.845   0.610  0.00  0.00     0.072 H 
ATOM     14  H8  <0> d           1.817   3.664  -2.022  0.00  0.00     0.035 H 
ATOM     15  H9  <0> d           0.045   3.639  -1.850  0.00  0.00     0.035 H 
ATOM     16  H10 <0> d           0.114   5.891  -0.815  0.00  0.00     0.033 H 
ATOM     17  H11 <0> d           0.851   5.910  -2.435  0.00  0.00     0.033 H 
ENDROOT
BRANCH   4  18
ATOM     18  N1  <0> d           1.142   2.032   0.002  0.00  0.00    -0.333 N 
ATOM     19  C7  <0> d          -0.016   1.342   0.009  0.00  0.00     0.249 C 
ATOM     20  O1  <0> d          -1.077   1.935   0.018  0.00  0.00    -0.632 OA
ATOM     21  H12 <0> d           1.988   1.558  -0.009  0.00  0.00     0.165 HD
BRANCH  19  22
ATOM     22  O2  <0> d           0.002  -0.004   0.002  0.00  0.00    -0.760 OA
ATOM     23  H13 <0> d          -0.854  -0.455   0.008  0.00  0.00     0.169 HD
ENDBRANCH  19  22
ENDBRANCH   4  18
TORSDOF 2
