REMARK  5 active torsions:
REMARK  status: ('A' for Active; 'I' for Inactive)
REMARK    1  A    between atoms: C1_1  and  C2_2 
REMARK    2  A    between atoms: C2_2  and  C3_3 
REMARK    3  A    between atoms: C4_4  and  C8_10 
REMARK    4  A    between atoms: C5_6  and  C7_9 
REMARK    5  A    between atoms: C8_10  and  C9_11 
ROOT
ATOM      1  C3  <0> d          -1.158  -0.400  -0.083  0.00  0.00     0.058 A 
ATOM      2  C4  <0> d          -2.020  -0.669   0.966  0.00  0.00     0.059 A 
ATOM      3  N1  <0> d          -3.235  -1.128   0.721  0.00  0.00    -0.255 NA
ATOM      4  C5  <0> d          -3.626  -1.331  -0.525  0.00  0.00     0.048 A 
ATOM      5  C6  <0> d          -2.764  -1.062  -1.573  0.00  0.00     0.026 A 
ATOM      6  N2  <0> d          -1.551  -0.598  -1.329  0.00  0.00    -0.261 NA
ATOM      7  H6  <0> d          -3.084  -1.228  -2.591  0.00  0.00     0.117 H 
ENDROOT
BRANCH   1   8
ATOM      8  C2  <0> d           0.227   0.125   0.196  0.00  0.00    -0.026 C 
ATOM      9  H4  <0> d           0.215   0.710   1.115  0.00  0.00     0.041 H 
ATOM     10  H5  <0> d           0.550   0.756  -0.632  0.00  0.00     0.041 H 
BRANCH   8  11
ATOM     11  C1  <0> d           1.195  -1.049   0.351  0.00  0.00    -0.071 C 
ATOM     12  H1  <0> d           2.191  -0.670   0.582  0.00  0.00     0.028 H 
ATOM     13  H2  <0> d           0.856  -1.696   1.159  0.00  0.00     0.028 H 
ATOM     14  H3  <0> d           1.230  -1.617  -0.579  0.00  0.00     0.028 H 
ENDBRANCH   8  11
ENDBRANCH   1   8
BRANCH   2  15
ATOM     15  C8  <0> d          -1.574  -0.438   2.386  0.00  0.00    -0.026 C 
ATOM     16  H10 <0> d          -2.052  -1.167   3.040  0.00  0.00     0.041 H 
ATOM     17  H11 <0> d          -0.491  -0.547   2.450  0.00  0.00     0.041 H 
BRANCH  15  18
ATOM     18  C9  <0> d          -1.970   0.974   2.822  0.00  0.00    -0.071 C 
ATOM     19  H12 <0> d          -1.518   1.703   2.149  0.00  0.00     0.028 H 
ATOM     20  H13 <0> d          -3.055   1.074   2.789  0.00  0.00     0.028 H 
ATOM     21  H14 <0> d          -1.619   1.153   3.839  0.00  0.00     0.028 H 
ENDBRANCH  15  18
ENDBRANCH   2  15
BRANCH   4  22
ATOM     22  C7  <0> d          -5.011  -1.856  -0.804  0.00  0.00    -0.034 C 
ATOM     23  H7  <0> d          -5.701  -1.020  -0.916  0.00  0.00     0.035 H 
ATOM     24  H8  <0> d          -4.999  -2.443  -1.722  0.00  0.00     0.035 H 
ATOM     25  H9  <0> d          -5.335  -2.485   0.025  0.00  0.00     0.035 H 
ENDBRANCH   4  22
TORSDOF 5
