REMARK  0 active torsions:
REMARK  status: ('A' for Active; 'I' for Inactive)
ROOT
ATOM      1  C1  <0> d          -2.259   0.762  -0.206  0.00  0.00    -0.062 C 
ATOM      2  C2  <0> d          -1.376  -0.179   0.675  0.00  0.00    -0.052 C 
ATOM      3  C3  <0> d           0.002  -0.004   0.002  0.00  0.00     0.043 C 
ATOM      4  H1  <0> d           0.135  -0.521  -0.948  0.00  0.00     0.057 H 
ATOM      5  C4  <0> d          -0.019   1.580   0.011  0.00  0.00     0.024 C 
ATOM      6  H2  <0> d          -0.248   1.921   1.020  0.00  0.00     0.073 H 
ATOM      7  C5  <0> d          -1.268   1.844  -0.741  0.00  0.00    -0.045 C 
ATOM      8  N1  <0> d           1.360   1.435  -0.003  0.00  0.00    -0.355 N 
ATOM      9  C6  <0> d           1.250   0.295   0.773  0.00  0.00     0.224 C 
ATOM     10  O1  <0> d           1.879  -0.225   1.670  0.00  0.00    -0.273 OA
ATOM     11  H3  <0> d          -2.697   0.206  -1.035  0.00  0.00     0.033 H 
ATOM     12  H4  <0> d          -3.040   1.225   0.396  0.00  0.00     0.033 H 
ATOM     13  H5  <0> d          -1.717  -1.212   0.610  0.00  0.00     0.034 H 
ATOM     14  H6  <0> d          -1.353   0.160   1.711  0.00  0.00     0.034 H 
ATOM     15  H7  <0> d          -1.641   2.845  -0.525  0.00  0.00     0.036 H 
ATOM     16  H8  <0> d          -1.104   1.717  -1.811  0.00  0.00     0.036 H 
ATOM     17  H9  <0> d           2.097   1.929  -0.396  0.00  0.00     0.162 HD
ENDROOT
TORSDOF 0
