REMARK  1 active torsions:
REMARK  status: ('A' for Active; 'I' for Inactive)
REMARK    1  A    between atoms: C2_2  and  C5_7 
REMARK       I    between atoms: C5_7  and  N3_9 
ROOT
ATOM      1  C1  <0> d           1.258   3.499   0.009  0.00  0.00     0.020 A 
ATOM      2  C2  <0> d           1.254   2.100   0.001  0.00  0.00     0.066 A 
ATOM      3  C3  <0> d           2.486   1.437  -0.008  0.00  0.00     0.020 A 
ATOM      4  N1  <0> d           3.597   2.153  -0.021  0.00  0.00    -0.253 NA
ATOM      5  C4  <0> d           3.555   3.471  -0.013  0.00  0.00     0.086 A 
ATOM      6  N2  <0> d           2.416   4.135   0.001  0.00  0.00    -0.253 NA
ATOM      7  H1  <0> d           0.329   4.051   0.021  0.00  0.00     0.116 H 
ATOM      8  H2  <0> d           2.529   0.358  -0.009  0.00  0.00     0.116 H 
ATOM      9  H3  <0> d           4.483   4.023  -0.019  0.00  0.00     0.146 H 
ENDROOT
BRANCH   2  10
ATOM     10  C5  <0> d          -0.016   1.344   0.009  0.00  0.00     0.252 C 
ATOM     11  O1  <0> d          -1.077   1.937   0.018  0.00  0.00    -0.268 OA
ATOM     12  N3  <0> d           0.002  -0.004   0.002  0.00  0.00    -0.366 N 
ATOM     13  H4  <0> d           0.849  -0.478  -0.009  0.00  0.00     0.159 HD
ATOM     14  H5  <0> d          -0.831  -0.500   0.007  0.00  0.00     0.159 HD
ENDBRANCH   2  10
TORSDOF 1
