REMARK  3 active torsions:
REMARK  status: ('A' for Active; 'I' for Inactive)
REMARK    1  A    between atoms: C1_1  and  C2_2 
REMARK    2  A    between atoms: C2_2  and  O1_3 
REMARK    3  A    between atoms: O1_3  and  C3_4 
ROOT
ATOM      1  C3  <0> d          -0.050   3.842   0.023  0.00  0.00     0.068 A 
ATOM      2  C4  <0> d           1.160   3.163   0.007  0.00  0.00    -0.051 A 
ATOM      3  C5  <0> d           1.176   1.782   0.000  0.00  0.00    -0.080 A 
ATOM      4  C6  <0> d          -0.013   1.076   0.008  0.00  0.00    -0.083 A 
ATOM      5  C7  <0> d          -1.220   1.750   0.017  0.00  0.00    -0.080 A 
ATOM      6  C8  <0> d          -1.241   3.131   0.031  0.00  0.00    -0.051 A 
ATOM      7  H6  <0> d           2.089   3.715   0.001  0.00  0.00     0.087 H 
ATOM      8  H7  <0> d           2.118   1.254  -0.011  0.00  0.00     0.083 H 
ATOM      9  H8  <0> d           0.002  -0.004   0.002  0.00  0.00     0.083 H 
ATOM     10  H9  <0> d          -2.147   1.196   0.018  0.00  0.00     0.083 H 
ATOM     11  H10 <0> d          -2.185   3.657   0.042  0.00  0.00     0.087 H 
ENDROOT
BRANCH   1  12
ATOM     12  O1  <0> d          -0.069   5.201   0.029  0.00  0.00    -0.352 OA
BRANCH  12  13
ATOM     13  C2  <0> d          -1.350   5.832   0.045  0.00  0.00     0.023 C 
ATOM     14  H4  <0> d          -1.912   5.536  -0.841  0.00  0.00     0.074 H 
ATOM     15  H5  <0> d          -1.895   5.527   0.939  0.00  0.00     0.074 H 
BRANCH  13  16
ATOM     16  C1  <0> d          -1.171   7.351   0.050  0.00  0.00    -0.056 C 
ATOM     17  H1  <0> d          -2.148   7.833   0.062  0.00  0.00     0.030 H 
ATOM     18  H2  <0> d          -0.609   7.648   0.936  0.00  0.00     0.030 H 
ATOM     19  H3  <0> d          -0.626   7.656  -0.844  0.00  0.00     0.030 H 
ENDBRANCH  13  16
ENDBRANCH  12  13
ENDBRANCH   1  12
TORSDOF 3
