REMARK  4 active torsions:
REMARK  status: ('A' for Active; 'I' for Inactive)
REMARK    1  A    between atoms: C4_4  and  C6_6 
REMARK    2  A    between atoms: C4_4  and  C7_8 
REMARK    3  A    between atoms: C6_6  and  O1_7 
REMARK    4  A    between atoms: C7_8  and  O2_9 
ROOT
ATOM      1  C1  <0> d          -1.971   2.853   0.739  0.00  0.00    -0.064 C 
ATOM      2  C2  <0> d          -2.226   2.298  -0.684  0.00  0.00    -0.064 C 
ATOM      3  C3  <0> d          -0.792   2.050  -1.217  0.00  0.00    -0.054 C 
ATOM      4  C4  <0> d          -0.019   1.526   0.010  0.00  0.00     0.002 C 
ATOM      5  C5  <0> d          -0.767   2.036   1.254  0.00  0.00    -0.054 C 
ATOM      6  H1  <0> d          -1.722   3.913   0.696  0.00  0.00     0.033 H 
ATOM      7  H2  <0> d          -2.843   2.692   1.373  0.00  0.00     0.033 H 
ATOM      8  H3  <0> d          -2.744   3.034  -1.299  0.00  0.00     0.033 H 
ATOM      9  H4  <0> d          -2.788   1.365  -0.640  0.00  0.00     0.033 H 
ATOM     10  H5  <0> d          -0.353   2.981  -1.575  0.00  0.00     0.034 H 
ATOM     11  H6  <0> d          -0.804   1.302  -2.009  0.00  0.00     0.034 H 
ATOM     12  H7  <0> d          -1.115   1.194   1.852  0.00  0.00     0.034 H 
ATOM     13  H8  <0> d          -0.111   2.671   1.850  0.00  0.00     0.034 H 
ENDROOT
BRANCH   4  14
ATOM     14  C6  <0> d           0.002  -0.004   0.002  0.00  0.00     0.026 C 
ATOM     15  H9  <0> d          -1.020  -0.381   0.022  0.00  0.00     0.075 H 
ATOM     16  H10 <0> d           0.501  -0.356  -0.901  0.00  0.00     0.075 H 
BRANCH  14  17
ATOM     17  O1  <0> d           0.707  -0.477   1.151  0.00  0.00    -0.400 OA
ATOM     18  H11 <0> d           0.760  -1.441   1.211  0.00  0.00     0.209 HD
ENDBRANCH  14  17
ENDBRANCH   4  14
BRANCH   4  19
ATOM     19  C7  <0> d           1.412   2.069  -0.000  0.00  0.00     0.026 C 
ATOM     20  H12 <0> d           1.921   1.733  -0.903  0.00  0.00     0.075 H 
ATOM     21  H13 <0> d           1.387   3.159   0.018  0.00  0.00     0.075 H 
BRANCH  19  22
ATOM     22  O2  <0> d           2.112   1.589   1.149  0.00  0.00    -0.400 OA
ATOM     23  H14 <0> d           3.028   1.894   1.208  0.00  0.00     0.209 HD
ENDBRANCH  19  22
ENDBRANCH   4  19
TORSDOF 4
