REMARK  0 active torsions:
REMARK  status: ('A' for Active; 'I' for Inactive)
ROOT
ATOM      1  C1  <0> d          -0.078   3.736   0.023  0.00  0.00    -0.016 A 
ATOM      2  C2  <0> d           1.146   3.060   0.008  0.00  0.00     0.117 A 
ATOM      3  C3  <0> d           1.151   1.645  -0.000  0.00  0.00     0.290 A 
ATOM      4  O1  <0> d           2.210   1.040  -0.014  0.00  0.00    -0.264 OA
ATOM      5  N1  <0> d          -0.011   0.966   0.007  0.00  0.00    -0.179 NA
ATOM      6  C4  <0> d          -1.203   1.619   0.017  0.00  0.00     0.242 A 
ATOM      7  C5  <0> d          -1.255   3.000   0.030  0.00  0.00     0.173 A 
ATOM      8  F1  <0> d          -2.449   3.632   0.045  0.00  0.00    -0.201 F 
ATOM      9  O2  <0> d          -2.352   0.909   0.018  0.00  0.00    -0.167 OA
ATOM     10  C6  <0> d           2.378   3.790   0.000  0.00  0.00     0.105 C 
ATOM     11  N2  <0> d           3.355   4.370  -0.006  0.00  0.00    -0.191 NA
ATOM     12  H1  <0> d          -0.107   4.816   0.029  0.00  0.00     0.091 H 
ENDROOT
TORSDOF 0
