REMARK  3 active torsions:
REMARK  status: ('A' for Active; 'I' for Inactive)
REMARK    1  A    between atoms: C1_1  and  O1_2 
REMARK    2  A    between atoms: O1_2  and  C2_3 
REMARK    3  A    between atoms: C2_3  and  C3_5 
ROOT
ATOM      1  C3  <0> d           0.679  -2.115   1.088  0.00  0.00     0.053 C 
ATOM      2  H1  <0> d           1.185  -2.517   0.210  0.00  0.00     0.058 H 
ATOM      3  C4  <0> d           1.375  -2.589   2.393  0.00  0.00    -0.031 C 
ATOM      4  C5  <0> d           0.710  -3.974   2.595  0.00  0.00     0.020 C 
ATOM      5  O3  <0> d          -0.650  -3.803   2.164  0.00  0.00    -0.390 OA
ATOM      6  C6  <0> d          -0.736  -2.717   1.229  0.00  0.00     0.031 C 
ATOM      7  H5  <0> d           2.451  -2.688   2.251  0.00  0.00     0.037 H 
ATOM      8  H6  <0> d           1.150  -1.920   3.224  0.00  0.00     0.037 H 
ATOM      9  H7  <0> d           1.209  -4.726   1.985  0.00  0.00     0.074 H 
ATOM     10  H8  <0> d           0.740  -4.258   3.647  0.00  0.00     0.074 H 
ATOM     11  H9  <0> d          -1.424  -1.960   1.605  0.00  0.00     0.075 H 
ATOM     12  H10 <0> d          -1.080  -3.083   0.262  0.00  0.00     0.075 H 
ENDROOT
BRANCH   1  13
ATOM     13  C2  <0> d           0.618  -0.611   1.029  0.00  0.00     0.264 C 
ATOM     14  O2  <0> d           1.124   0.049   1.905  0.00  0.00    -0.265 OA
BRANCH  13  15
ATOM     15  O1  <0> d           0.002  -0.004   0.002  0.00  0.00    -0.326 OA
BRANCH  15  16
ATOM     16  C1  <0> d          -0.017   1.425   0.010  0.00  0.00     0.013 C 
ATOM     17  H2  <0> d           1.005   1.802   0.002  0.00  0.00     0.067 H 
ATOM     18  H3  <0> d          -0.544   1.786  -0.873  0.00  0.00     0.067 H 
ATOM     19  H4  <0> d          -0.527   1.776   0.907  0.00  0.00     0.067 H 
ENDBRANCH  15  16
ENDBRANCH  13  15
ENDBRANCH   1  13
TORSDOF 3
