REMARK  2 active torsions:
REMARK  status: ('A' for Active; 'I' for Inactive)
REMARK    1  A    between atoms: N1_4  and  C5_6 
REMARK    2  A    between atoms: C5_6  and  C6_7 
ROOT
ATOM      1  C5  <0> d          -2.524   1.026   0.020  0.00  0.00     0.024 C 
ATOM      2  H5  <0> d          -3.282   1.623  -0.487  0.00  0.00     0.072 H 
ATOM      3  H6  <0> d          -2.403   0.075  -0.499  0.00  0.00     0.072 H 
ENDROOT
BRANCH   1   4
ATOM      4  N1  <0> d          -2.942   0.778   1.402  0.00  0.00    -0.362 N 
ATOM      5  C3  <0> d          -3.716   1.607   2.159  0.00  0.00    -0.021 A 
ATOM      6  C2  <0> d          -3.884   1.038   3.370  0.00  0.00    -0.067 A 
ATOM      7  H3  <0> d          -4.123   2.556   1.843  0.00  0.00     0.111 H 
ATOM      8  C1  <0> d          -3.188  -0.187   3.360  0.00  0.00    -0.067 A 
ATOM      9  H2  <0> d          -4.447   1.447   4.196  0.00  0.00     0.085 H 
ATOM     10  C4  <0> d          -2.627  -0.323   2.142  0.00  0.00    -0.021 A 
ATOM     11  H1  <0> d          -3.121  -0.890   4.177  0.00  0.00     0.085 H 
ATOM     12  H4  <0> d          -2.029  -1.159   1.810  0.00  0.00     0.111 H 
ENDBRANCH   1   4
BRANCH   1  13
ATOM     13  C6  <0> d          -1.213   1.769   0.017  0.00  0.00    -0.022 A 
ATOM     14  C10 <0> d          -1.193   3.151   0.030  0.00  0.00     0.009 A 
ATOM     15  N2  <0> d          -0.050   3.809   0.022  0.00  0.00    -0.273 NA
ATOM     16  H10 <0> d          -2.124   3.699   0.041  0.00  0.00     0.115 H 
ATOM     17  C9  <0> d           1.111   3.183   0.008  0.00  0.00     0.002 A 
ATOM     18  C8  <0> d           1.169   1.802   0.001  0.00  0.00    -0.065 A 
ATOM     19  H9  <0> d           2.026   3.755   0.002  0.00  0.00     0.114 H 
ATOM     20  C7  <0> d          -0.013   1.076   0.008  0.00  0.00    -0.072 A 
ATOM     21  H8  <0> d           2.122   1.294  -0.011  0.00  0.00     0.085 H 
ATOM     22  H7  <0> d           0.002  -0.004   0.002  0.00  0.00     0.084 H 
ENDBRANCH   1  13
TORSDOF 2
