REMARK  5 active torsions:
REMARK  status: ('A' for Active; 'I' for Inactive)
REMARK    1  A    between atoms: C1_1  and  C2_2 
REMARK    2  A    between atoms: C2_2  and  O1_3 
REMARK    3  A    between atoms: O1_3  and  C3_4 
REMARK    4  A    between atoms: C3_4  and  O3_6 
REMARK    5  A    between atoms: O3_6  and  C4_7 
ROOT
ATOM      1  O1  <0> d          -1.188   1.867   0.018  0.00  0.00    -0.298 OA
ENDROOT
BRANCH   1   2
ATOM      2  C2  <0> d          -2.395   1.060   0.019  0.00  0.00     0.028 C 
ATOM      3  H4  <0> d          -2.408   0.420   0.914  0.00  0.00     0.074 H 
ATOM      4  H5  <0> d          -2.416   0.430  -0.882  0.00  0.00     0.074 H 
BRANCH   2   5
ATOM      5  C1  <0> d          -3.621   1.975   0.030  0.00  0.00    -0.056 C 
ATOM      6  H1  <0> d          -4.535   1.363   0.031  0.00  0.00     0.030 H 
ATOM      7  H2  <0> d          -3.609   2.615  -0.865  0.00  0.00     0.030 H 
ATOM      8  H3  <0> d          -3.600   2.605   0.931  0.00  0.00     0.030 H 
ENDBRANCH   2   5
ENDBRANCH   1   2
BRANCH   1   9
ATOM      9  C3  <0> d          -0.014   1.210   0.009  0.00  0.00     0.406 C 
ATOM     10  O2  <0> d           0.002  -0.004   0.002  0.00  0.00    -0.230 OA
BRANCH   9  11
ATOM     11  O3  <0> d           1.141   1.899   0.001  0.00  0.00    -0.303 OA
BRANCH  11  12
ATOM     12  C4  <0> d           2.370   1.124  -0.015  0.00  0.00     0.015 C 
ATOM     13  H6  <0> d           3.233   1.806  -0.019  0.00  0.00     0.067 H 
ATOM     14  H7  <0> d           2.395   0.495  -0.916  0.00  0.00     0.067 H 
ATOM     15  H8  <0> d           2.412   0.485   0.880  0.00  0.00     0.067 H 
ENDBRANCH  11  12
ENDBRANCH   9  11
ENDBRANCH   1   9
TORSDOF 5
