REMARK  5 active torsions:
REMARK  status: ('A' for Active; 'I' for Inactive)
REMARK    1  A    between atoms: C1_1  and  C2_2 
REMARK    2  A    between atoms: C2_2  and  C3_3 
REMARK    3  A    between atoms: C2_2  and  C4_4 
REMARK    4  A    between atoms: C4_4  and  C5_5 
REMARK    5  A    between atoms: C5_5  and  S1_6 
ROOT
ATOM      1  C2  <0> d          -0.013   1.086   0.008  0.00  0.00    -0.060 C 
ATOM      2  H4  <0> d           0.002  -0.004   0.002  0.00  0.00     0.038 H 
ENDROOT
BRANCH   1   3
ATOM      3  C1  <0> d           1.423   1.615  -0.003  0.00  0.00    -0.073 C 
ATOM      4  H1  <0> d           1.408   2.705   0.003  0.00  0.00     0.028 H 
ATOM      5  H2  <0> d           1.950   1.254   0.880  0.00  0.00     0.028 H 
ATOM      6  H3  <0> d           1.933   1.264  -0.900  0.00  0.00     0.028 H 
ENDBRANCH   1   3
BRANCH   1   7
ATOM      7  C3  <0> d          -0.753   1.593  -1.232  0.00  0.00    -0.073 C 
ATOM      8  H5  <0> d          -0.242   1.241  -2.128  0.00  0.00     0.028 H 
ATOM      9  H6  <0> d          -1.775   1.215  -1.224  0.00  0.00     0.028 H 
ATOM     10  H7  <0> d          -0.767   2.683  -1.226  0.00  0.00     0.028 H 
ENDBRANCH   1   7
BRANCH   1  11
ATOM     11  C4  <0> d          -0.729   1.579   1.267  0.00  0.00    -0.048 C 
ATOM     12  H8  <0> d          -0.154   1.294   2.148  0.00  0.00     0.035 H 
ATOM     13  H9  <0> d          -0.822   2.665   1.230  0.00  0.00     0.035 H 
BRANCH  11  14
ATOM     14  C5  <0> d          -2.121   0.950   1.341  0.00  0.00     0.046 C 
ATOM     15  H10 <0> d          -2.697   1.235   0.460  0.00  0.00     0.060 H 
ATOM     16  H11 <0> d          -2.028  -0.136   1.378  0.00  0.00     0.060 H 
BRANCH  14  17
ATOM     17  S1  <0> d          -2.970   1.535   2.834  0.00  0.00     0.101 S 
ATOM     18  O1  <0> d          -2.332   1.020   3.994  0.00  0.00    -0.595 OA
ATOM     19  O2  <0> d          -3.259   2.922   2.721  0.00  0.00    -0.595 OA
ATOM     20  O3  <0> d          -4.330   0.851   2.803  0.00  0.00    -0.595 OA
ENDBRANCH  14  17
ENDBRANCH  11  14
ENDBRANCH   1  11
TORSDOF 5
