REMARK  4 active torsions:
REMARK  status: ('A' for Active; 'I' for Inactive)
REMARK    1  A    between atoms: C1_1  and  C2_2 
REMARK    2  A    between atoms: C2_2  and  C3_3 
REMARK    3  A    between atoms: C3_3  and  N1_4 
REMARK    4  A    between atoms: C6_7  and  N3_9 
ROOT
ATOM      1  N1  <0> d           0.631   3.163   0.013  0.00  0.00    -0.279 N 
ATOM      2  C4  <0> d           1.070   1.887   0.002  0.00  0.00     0.002 A 
ATOM      3  C5  <0> d          -0.013   1.076   0.008  0.00  0.00    -0.021 A 
ATOM      4  C6  <0> d          -1.159   1.887   0.017  0.00  0.00     0.142 A 
ATOM      5  N2  <0> d          -0.770   3.140   0.026  0.00  0.00    -0.155 NA
ATOM      6  H8  <0> d           2.102   1.570  -0.010  0.00  0.00     0.114 H 
ATOM      7  H9  <0> d           0.002  -0.004   0.002  0.00  0.00     0.091 H 
ENDROOT
BRANCH   1   8
ATOM      8  C3  <0> d           1.472   4.362   0.011  0.00  0.00     0.016 C 
ATOM      9  H6  <0> d           1.334   4.904   0.947  0.00  0.00     0.067 H 
ATOM     10  H7  <0> d           2.518   4.073  -0.090  0.00  0.00     0.067 H 
BRANCH   8  11
ATOM     11  C2  <0> d           1.076   5.261  -1.162  0.00  0.00    -0.052 C 
ATOM     12  H4  <0> d           1.213   4.719  -2.098  0.00  0.00     0.035 H 
ATOM     13  H5  <0> d           0.030   5.551  -1.061  0.00  0.00     0.035 H 
BRANCH  11  14
ATOM     14  C1  <0> d           1.954   6.514  -1.164  0.00  0.00    -0.075 C 
ATOM     15  H1  <0> d           1.817   7.056  -0.229  0.00  0.00     0.027 H 
ATOM     16  H2  <0> d           3.000   6.224  -1.266  0.00  0.00     0.027 H 
ATOM     17  H3  <0> d           1.672   7.154  -2.000  0.00  0.00     0.027 H 
ENDBRANCH  11  14
ENDBRANCH   8  11
ENDBRANCH   1   8
BRANCH   4  18
ATOM     18  N3  <0> d          -2.485   1.438   0.019  0.00  0.00    -0.383 N 
ATOM     19  H10 <0> d          -2.674   0.486   0.015  0.00  0.00     0.157 HD
ATOM     20  H11 <0> d          -3.213   2.077   0.026  0.00  0.00     0.157 HD
ENDBRANCH   4  18
TORSDOF 4
