REMARK  2 active torsions:
REMARK  status: ('A' for Active; 'I' for Inactive)
REMARK    1  A    between atoms: C1_1  and  O1_2 
REMARK    2  A    between atoms: O1_2  and  C2_3 
ROOT
ATOM      1  C2  <0> d          -2.191   1.109   1.226  0.00  0.00     0.130 C 
ATOM      2  H1  <0> d          -2.220   0.019   1.236  0.00  0.00     0.128 H 
ATOM      3  C3  <0> d          -0.733   1.582   1.266  0.00  0.00    -0.019 C 
ATOM      4  C4  <0> d          -0.013   1.086   0.008  0.00  0.00    -0.059 C 
ATOM      5  C5  <0> d          -0.757   1.595  -1.230  0.00  0.00    -0.045 C 
ATOM      6  C6  <0> d          -2.212   1.122  -1.172  0.00  0.00     0.023 C 
ATOM      7  O2  <0> d          -2.816   1.591   0.035  0.00  0.00    -0.361 OA
ATOM      8  H5  <0> d          -0.241   1.178   2.150  0.00  0.00     0.040 H 
ATOM      9  H6  <0> d          -0.705   2.671   1.296  0.00  0.00     0.040 H 
ATOM     10  H7  <0> d           0.002  -0.004   0.002  0.00  0.00     0.033 H 
ATOM     11  H8  <0> d           1.009   1.464   0.000  0.00  0.00     0.033 H 
ATOM     12  H9  <0> d          -0.729   2.684  -1.250  0.00  0.00     0.036 H 
ATOM     13  H10 <0> d          -0.282   1.201  -2.128  0.00  0.00     0.036 H 
ATOM     14  H11 <0> d          -2.757   1.517  -2.029  0.00  0.00     0.074 H 
ATOM     15  H12 <0> d          -2.241   0.033  -1.193  0.00  0.00     0.074 H 
ENDROOT
BRANCH   1  16
ATOM     16  O1  <0> d          -2.886   1.615   2.368  0.00  0.00    -0.366 OA
BRANCH  16  17
ATOM     17  C1  <0> d          -4.188   1.054   2.551  0.00  0.00     0.007 C 
ATOM     18  H2  <0> d          -4.104  -0.026   2.678  0.00  0.00     0.066 H 
ATOM     19  H3  <0> d          -4.649   1.489   3.438  0.00  0.00     0.066 H 
ATOM     20  H4  <0> d          -4.803   1.270   1.678  0.00  0.00     0.066 H 
ENDBRANCH  16  17
ENDBRANCH   1  16
TORSDOF 2
