REMARK  3 active torsions:
REMARK  status: ('A' for Active; 'I' for Inactive)
REMARK    1  A    between atoms: C1_1  and  C2_2 
REMARK    2  A    between atoms: C2_2  and  C3_3 
REMARK    3  A    between atoms: C7_7  and  C9_9 
ROOT
ATOM      1  C3  <0> d          -0.050   3.840   0.022  0.00  0.00    -0.058 A 
ATOM      2  C4  <0> d           1.157   3.165   0.008  0.00  0.00    -0.077 A 
ATOM      3  C5  <0> d           1.175   1.783   0.000  0.00  0.00    -0.082 A 
ATOM      4  C6  <0> d          -0.013   1.076   0.008  0.00  0.00    -0.077 A 
ATOM      5  C7  <0> d          -1.219   1.750   0.017  0.00  0.00    -0.061 A 
ATOM      6  C8  <0> d          -1.238   3.133   0.030  0.00  0.00    -0.071 A 
ATOM      7  H6  <0> d           2.084   3.718   0.001  0.00  0.00     0.084 H 
ATOM      8  H7  <0> d           2.118   1.256  -0.011  0.00  0.00     0.083 H 
ATOM      9  H8  <0> d           0.002  -0.004   0.002  0.00  0.00     0.084 H 
ATOM     10  H9  <0> d          -2.180   3.660   0.042  0.00  0.00     0.085 H 
ENDROOT
BRANCH   1  11
ATOM     11  C2  <0> d          -0.070   5.347   0.030  0.00  0.00    -0.044 C 
ATOM     12  H4  <0> d          -0.961   5.696   0.554  0.00  0.00     0.039 H 
ATOM     13  H5  <0> d           0.819   5.720   0.538  0.00  0.00     0.039 H 
BRANCH  11  14
ATOM     14  C1  <0> d          -0.091   5.864  -1.410  0.00  0.00    -0.073 C 
ATOM     15  H1  <0> d           0.799   5.516  -1.934  0.00  0.00     0.028 H 
ATOM     16  H2  <0> d          -0.981   5.492  -1.917  0.00  0.00     0.028 H 
ATOM     17  H3  <0> d          -0.106   6.954  -1.404  0.00  0.00     0.028 H 
ENDBRANCH  11  14
ENDBRANCH   1  11
BRANCH   5  18
ATOM     18  C9  <0> d          -2.514   0.979   0.019  0.00  0.00    -0.051 C 
ATOM     19  H10 <0> d          -2.821   0.788   1.047  0.00  0.00     0.033 H 
ATOM     20  H11 <0> d          -3.284   1.561  -0.488  0.00  0.00     0.033 H 
ATOM     21  H12 <0> d          -2.373   0.032  -0.500  0.00  0.00     0.033 H 
ENDBRANCH   5  18
TORSDOF 3
