REMARK  4 active torsions:
REMARK  status: ('A' for Active; 'I' for Inactive)
REMARK    1  A    between atoms: C1_1  and  C2_2 
REMARK    2  A    between atoms: C4_4  and  O2_7 
REMARK    3  A    between atoms: O2_7  and  C5_8 
REMARK    4  A    between atoms: C5_8  and  C6_9 
ROOT
ATOM      1  C2  <0> d           1.319  -0.312  -0.012  0.00  0.00     0.079 A 
ATOM      2  C3  <0> d           0.002  -0.004   0.002  0.00  0.00     0.000 A 
ATOM      3  C4  <0> d          -0.017   1.415   0.010  0.00  0.00     0.194 A 
ATOM      4  N1  <0> d           1.232   1.797  -0.000  0.00  0.00    -0.103 NA
ATOM      5  O1  <0> d           1.985   0.851  -0.012  0.00  0.00    -0.216 OA
ATOM      6  H4  <0> d          -0.840  -0.681   0.006  0.00  0.00     0.094 H 
ENDROOT
BRANCH   3   7
ATOM      7  O2  <0> d          -1.114   2.215   0.020  0.00  0.00    -0.322 OA
BRANCH   7   8
ATOM      8  C5  <0> d          -0.888   3.626   0.026  0.00  0.00     0.107 C 
ATOM      9  H5  <0> d          -0.318   3.898   0.915  0.00  0.00     0.091 H 
ATOM     10  H6  <0> d          -0.327   3.908  -0.865  0.00  0.00     0.091 H 
BRANCH   8  11
ATOM     11  C6  <0> d          -2.211   4.346   0.037  0.00  0.00     0.198 C 
ATOM     12  O3  <0> d          -3.242   3.716   0.038  0.00  0.00    -0.646 OA
ATOM     13  O4  <0> d          -2.244   5.688   0.044  0.00  0.00    -0.646 OA
ENDBRANCH   8  11
ENDBRANCH   7   8
ENDBRANCH   3   7
BRANCH   1  14
ATOM     14  C1  <0> d           1.921  -1.694  -0.026  0.00  0.00    -0.029 C 
ATOM     15  H1  <0> d           2.056  -2.021  -1.057  0.00  0.00     0.036 H 
ATOM     16  H2  <0> d           2.886  -1.675   0.479  0.00  0.00     0.036 H 
ATOM     17  H3  <0> d           1.254  -2.385   0.490  0.00  0.00     0.036 H 
ENDBRANCH   1  14
TORSDOF 4
