REMARK  4 active torsions:
REMARK  status: ('A' for Active; 'I' for Inactive)
REMARK    1  A    between atoms: C1_1  and  C2_2 
REMARK    2  A    between atoms: C3_3  and  O1_7 
REMARK    3  A    between atoms: O1_7  and  C5_8 
REMARK    4  A    between atoms: C5_8  and  C6_10 
ROOT
ATOM      1  C2  <0> d           0.002  -0.004   0.002  0.00  0.00     0.072 A 
ATOM      2  C3  <0> d           0.006  -0.712  -1.163  0.00  0.00     0.145 A 
ATOM      3  S1  <0> d           0.032  -2.382  -0.532  0.00  0.00    -0.055 SA
ATOM      4  C4  <0> d           0.035  -2.010   1.110  0.00  0.00     0.043 A 
ATOM      5  N1  <0> d           0.023  -0.702   1.121  0.00  0.00    -0.255 NA
ATOM      6  H4  <0> d           0.048  -2.688   1.951  0.00  0.00     0.126 H 
ENDROOT
BRANCH   2   7
ATOM      7  O1  <0> d          -0.007  -0.270  -2.448  0.00  0.00    -0.270 OA
BRANCH   7   8
ATOM      8  C5  <0> d           0.001  -1.185  -3.429  0.00  0.00     0.260 C 
ATOM      9  O2  <0> d           0.019  -2.366  -3.157  0.00  0.00    -0.265 OA
BRANCH   8  10
ATOM     10  C6  <0> d          -0.013  -0.745  -4.870  0.00  0.00     0.004 C 
ATOM     11  H5  <0> d          -0.029   0.344  -4.917  0.00  0.00     0.041 H 
ATOM     12  H6  <0> d           0.879  -1.117  -5.373  0.00  0.00     0.041 H 
ATOM     13  H7  <0> d          -0.900  -1.142  -5.363  0.00  0.00     0.041 H 
ENDBRANCH   8  10
ENDBRANCH   7   8
ENDBRANCH   2   7
BRANCH   1  14
ATOM     14  C1  <0> d          -0.018   1.503   0.010  0.00  0.00    -0.032 C 
ATOM     15  H1  <0> d           1.004   1.880   0.003  0.00  0.00     0.035 H 
ATOM     16  H2  <0> d          -0.545   1.864  -0.873  0.00  0.00     0.035 H 
ATOM     17  H3  <0> d          -0.529   1.854   0.907  0.00  0.00     0.035 H 
ENDBRANCH   1  14
TORSDOF 4
