REMARK  2 active torsions:
REMARK  status: ('A' for Active; 'I' for Inactive)
REMARK    1  A    between atoms: C2_2  and  C7_9 
REMARK    2  A    between atoms: C7_9  and  O1_10 
ROOT
ATOM      1  C1  <0> d          -0.010   2.147   2.412  0.00  0.00    -0.052 A 
ATOM      2  C2  <0> d          -0.723   1.911   1.250  0.00  0.00    -0.016 A 
ATOM      3  C3  <0> d          -2.088   2.131   1.236  0.00  0.00     0.010 A 
ATOM      4  N1  <0> d          -2.721   2.551   2.314  0.00  0.00    -0.271 NA
ATOM      5  C4  <0> d          -2.088   2.791   3.444  0.00  0.00     0.022 A 
ATOM      6  C5  <0> d          -0.709   2.598   3.539  0.00  0.00     0.062 A 
ATOM      7  C6  <0> d          -0.020   2.859   4.767  0.00  0.00     0.101 C 
ATOM      8  N2  <0> d           0.526   3.066   5.741  0.00  0.00    -0.191 NA
ATOM      9  H1  <0> d           1.057   1.987   2.450  0.00  0.00     0.086 H 
ATOM     10  H2  <0> d          -2.646   1.951   0.329  0.00  0.00     0.115 H 
ATOM     11  H3  <0> d          -2.641   3.139   4.304  0.00  0.00     0.117 H 
ENDROOT
BRANCH   2  12
ATOM     12  C7  <0> d          -0.017   1.425   0.010  0.00  0.00     0.042 C 
ATOM     13  H4  <0> d          -0.549   1.789  -0.881  0.00  0.00     0.081 H 
ATOM     14  H5  <0> d           1.015   1.806   0.002  0.00  0.00     0.081 H 
BRANCH  12  15
ATOM     15  O1  <0> d           0.002  -0.004   0.002  0.00  0.00    -0.396 OA
ATOM     16  H6  <0> d           0.478  -0.543  -0.831  0.00  0.00     0.209 HD
ENDBRANCH  12  15
ENDBRANCH   2  12
TORSDOF 2
