REMARK  1 active torsions:
REMARK  status: ('A' for Active; 'I' for Inactive)
REMARK    1  A    between atoms: C5_6  and  C6_7 
ROOT
ATOM      1  C1  <0> d          -1.198   3.825   0.033  0.00  0.00    -0.048 A 
ATOM      2  C2  <0> d           0.029   4.460   0.025  0.00  0.00     0.003 A 
ATOM      3  N1  <0> d           1.151   3.768   0.011  0.00  0.00    -0.271 NA
ATOM      4  C3  <0> d           1.160   2.450   0.004  0.00  0.00     0.024 A 
ATOM      5  C4  <0> d          -0.021   1.732   0.012  0.00  0.00     0.068 A 
ATOM      6  C5  <0> d          -1.237   2.426   0.021  0.00  0.00     0.065 A 
ATOM      7 Cl1  <0> d           0.002  -0.004   0.002  0.00  0.00    -0.082 Cl
ATOM      8  H1  <0> d          -2.112   4.399   0.044  0.00  0.00     0.087 H 
ATOM      9  H2  <0> d           0.069   5.539   0.031  0.00  0.00     0.114 H 
ATOM     10  H3  <0> d           2.104   1.925  -0.007  0.00  0.00     0.117 H 
ENDROOT
BRANCH   6  11
ATOM     11  C6  <0> d          -2.527   1.702   0.024  0.00  0.00     0.211 C 
ATOM     12  O1  <0> d          -2.542   0.487   0.018  0.00  0.00    -0.644 OA
ATOM     13  O2  <0> d          -3.686   2.389   0.033  0.00  0.00    -0.644 OA
ENDBRANCH   6  11
TORSDOF 1
