REMARK  2 active torsions:
REMARK  status: ('A' for Active; 'I' for Inactive)
REMARK    1  A    between atoms: C7_9  and  C8_10 
REMARK    2  A    between atoms: C8_10  and  O1_11 
ROOT
ATOM      1  C1  <0> d           3.768   6.214   0.000  0.00  0.00    -0.078 A 
ATOM      2  C2  <0> d           4.326   4.924  -0.012  0.00  0.00    -0.067 A 
ATOM      3  C3  <0> d           3.526   3.837  -0.011  0.00  0.00    -0.013 A 
ATOM      4  N1  <0> d           2.168   3.973   0.003  0.00  0.00    -0.307 N 
ATOM      5  C4  <0> d           1.595   5.218   0.015  0.00  0.00     0.133 A 
ATOM      6  C5  <0> d           2.417   6.363   0.014  0.00  0.00    -0.038 A 
ATOM      7  N2  <0> d           0.279   5.064   0.027  0.00  0.00    -0.241 NA
ATOM      8  C6  <0> d          -0.010   3.760   0.017  0.00  0.00     0.029 A 
ATOM      9  C7  <0> d           1.147   3.062   0.008  0.00  0.00     0.059 A 
ATOM     10  H1  <0> d           4.410   7.082  -0.001  0.00  0.00     0.083 H 
ATOM     11  H2  <0> d           5.399   4.803  -0.023  0.00  0.00     0.085 H 
ATOM     12  H3  <0> d           3.965   2.850  -0.020  0.00  0.00     0.112 H 
ATOM     13  H4  <0> d           1.977   7.350   0.023  0.00  0.00     0.089 H 
ATOM     14  H5  <0> d          -1.002   3.335   0.018  0.00  0.00     0.118 H 
ENDROOT
BRANCH   9  15
ATOM     15  C8  <0> d           1.286   1.562  -0.002  0.00  0.00     0.056 C 
ATOM     16  H6  <0> d           1.840   1.243   0.881  0.00  0.00     0.083 H 
ATOM     17  H7  <0> d           1.823   1.252  -0.899  0.00  0.00     0.083 H 
BRANCH  15  18
ATOM     18  O1  <0> d          -0.011   0.963   0.007  0.00  0.00    -0.395 OA
ATOM     19  H8  <0> d           0.002  -0.004   0.002  0.00  0.00     0.209 HD
ENDBRANCH  15  18
ENDBRANCH   9  15
TORSDOF 2
