REMARK  5 active torsions:
REMARK  status: ('A' for Active; 'I' for Inactive)
REMARK    1  A    between atoms: C1_1  and  C2_2 
REMARK    2  A    between atoms: C2_2  and  C3_3 
REMARK    3  A    between atoms: C3_3  and  C4_4 
REMARK    4  A    between atoms: C5_6  and  N5_11 
REMARK    5  A    between atoms: C6_8  and  N4_10 
ROOT
ATOM      1  C4  <0> d          -0.718   1.572   1.248  0.00  0.00     0.164 A 
ATOM      2  N1  <0> d          -0.374   2.726   1.792  0.00  0.00    -0.047 NA
ATOM      3  C5  <0> d          -0.998   3.161   2.885  0.00  0.00     0.737 A 
ATOM      4  N2  <0> d          -1.961   2.428   3.434  0.00  0.00     0.129 NA
ATOM      5  C6  <0> d          -2.300   1.266   2.887  0.00  0.00     0.737 A 
ATOM      6  N3  <0> d          -1.675   0.840   1.791  0.00  0.00    -0.047 NA
ENDROOT
BRANCH   1   7
ATOM      7  C3  <0> d          -0.013   1.086   0.008  0.00  0.00    -0.007 C 
ATOM      8  H6  <0> d           0.002  -0.004   0.002  0.00  0.00     0.044 H 
ATOM      9  H7  <0> d           1.010   1.463   0.000  0.00  0.00     0.044 H 
BRANCH   7  10
ATOM     10  C2  <0> d          -0.753   1.593  -1.232  0.00  0.00    -0.062 C 
ATOM     11  H4  <0> d          -1.775   1.215  -1.224  0.00  0.00     0.033 H 
ATOM     12  H5  <0> d          -0.767   2.683  -1.226  0.00  0.00     0.033 H 
BRANCH  10  13
ATOM     13  C1  <0> d          -0.037   1.099  -2.490  0.00  0.00    -0.076 C 
ATOM     14  H1  <0> d          -0.022   0.009  -2.496  0.00  0.00     0.027 H 
ATOM     15  H2  <0> d          -0.564   1.460  -3.373  0.00  0.00     0.027 H 
ATOM     16  H3  <0> d           0.986   1.476  -2.498  0.00  0.00     0.027 H 
ENDBRANCH  10  13
ENDBRANCH   7  10
ENDBRANCH   1   7
BRANCH   5  17
ATOM     17  N4  <0> d          -3.299   0.501   3.454  0.00  0.00    -0.230 N 
ATOM     18  H8  <0> d          -3.546  -0.348   3.054  0.00  0.00     0.174 HD
ATOM     19  H9  <0> d          -3.754   0.812   4.252  0.00  0.00     0.174 HD
ENDBRANCH   5  17
BRANCH   3  20
ATOM     20  N5  <0> d          -0.642   4.369   3.449  0.00  0.00    -0.230 N 
ATOM     21  H10 <0> d          -1.094   4.683   4.247  0.00  0.00     0.174 HD
ATOM     22  H11 <0> d           0.061   4.903   3.048  0.00  0.00     0.174 HD
ENDBRANCH   3  20
TORSDOF 5
