REMARK  4 active torsions:
REMARK  status: ('A' for Active; 'I' for Inactive)
REMARK    1  A    between atoms: C1_1  and  O1_2 
REMARK    2  A    between atoms: O1_2  and  C2_3 
REMARK    3  A    between atoms: C2_3  and  C3_4 
REMARK    4  A    between atoms: C4_7  and  N3_9 
ROOT
ATOM      1  C3  <0> d          -0.852   1.666   3.572  0.00  0.00     0.194 A 
ATOM      2  N1  <0> d          -1.849   1.079   4.165  0.00  0.00    -0.123 NA
ATOM      3  N2  <0> d          -2.278   1.822   5.124  0.00  0.00    -0.103 NA
ATOM      4  C4  <0> d          -1.568   2.923   5.170  0.00  0.00     0.265 A 
ATOM      5  O2  <0> d          -0.650   2.848   4.189  0.00  0.00    -0.258 OA
ENDROOT
BRANCH   1   6
ATOM      6  C2  <0> d          -0.068   1.127   2.404  0.00  0.00     0.081 C 
ATOM      7  H4  <0> d          -0.054   0.028   2.448  0.00  0.00     0.087 H 
ATOM      8  H5  <0> d           0.963   1.508   2.446  0.00  0.00     0.087 H 
BRANCH   6   9
ATOM      9  O1  <0> d          -0.682   1.547   1.184  0.00  0.00    -0.388 OA
BRANCH   9  10
ATOM     10  C1  <0> d          -0.013   1.086   0.008  0.00  0.00     0.004 C 
ATOM     11  H1  <0> d          -0.545   1.450  -0.883  0.00  0.00     0.066 H 
ATOM     12  H2  <0> d           0.002  -0.014   0.002  0.00  0.00     0.066 H 
ATOM     13  H3  <0> d           1.019   1.466   0.000  0.00  0.00     0.066 H 
ENDBRANCH   9  10
ENDBRANCH   6   9
ENDBRANCH   1   6
BRANCH   4  14
ATOM     14  N3  <0> d          -1.731   3.968   6.061  0.00  0.00    -0.362 N 
ATOM     15  H6  <0> d          -1.073   4.847   6.005  0.00  0.00     0.159 HD
ATOM     16  H7  <0> d          -2.520   3.920   6.827  0.00  0.00     0.159 HD
ENDBRANCH   4  14
TORSDOF 4
