REMARK  1 active torsions:
REMARK  status: ('A' for Active; 'I' for Inactive)
REMARK    1  A    between atoms: C1_1  and  N1_2 
ROOT
ATOM      1  N1  <0> d           1.226   2.897  -0.840  0.00  0.00    -0.251 NA
ATOM      2  C2  <0> d           1.251   1.695  -0.001  0.00  0.00     0.045 C 
ATOM      3  N2  <0> d          -0.011   0.966   0.007  0.00  0.00    -0.343 N 
ATOM      4  C3  <0> d          -1.206   1.613   0.017  0.00  0.00     0.276 C 
ATOM      5  O1  <0> d          -2.264   1.031   0.154  0.00  0.00    -0.266 OA
ATOM      6  C4  <0> d          -1.122   3.081  -0.149  0.00  0.00     0.188 A 
ATOM      7  C5  <0> d           0.102   3.671  -0.578  0.00  0.00     0.164 A 
ATOM      8  N3  <0> d          -0.111   4.954  -0.641  0.00  0.00    -0.142 NA
ATOM      9  N4  <0> d          -1.447   5.169  -0.258  0.00  0.00    -0.195 N 
ATOM     10  H1  <0> d          -1.855   6.190  -0.236  0.00  0.00     0.213 HD
ATOM     11  N5  <0> d          -1.995   4.032   0.021  0.00  0.00    -0.148 NA
ATOM     12  H5  <0> d           2.027   1.007  -0.368  0.00  0.00     0.088 H 
ATOM     13  H6  <0> d           1.474   1.978   1.038  0.00  0.00     0.088 H 
ATOM     14  H7  <0> d          -0.011  -0.134   0.006  0.00  0.00     0.164 HD
ENDROOT
BRANCH   1  15
ATOM     15  C1  <0> d           2.457   3.681  -0.673  0.00  0.00    -0.026 C 
ATOM     16  H2  <0> d           3.329   3.046  -0.886  0.00  0.00     0.049 H 
ATOM     17  H3  <0> d           2.517   4.052   0.361  0.00  0.00     0.049 H 
ATOM     18  H4  <0> d           2.446   4.534  -1.368  0.00  0.00     0.049 H 
ENDBRANCH   1  15
TORSDOF 1
