REMARK  4 active torsions:
REMARK  status: ('A' for Active; 'I' for Inactive)
REMARK    1  A    between atoms: C1_1  and  N1_2 
REMARK    2  A    between atoms: N1_2  and  C2_3 
REMARK    3  A    between atoms: N1_2  and  C3_4 
REMARK    4  A    between atoms: C3_4  and  N2_5 
ROOT
ATOM      1  C3  <0> d          -0.802   1.987  -1.117  0.00  0.00     0.176 C 
ATOM      2  H7  <0> d          -0.262   1.800  -2.057  0.00  0.00     0.113 H 
ATOM      3  H8  <0> d          -1.779   1.483  -1.149  0.00  0.00     0.113 H 
ENDROOT
BRANCH   1   4
ATOM      4  N1  <0> d          -0.018   1.465   0.010  0.00  0.00     0.097 N 
BRANCH   4   5
ATOM      5  C1  <0> d           0.002  -0.004   0.002  0.00  0.00     0.097 C 
ATOM      6  H1  <0> d          -1.030  -0.385   0.010  0.00  0.00     0.071 H 
ATOM      7  H2  <0> d           0.534  -0.368   0.893  0.00  0.00     0.071 H 
ATOM      8  H3  <0> d           0.517  -0.359  -0.903  0.00  0.00     0.071 H 
ENDBRANCH   4   5
BRANCH   4   9
ATOM      9  C2  <0> d           1.346   2.010  -0.000  0.00  0.00     0.097 C 
ATOM     10  H4  <0> d           1.302   3.109   0.006  0.00  0.00     0.071 H 
ATOM     11  H5  <0> d           1.871   1.669  -0.905  0.00  0.00     0.071 H 
ATOM     12  H6  <0> d           1.888   1.659   0.891  0.00  0.00     0.071 H 
ENDBRANCH   4   9
ENDBRANCH   1   4
BRANCH   1  13
ATOM     13  N2  <0> d          -1.001   3.428  -0.948  0.00  0.00    -0.324 N 
ATOM     14  C6  <0> d          -0.192   4.408  -1.405  0.00  0.00     0.067 A 
ATOM     15  N3  <0> d          -0.697   5.562  -1.060  0.00  0.00    -0.255 NA
ATOM     16  H11 <0> d           0.721   4.262  -1.962  0.00  0.00     0.143 H 
ATOM     17  C5  <0> d          -1.833   5.361  -0.377  0.00  0.00     0.018 A 
ATOM     18  C4  <0> d          -2.045   4.033  -0.301  0.00  0.00    -0.001 A 
ATOM     19  H10 <0> d          -2.471   6.130   0.035  0.00  0.00     0.117 H 
ATOM     20  H9  <0> d          -2.877   3.540   0.180  0.00  0.00     0.113 H 
ENDBRANCH   1  13
TORSDOF 4
