REMARK  3 active torsions:
REMARK  status: ('A' for Active; 'I' for Inactive)
REMARK    1  A    between atoms: C2_2  and  C4_9 
REMARK    2  A    between atoms: C3_7  and  O1_8 
REMARK    3  A    between atoms: C4_9  and  C5_10 
ROOT
ATOM      1  C1  <0> d          -0.016   1.349   0.009  0.00  0.00    -0.007 A 
ATOM      2  C2  <0> d           0.002  -0.004   0.002  0.00  0.00     0.042 A 
ATOM      3  N1  <0> d           1.292  -0.400  -0.012  0.00  0.00    -0.279 N 
ATOM      4  H1  <0> d           1.607  -1.317  -0.020  0.00  0.00     0.189 HD
ATOM      5  N2  <0> d           2.097   0.747  -0.014  0.00  0.00    -0.149 NA
ATOM      6  C3  <0> d           1.313   1.797  -0.001  0.00  0.00     0.183 A 
ATOM      7  H3  <0> d          -0.898   1.972   0.017  0.00  0.00     0.093 H 
ENDROOT
BRANCH   2   8
ATOM      8  C4  <0> d          -1.204  -0.908   0.009  0.00  0.00     0.055 C 
ATOM      9  H4  <0> d          -0.931  -1.874   0.436  0.00  0.00     0.058 H 
ATOM     10  H5  <0> d          -1.993  -0.456   0.609  0.00  0.00     0.058 H 
BRANCH   8  11
ATOM     11  C5  <0> d          -1.694  -1.103  -1.402  0.00  0.00     0.178 C 
ATOM     12  O2  <0> d          -1.118  -0.558  -2.328  0.00  0.00    -0.648 OA
ATOM     13  O3  <0> d          -2.667  -1.805  -1.618  0.00  0.00    -0.648 OA
ENDBRANCH   8  11
ENDBRANCH   2   8
BRANCH   6  14
ATOM     14  O1  <0> d           1.717   3.096   0.002  0.00  0.00    -0.344 OA
ATOM     15  H2  <0> d           1.843   3.467   0.886  0.00  0.00     0.219 HD
ENDBRANCH   6  14
TORSDOF 3
