REMARK  2 active torsions:
REMARK  status: ('A' for Active; 'I' for Inactive)
REMARK    1  A    between atoms: C1_1  and  S1_2 
REMARK    2  A    between atoms: S1_2  and  C2_4 
ROOT
ATOM      1  C2  <0> d          -1.702  -0.454   0.016  0.00  0.00     0.034 A 
ATOM      2  C3  <0> d          -2.360  -0.631   1.219  0.00  0.00    -0.064 A 
ATOM      3  C4  <0> d          -3.696  -0.983   1.231  0.00  0.00    -0.079 A 
ATOM      4  C5  <0> d          -4.376  -1.160   0.041  0.00  0.00    -0.046 A 
ATOM      5  C6  <0> d          -3.718  -0.983  -1.164  0.00  0.00     0.117 A 
ATOM      6  C7  <0> d          -2.381  -0.623  -1.175  0.00  0.00    -0.027 A 
ATOM      7  F1  <0> d          -4.381  -1.155  -2.328  0.00  0.00    -0.206 F 
ATOM      8  H4  <0> d          -1.829  -0.494   2.150  0.00  0.00     0.085 H 
ATOM      9  H5  <0> d          -4.209  -1.121   2.171  0.00  0.00     0.083 H 
ATOM     10  H6  <0> d          -5.420  -1.436   0.051  0.00  0.00     0.088 H 
ATOM     11  H7  <0> d          -1.868  -0.480  -2.115  0.00  0.00     0.090 H 
ENDROOT
BRANCH   1  12
ATOM     12  S1  <0> d           0.002  -0.004   0.002  0.00  0.00     0.045 S 
ATOM     13  O1  <0> d           0.493  -0.478   1.249  0.00  0.00    -0.253 OA
BRANCH  12  14
ATOM     14  C1  <0> d          -0.022   1.810   0.012  0.00  0.00    -0.004 C 
ATOM     15  H1  <0> d           1.000   2.187   0.004  0.00  0.00     0.045 H 
ATOM     16  H2  <0> d          -0.550   2.171  -0.871  0.00  0.00     0.045 H 
ATOM     17  H3  <0> d          -0.533   2.161   0.909  0.00  0.00     0.045 H 
ENDBRANCH  12  14
ENDBRANCH   1  12
TORSDOF 2
