REMARK  7 active torsions:
REMARK  status: ('A' for Active; 'I' for Inactive)
REMARK    1  A    between atoms: C1_1  and  C2_2 
REMARK    2  A    between atoms: C2_2  and  C3_3 
REMARK    3  A    between atoms: C2_2  and  C4_4 
REMARK    4  A    between atoms: C4_4  and  C5_6 
REMARK    5  A    between atoms: C4_4  and  O2_8 
REMARK    6  A    between atoms: O2_8  and  C6_9 
REMARK    7  A    between atoms: C6_9  and  C7_11 
ROOT
ATOM      1  C4  <0> d           0.011   1.072   2.506  0.00  0.00     0.134 C 
ATOM      2  H1  <0> d          -0.499   1.424   3.403  0.00  0.00     0.102 H 
ENDROOT
BRANCH   1   3
ATOM      3  C2  <0> d          -0.729   1.579   1.267  0.00  0.00    -0.026 C 
ATOM      4  H5  <0> d          -1.751   1.202   1.275  0.00  0.00     0.043 H 
BRANCH   3   5
ATOM      5  C1  <0> d          -0.013   1.086   0.008  0.00  0.00    -0.070 C 
ATOM      6  H2  <0> d           0.002  -0.004   0.002  0.00  0.00     0.028 H 
ATOM      7  H3  <0> d           1.010   1.463   0.000  0.00  0.00     0.028 H 
ATOM      8  H4  <0> d          -0.540   1.447  -0.875  0.00  0.00     0.028 H 
ENDBRANCH   3   5
BRANCH   3   9
ATOM      9  C3  <0> d          -0.750   3.109   1.275  0.00  0.00    -0.070 C 
ATOM     10  H6  <0> d          -1.277   3.470   0.392  0.00  0.00     0.028 H 
ATOM     11  H7  <0> d          -1.260   3.461   2.172  0.00  0.00     0.028 H 
ATOM     12  H8  <0> d           0.273   3.486   1.268  0.00  0.00     0.028 H 
ENDBRANCH   3   9
ENDBRANCH   1   3
BRANCH   1  13
ATOM     13  C5  <0> d           0.032  -0.434   2.498  0.00  0.00     0.204 C 
ATOM     14  O1  <0> d           1.081  -1.024   2.394  0.00  0.00    -0.646 OA
ATOM     15  O4  <0> d          -1.116  -1.122   2.607  0.00  0.00    -0.646 OA
ENDBRANCH   1  13
BRANCH   1  16
ATOM     16  O2  <0> d           1.373   1.575   2.496  0.00  0.00    -0.305 OA
BRANCH  16  17
ATOM     17  C6  <0> d           1.956   1.780   3.688  0.00  0.00     0.255 C 
ATOM     18  O3  <0> d           1.349   1.546   4.706  0.00  0.00    -0.266 OA
BRANCH  17  19
ATOM     19  C7  <0> d           3.369   2.300   3.756  0.00  0.00     0.004 C 
ATOM     20  H9  <0> d           3.354   3.390   3.781  0.00  0.00     0.041 H 
ATOM     21  H10 <0> d           3.852   1.923   4.657  0.00  0.00     0.041 H 
ATOM     22  H11 <0> d           3.923   1.964   2.879  0.00  0.00     0.041 H 
ENDBRANCH  17  19
ENDBRANCH  16  17
ENDBRANCH   1  16
TORSDOF 7
