REMARK  4 active torsions:
REMARK  status: ('A' for Active; 'I' for Inactive)
REMARK    1  A    between atoms: C1_1  and  C2_2 
REMARK    2  A    between atoms: C2_2  and  C3_3 
REMARK    3  A    between atoms: C2_2  and  C4_4 
REMARK    4  A    between atoms: C4_4  and  C5_5 
ROOT
ATOM      1  C4  <0> d           0.011   1.072   2.506  0.00  0.00    -0.057 C 
ATOM      2  H9  <0> d           0.104  -0.013   2.456  0.00  0.00     0.034 H 
ATOM      3  H10 <0> d           1.004   1.520   2.545  0.00  0.00     0.034 H 
ENDROOT
BRANCH   1   4
ATOM      4  C2  <0> d          -0.729   1.579   1.267  0.00  0.00    -0.061 C 
ATOM      5  H5  <0> d          -1.751   1.202   1.275  0.00  0.00     0.038 H 
BRANCH   4   6
ATOM      6  C1  <0> d          -0.013   1.086   0.008  0.00  0.00    -0.073 C 
ATOM      7  H2  <0> d           0.002  -0.004   0.002  0.00  0.00     0.028 H 
ATOM      8  H3  <0> d           1.010   1.463   0.000  0.00  0.00     0.028 H 
ATOM      9  H4  <0> d          -0.540   1.447  -0.875  0.00  0.00     0.028 H 
ENDBRANCH   4   6
BRANCH   4  10
ATOM     10  C3  <0> d          -0.750   3.109   1.275  0.00  0.00    -0.073 C 
ATOM     11  H6  <0> d          -1.260   3.461   2.172  0.00  0.00     0.028 H 
ATOM     12  H7  <0> d           0.273   3.486   1.268  0.00  0.00     0.028 H 
ATOM     13  H8  <0> d          -1.277   3.470   0.392  0.00  0.00     0.028 H 
ENDBRANCH   4  10
ENDBRANCH   1   4
BRANCH   1  14
ATOM     14  C5  <0> d          -0.772   1.460   3.762  0.00  0.00    -0.030 C 
ATOM     15  H1  <0> d          -1.013   2.523   3.757  0.00  0.00     0.043 H 
ATOM     16  C8  <0> d           0.005   1.074   5.040  0.00  0.00    -0.001 C 
ATOM     17  N1  <0> d          -1.014   0.640   6.003  0.00  0.00    -0.361 N 
ATOM     18  H14 <0> d           0.697   0.259   4.829  0.00  0.00     0.064 H 
ATOM     19  H15 <0> d           0.548   1.938   5.426  0.00  0.00     0.064 H 
ATOM     20  C7  <0> d          -2.178   0.364   5.390  0.00  0.00     0.217 C 
ATOM     21  H13 <0> d          -0.866   0.563   6.958  0.00  0.00     0.162 HD
ATOM     22  C6  <0> d          -2.052   0.603   3.902  0.00  0.00     0.014 C 
ATOM     23  O1  <0> d          -3.183  -0.022   5.949  0.00  0.00    -0.274 OA
ATOM     24  H11 <0> d          -2.919   1.149   3.529  0.00  0.00     0.047 H 
ATOM     25  H12 <0> d          -1.938  -0.342   3.372  0.00  0.00     0.047 H 
ENDBRANCH   1  14
TORSDOF 4
