REMARK  4 active torsions:
REMARK  status: ('A' for Active; 'I' for Inactive)
REMARK    1  A    between atoms: C1_1  and  C2_2 
REMARK    2  A    between atoms: C2_2  and  C3_3 
REMARK    3  A    between atoms: C3_3  and  O1_11 
REMARK    4  A    between atoms: C7_7  and  C9_10 
ROOT
ATOM      1  C3  <0> d          -0.753   1.593  -1.232  0.00  0.00     0.058 C 
ATOM      2  C4  <0> d          -0.013   1.086   0.008  0.00  0.00    -0.036 C 
ATOM      3  C5  <0> d          -0.729   1.579   1.267  0.00  0.00    -0.062 C 
ATOM      4  C6  <0> d          -0.750   3.109   1.275  0.00  0.00    -0.062 C 
ATOM      5  C7  <0> d          -1.490   3.616   0.036  0.00  0.00    -0.055 C 
ATOM      6  H1  <0> d          -2.512   3.239   0.043  0.00  0.00     0.039 H 
ATOM      7  C8  <0> d          -0.773   3.123  -1.223  0.00  0.00    -0.033 C 
ATOM      8  H7  <0> d           0.002  -0.004   0.002  0.00  0.00     0.037 H 
ATOM      9  H8  <0> d           1.010   1.463   0.000  0.00  0.00     0.037 H 
ATOM     10  H9  <0> d          -1.751   1.202   1.275  0.00  0.00     0.033 H 
ATOM     11  H10 <0> d          -0.202   1.218   2.150  0.00  0.00     0.033 H 
ATOM     12  H11 <0> d           0.273   3.486   1.268  0.00  0.00     0.033 H 
ATOM     13  H12 <0> d          -1.260   3.461   2.172  0.00  0.00     0.033 H 
ATOM     14  H13 <0> d           0.249   3.500  -1.231  0.00  0.00     0.037 H 
ATOM     15  H14 <0> d          -1.301   3.484  -2.106  0.00  0.00     0.037 H 
ENDROOT
BRANCH   1  16
ATOM     16  C2  <0> d          -0.037   1.099  -2.490  0.00  0.00    -0.040 C 
ATOM     17  H5  <0> d          -0.564   1.460  -3.373  0.00  0.00     0.036 H 
ATOM     18  H6  <0> d           0.986   1.476  -2.498  0.00  0.00     0.036 H 
BRANCH  16  19
ATOM     19  C1  <0> d          -0.016  -0.431  -2.499  0.00  0.00    -0.074 C 
ATOM     20  H2  <0> d          -1.038  -0.808  -2.491  0.00  0.00     0.027 H 
ATOM     21  H3  <0> d           0.494  -0.782  -3.396  0.00  0.00     0.027 H 
ATOM     22  H4  <0> d           0.511  -0.792  -1.616  0.00  0.00     0.027 H 
ENDBRANCH  16  19
ENDBRANCH   1  16
BRANCH   1  23
ATOM     23  O1  <0> d          -2.093   1.098  -1.221  0.00  0.00    -0.390 OA
ATOM     24  H18 <0> d          -2.157   0.133  -1.226  0.00  0.00     0.210 HD
ENDBRANCH   1  23
BRANCH   5  25
ATOM     25  C9  <0> d          -1.510   5.146   0.044  0.00  0.00    -0.073 C 
ATOM     26  H15 <0> d          -2.038   5.507  -0.839  0.00  0.00     0.028 H 
ATOM     27  H16 <0> d          -2.021   5.497   0.941  0.00  0.00     0.028 H 
ATOM     28  H17 <0> d          -0.488   5.523   0.036  0.00  0.00     0.028 H 
ENDBRANCH   5  25
TORSDOF 4
