REMARK  4 active torsions:
REMARK  status: ('A' for Active; 'I' for Inactive)
REMARK    1  A    between atoms: C1_1  and  C2_2 
REMARK    2  A    between atoms: C2_2  and  C3_3 
REMARK    3  A    between atoms: C2_2  and  C4_4 
REMARK    4  A    between atoms: C6_6  and  C7_10 
ROOT
ATOM      1  C4  <0> d          -0.749   3.086   1.275  0.00  0.00     0.034 A 
ATOM      2  C5  <0> d          -1.746   3.873   1.744  0.00  0.00    -0.023 A 
ATOM      3  C6  <0> d          -1.306   5.203   1.539  0.00  0.00     0.155 A 
ATOM      4  N1  <0> d          -0.118   5.132   0.971  0.00  0.00    -0.168 NA
ATOM      5  N2  <0> d           0.221   3.903   0.810  0.00  0.00    -0.281 N 
ATOM      6  H1  <0> d           1.079   3.595   0.400  0.00  0.00     0.189 HD
ATOM      7  H9  <0> d          -2.679   3.553   2.185  0.00  0.00     0.090 H 
ENDROOT
BRANCH   1   8
ATOM      8  C2  <0> d          -0.729   1.579   1.267  0.00  0.00    -0.019 C 
ATOM      9  H5  <0> d          -1.751   1.202   1.275  0.00  0.00     0.048 H 
BRANCH   8  10
ATOM     10  C1  <0> d          -0.013   1.086   0.008  0.00  0.00    -0.068 C 
ATOM     11  H2  <0> d           0.002  -0.004   0.002  0.00  0.00     0.028 H 
ATOM     12  H3  <0> d           1.010   1.463   0.000  0.00  0.00     0.028 H 
ATOM     13  H4  <0> d          -0.540   1.447  -0.875  0.00  0.00     0.028 H 
ENDBRANCH   8  10
BRANCH   8  14
ATOM     14  C3  <0> d           0.011   1.072   2.506  0.00  0.00    -0.068 C 
ATOM     15  H6  <0> d           1.034   1.450   2.499  0.00  0.00     0.028 H 
ATOM     16  H7  <0> d          -0.499   1.424   3.403  0.00  0.00     0.028 H 
ATOM     17  H8  <0> d           0.026  -0.018   2.500  0.00  0.00     0.028 H 
ENDBRANCH   8  14
ENDBRANCH   1   8
BRANCH   3  18
ATOM     18  C7  <0> d          -2.041   6.434   1.887  0.00  0.00     0.230 C 
ATOM     19  O1  <0> d          -3.135   6.361   2.410  0.00  0.00    -0.643 OA
ATOM     20  O2  <0> d          -1.498   7.639   1.626  0.00  0.00    -0.643 OA
ENDBRANCH   3  18
TORSDOF 4
