REMARK  6 active torsions:
REMARK  status: ('A' for Active; 'I' for Inactive)
REMARK    1  A    between atoms: C1_1  and  C2_2 
REMARK    2  A    between atoms: C2_2  and  C3_3 
REMARK    3  A    between atoms: C3_3  and  C4_4 
REMARK    4  A    between atoms: C4_4  and  C5_6 
REMARK    5  A    between atoms: C4_4  and  O2_13 
REMARK    6  A    between atoms: C5_6  and  C6_7 
ROOT
ATOM      1  C5  <0> d           2.064   1.114   1.238  0.00  0.00    -0.017 C 
ATOM      2  H10 <0> d           2.088   0.025   1.278  0.00  0.00     0.040 H 
ATOM      3  H11 <0> d           3.082   1.498   1.186  0.00  0.00     0.040 H 
ENDROOT
BRANCH   1   4
ATOM      4  C4  <0> d           1.286   1.562  -0.002  0.00  0.00     0.038 C 
ATOM      5  H1  <0> d           1.186   2.647   0.005  0.00  0.00     0.083 H 
BRANCH   4   6
ATOM      6  C3  <0> d           2.040   1.127  -1.261  0.00  0.00    -0.041 C 
ATOM      7  H8  <0> d           3.059   1.512  -1.225  0.00  0.00     0.036 H 
ATOM      8  H9  <0> d           2.063   0.039  -1.313  0.00  0.00     0.036 H 
BRANCH   6   9
ATOM      9  C2  <0> d           1.329   1.682  -2.497  0.00  0.00    -0.066 C 
ATOM     10  H6  <0> d           0.310   1.298  -2.533  0.00  0.00     0.032 H 
ATOM     11  H7  <0> d           1.306   2.770  -2.445  0.00  0.00     0.032 H 
BRANCH   9  12
ATOM     12  C1  <0> d           2.083   1.248  -3.756  0.00  0.00    -0.076 C 
ATOM     13  H3  <0> d           2.106   0.159  -3.808  0.00  0.00     0.027 H 
ATOM     14  H4  <0> d           1.576   1.643  -4.637  0.00  0.00     0.027 H 
ATOM     15  H5  <0> d           3.102   1.631  -3.720  0.00  0.00     0.027 H 
ENDBRANCH   9  12
ENDBRANCH   6   9
ENDBRANCH   4   6
BRANCH   4  16
ATOM     16  O2  <0> d          -0.011   0.963   0.007  0.00  0.00    -0.395 OA
ATOM     17  H18 <0> d           0.002  -0.004   0.002  0.00  0.00     0.210 HD
ENDBRANCH   4  16
ENDBRANCH   1   4
BRANCH   1  18
ATOM     18  C6  <0> d           1.377   1.655   2.493  0.00  0.00     0.041 C 
ATOM     19  H2  <0> d           0.333   1.341   2.518  0.00  0.00     0.083 H 
ATOM     20  O1  <0> d           1.468   3.088   2.533  0.00  0.00    -0.386 OA
ATOM     21  C9  <0> d           1.650   3.530   3.883  0.00  0.00     0.020 C 
ATOM     22  C8  <0> d           1.722   2.274   4.779  0.00  0.00    -0.043 C 
ATOM     23  H16 <0> d           2.577   4.096   3.965  0.00  0.00     0.074 H 
ATOM     24  H17 <0> d           0.807   4.152   4.186  0.00  0.00     0.074 H 
ATOM     25  C7  <0> d           2.118   1.167   3.764  0.00  0.00    -0.039 C 
ATOM     26  H14 <0> d           2.487   2.389   5.546  0.00  0.00     0.036 H 
ATOM     27  H15 <0> d           0.751   2.061   5.226  0.00  0.00     0.036 H 
ATOM     28  H12 <0> d           1.750   0.192   4.083  0.00  0.00     0.036 H 
ATOM     29  H13 <0> d           3.196   1.147   3.606  0.00  0.00     0.036 H 
ENDBRANCH   1  18
TORSDOF 6
