REMARK  2 active torsions:
REMARK  status: ('A' for Active; 'I' for Inactive)
REMARK    1  A    between atoms: C1_1  and  C2_2 
REMARK    2  A    between atoms: C7_7  and  O1_8 
ROOT
ATOM      1  C2  <0> d           0.002  -0.004   0.002  0.00  0.00    -0.027 A 
ATOM      2  C3  <0> d           0.006  -0.685  -1.195  0.00  0.00    -0.054 A 
ATOM      3  C4  <0> d           0.025  -2.083  -1.202  0.00  0.00     0.045 A 
ATOM      4  C5  <0> d           0.041  -2.783   0.008  0.00  0.00    -0.060 A 
ATOM      5  C6  <0> d           0.037  -2.094   1.200  0.00  0.00    -0.049 A 
ATOM      6  C7  <0> d           0.023  -0.704   1.202  0.00  0.00     0.071 A 
ATOM      7  C8  <0> d           0.029  -2.795  -2.444  0.00  0.00     0.099 C 
ATOM      8  N1  <0> d           0.031  -3.360  -3.430  0.00  0.00    -0.191 NA
ATOM      9  H4  <0> d          -0.007  -0.140  -2.128  0.00  0.00     0.086 H 
ATOM     10  H5  <0> d           0.056  -3.863   0.007  0.00  0.00     0.086 H 
ATOM     11  H6  <0> d           0.049  -2.634   2.135  0.00  0.00     0.087 H 
ENDROOT
BRANCH   1  12
ATOM     12  C1  <0> d          -0.018   1.503   0.010  0.00  0.00    -0.049 C 
ATOM     13  H1  <0> d           1.004   1.880   0.003  0.00  0.00     0.033 H 
ATOM     14  H2  <0> d          -0.545   1.864  -0.873  0.00  0.00     0.033 H 
ATOM     15  H3  <0> d          -0.529   1.854   0.907  0.00  0.00     0.033 H 
ENDBRANCH   1  12
BRANCH   6  16
ATOM     16  O1  <0> d           0.025  -0.029   2.380  0.00  0.00    -0.360 OA
ATOM     17  H7  <0> d          -0.858   0.154   2.729  0.00  0.00     0.217 HD
ENDBRANCH   6  16
TORSDOF 2
