REMARK  1 active torsions:
REMARK  status: ('A' for Active; 'I' for Inactive)
REMARK    1  A    between atoms: C2_2  and  N6_11 
ROOT
ATOM      1  C1  <0> d           1.540   0.938   1.296  0.00  0.00     0.173 C 
ATOM      2  C2  <0> d           3.012   1.278   1.324  0.00  0.00     0.161 C 
ATOM      3  N1  <0> d           3.762   0.674   0.424  0.00  0.00    -0.172 NA
ATOM      4  C3  <0> d           3.253  -0.190  -0.465  0.00  0.00     0.371 C 
ATOM      5  O1  <0> d           3.953  -0.515  -1.408  0.00  0.00    -0.242 OA
ATOM      6  N2  <0> d           1.514  -1.558   0.198  0.00  0.00    -0.168 NA
ATOM      7  C4  <0> d           1.201  -0.356   0.539  0.00  0.00     0.210 C 
ATOM      8  N3  <0> d           0.003  -0.005   0.001  0.00  0.00    -0.134 NA
ATOM      9  N4  <0> d          -0.017   1.407   0.009  0.00  0.00    -0.194 N 
ATOM     10  N5  <0> d           0.202   1.365   1.724  0.00  0.00    -0.149 NA
ATOM     11  H1  <0> d          -0.097   2.372  -0.512  0.00  0.00     0.213 HD
ENDROOT
BRANCH   2  12
ATOM     12  N6  <0> d           3.528   2.149   2.219  0.00  0.00    -0.382 N 
ATOM     13  H3  <0> d           4.605   2.372   2.210  0.00  0.00     0.157 HD
ATOM     14  H2  <0> d           2.872   2.634   2.956  0.00  0.00     0.157 HD
ENDBRANCH   2  12
TORSDOF 1
