REMARK  3 active torsions:
REMARK  status: ('A' for Active; 'I' for Inactive)
REMARK    1  A    between atoms: C1_1  and  C2_2 
REMARK    2  A    between atoms: C5_5  and  N1_10 
REMARK    3  A    between atoms: C7_7  and  C8_8 
ROOT
ATOM      1  C8  <0> d           0.026  -0.001   2.452  0.00  0.00    -0.077 C 
ATOM      2  C9  <0> d           0.028   0.579   3.473  0.00  0.00    -0.149 C 
ATOM      3  H7  <0> d           0.030   1.097   4.386  0.00  0.00     0.166 H 
ENDROOT
BRANCH   1   4
ATOM      4  C7  <0> d           0.023  -0.708   1.207  0.00  0.00     0.025 A 
ATOM      5  C2  <0> d           0.002  -0.004   0.002  0.00  0.00    -0.043 A 
ATOM      6  C3  <0> d           0.006  -0.688  -1.197  0.00  0.00    -0.074 A 
ATOM      7  C4  <0> d           0.024  -2.069  -1.210  0.00  0.00    -0.057 A 
ATOM      8  H4  <0> d          -0.006  -0.141  -2.128  0.00  0.00     0.084 H 
ATOM      9  C5  <0> d           0.039  -2.780  -0.015  0.00  0.00     0.027 A 
ATOM     10  H5  <0> d           0.027  -2.599  -2.152  0.00  0.00     0.086 H 
ATOM     11  C6  <0> d           0.036  -2.103   1.194  0.00  0.00    -0.039 A 
ATOM     12  H6  <0> d           0.047  -2.653   2.123  0.00  0.00     0.089 H 
BRANCH   5  13
ATOM     13  C1  <0> d          -0.018   1.503   0.010  0.00  0.00    -0.050 C 
ATOM     14  H1  <0> d           1.004   1.880   0.003  0.00  0.00     0.033 H 
ATOM     15  H2  <0> d          -0.545   1.864  -0.873  0.00  0.00     0.033 H 
ATOM     16  H3  <0> d          -0.529   1.854   0.907  0.00  0.00     0.033 H 
ENDBRANCH   5  13
BRANCH   9  17
ATOM     17  N1  <0> d           0.057  -4.177  -0.034  0.00  0.00    -0.399 N 
ATOM     18  H8  <0> d           0.059  -4.651  -0.880  0.00  0.00     0.156 HD
ATOM     19  H9  <0> d           0.068  -4.673   0.800  0.00  0.00     0.156 HD
ENDBRANCH   9  17
ENDBRANCH   1   4
TORSDOF 3
