REMARK  4 active torsions:
REMARK  status: ('A' for Active; 'I' for Inactive)
REMARK    1  A    between atoms: C1_1  and  C2_2 
REMARK    2  A    between atoms: C2_2  and  N1_3 
REMARK    3  A    between atoms: N1_3  and  C3_4 
REMARK    4  A    between atoms: C8_9  and  N2_10 
ROOT
ATOM      1  C3  <0> d          -1.610  -1.893   0.007  0.00  0.00     0.054 A 
ATOM      2  C4  <0> d          -0.545  -2.780  -0.008  0.00  0.00    -0.052 A 
ATOM      3  C5  <0> d          -0.780  -4.143  -0.012  0.00  0.00    -0.043 A 
ATOM      4  C6  <0> d          -2.078  -4.625  -0.002  0.00  0.00     0.118 A 
ATOM      5  C7  <0> d          -3.147  -3.744   0.013  0.00  0.00    -0.018 A 
ATOM      6  C8  <0> d          -2.917  -2.377   0.023  0.00  0.00     0.055 A 
ATOM      7  F1  <0> d          -2.303  -5.957  -0.006  0.00  0.00    -0.206 F 
ATOM      8  H7  <0> d           0.469  -2.408  -0.015  0.00  0.00     0.087 H 
ATOM      9  H8  <0> d           0.050  -4.833  -0.024  0.00  0.00     0.088 H 
ATOM     10  H9  <0> d          -4.158  -4.123   0.022  0.00  0.00     0.091 H 
ENDROOT
BRANCH   1  11
ATOM     11  N1  <0> d          -1.372  -0.511   0.012  0.00  0.00    -0.388 N 
ATOM     12  H6  <0> d          -2.218   0.192   0.024  0.00  0.00     0.159 HD
BRANCH  11  13
ATOM     13  C2  <0> d           0.002  -0.004   0.002  0.00  0.00    -0.011 C 
ATOM     14  H4  <0> d           0.517  -0.359  -0.903  0.00  0.00     0.063 H 
ATOM     15  H5  <0> d           0.534  -0.368   0.893  0.00  0.00     0.063 H 
BRANCH  13  16
ATOM     16  C1  <0> d          -0.019   1.526   0.010  0.00  0.00    -0.061 C 
ATOM     17  H1  <0> d           1.013   1.907   0.003  0.00  0.00     0.029 H 
ATOM     18  H2  <0> d          -0.534   1.881   0.915  0.00  0.00     0.029 H 
ATOM     19  H3  <0> d          -0.551   1.890  -0.881  0.00  0.00     0.029 H 
ENDBRANCH  13  16
ENDBRANCH  11  13
ENDBRANCH   1  11
BRANCH   6  20
ATOM     20  N2  <0> d          -3.996  -1.485   0.044  0.00  0.00    -0.397 N 
ATOM     21  H10 <0> d          -5.027  -1.868   0.056  0.00  0.00     0.156 HD
ATOM     22  H11 <0> d          -3.813  -0.400   0.048  0.00  0.00     0.156 HD
ENDBRANCH   6  20
TORSDOF 4
