REMARK  1 active torsions:
REMARK  status: ('A' for Active; 'I' for Inactive)
REMARK    1  A    between atoms: C2_2  and  O1_10 
ROOT
ATOM      1  C1  <0> d          -2.067   1.930   0.030  0.00  0.00     0.032 C 
ATOM      2  C2  <0> d          -0.943   1.992   1.082  0.00  0.00     0.110 C 
ATOM      3  H1  <0> d          -0.675   3.008   1.374  0.00  0.00     0.092 H 
ATOM      4  C3  <0> d          -0.017   1.395   0.010  0.00  0.00     0.333 C 
ATOM      5  C4  <0> d          -0.963   2.004  -1.038  0.00  0.00     0.313 C 
ATOM      6  F1  <0> d          -0.626   3.311  -1.406  0.00  0.00    -0.199 F 
ATOM      7  F2  <0> d          -1.190   1.171  -2.139  0.00  0.00    -0.199 F 
ATOM      8  F3  <0> d           0.002  -0.004   0.002  0.00  0.00    -0.197 F 
ATOM      9  F4  <0> d           1.265   1.956   0.001  0.00  0.00    -0.197 F 
ATOM     10  H2  <0> d          -2.724   2.800   0.041  0.00  0.00     0.046 H 
ATOM     11  H3  <0> d          -2.613   0.987   0.029  0.00  0.00     0.046 H 
ENDROOT
BRANCH   2  12
ATOM     12  O1  <0> d          -1.155   1.129   2.201  0.00  0.00    -0.389 OA
ATOM     13  H4  <0> d          -1.737   1.500   2.879  0.00  0.00     0.210 HD
ENDBRANCH   2  12
TORSDOF 1
