REMARK  2 active torsions:
REMARK  status: ('A' for Active; 'I' for Inactive)
REMARK    1  A    between atoms: C3_3  and  N3_9 
REMARK    2  A    between atoms: N1_4  and  C4_6 
ROOT
ATOM      1  C1  <0> d          -0.016   1.299   0.009  0.00  0.00     0.045 A 
ATOM      2  C2  <0> d           1.322   1.759  -0.001  0.00  0.00     0.108 A 
ATOM      3  C3  <0> d           2.139   0.633  -0.015  0.00  0.00     0.140 A 
ATOM      4  N1  <0> d           1.329  -0.446  -0.013  0.00  0.00    -0.248 N 
ATOM      5  N2  <0> d           0.002  -0.004   0.002  0.00  0.00    -0.181 NA
ATOM      6  C7  <0> d           1.753   3.125   0.001  0.00  0.00     0.105 C 
ATOM      7  N4  <0> d           2.095   4.208   0.003  0.00  0.00    -0.191 NA
ATOM      8  H1  <0> d          -0.899   1.921   0.025  0.00  0.00     0.119 H 
ENDROOT
BRANCH   3   9
ATOM      9  N3  <0> d           3.521   0.622  -0.029  0.00  0.00    -0.383 N 
ATOM     10  H7  <0> d           4.013   1.458  -0.029  0.00  0.00     0.157 HD
ATOM     11  H8  <0> d           3.999  -0.222  -0.038  0.00  0.00     0.157 HD
ENDBRANCH   3   9
BRANCH   4  12
ATOM     12  C4  <0> d           1.766  -1.845  -0.025  0.00  0.00     0.036 A 
ATOM     13  C6  <0> d           1.340  -2.728   1.149  0.00  0.00    -0.042 A 
ATOM     14  C5  <0> d           0.693  -2.918  -0.224  0.00  0.00    -0.042 A 
ATOM     15  H5  <0> d           2.042  -3.491   1.485  0.00  0.00     0.036 H 
ATOM     16  H6  <0> d           0.735  -2.268   1.931  0.00  0.00     0.036 H 
ATOM     17  H3  <0> d          -0.337  -2.583  -0.346  0.00  0.00     0.036 H 
ATOM     18  H4  <0> d           0.970  -3.806  -0.792  0.00  0.00     0.036 H 
ATOM     19  H2  <0> d           2.748  -2.027  -0.462  0.00  0.00     0.076 H 
ENDBRANCH   4  12
TORSDOF 2
