REMARK  4 active torsions:
REMARK  status: ('A' for Active; 'I' for Inactive)
REMARK    1  A    between atoms: C4_4  and  C7_7 
REMARK    2  A    between atoms: C4_4  and  O2_11 
REMARK    3  A    between atoms: C8_8  and  C9_9 
REMARK    4  A    between atoms: C9_9  and  O1_10 
ROOT
ATOM      1  C1  <0> d          -2.909   1.938   0.040  0.00  0.00    -0.065 C 
ATOM      2  C2  <0> d          -2.193   1.445  -1.219  0.00  0.00    -0.061 C 
ATOM      3  C3  <0> d          -0.758   1.975  -1.229  0.00  0.00    -0.026 C 
ATOM      4  C4  <0> d          -0.018   1.468   0.010  0.00  0.00     0.121 C 
ATOM      5  C5  <0> d          -0.734   1.961   1.269  0.00  0.00    -0.026 C 
ATOM      6  C6  <0> d          -2.169   1.432   1.280  0.00  0.00    -0.061 C 
ATOM      7  H1  <0> d          -2.924   3.028   0.046  0.00  0.00     0.033 H 
ATOM      8  H2  <0> d          -3.932   1.561   0.048  0.00  0.00     0.033 H 
ATOM      9  H3  <0> d          -2.720   1.806  -2.102  0.00  0.00     0.033 H 
ATOM     10  H4  <0> d          -2.179   0.355  -1.224  0.00  0.00     0.033 H 
ATOM     11  H5  <0> d          -0.773   3.064  -1.223  0.00  0.00     0.038 H 
ATOM     12  H6  <0> d          -0.248   1.623  -2.126  0.00  0.00     0.038 H 
ATOM     13  H7  <0> d          -0.207   1.600   2.152  0.00  0.00     0.038 H 
ATOM     14  H8  <0> d          -0.749   3.051   1.275  0.00  0.00     0.038 H 
ATOM     15  H9  <0> d          -2.680   1.783   2.177  0.00  0.00     0.033 H 
ATOM     16  H10 <0> d          -2.155   0.342   1.274  0.00  0.00     0.033 H 
ENDROOT
BRANCH   4  17
ATOM     17  C7  <0> d           0.002  -0.004   0.002  0.00  0.00    -0.066 C 
ATOM     18  C8  <0> d           0.018  -1.178  -0.004  0.00  0.00    -0.078 C 
BRANCH  18  19
ATOM     19  C9  <0> d           0.038  -2.650  -0.013  0.00  0.00     0.071 C 
ATOM     20  H11 <0> d          -0.985  -3.027  -0.005  0.00  0.00     0.093 H 
ATOM     21  H12 <0> d           0.548  -3.001  -0.909  0.00  0.00     0.093 H 
BRANCH  19  22
ATOM     22  O1  <0> d           0.729  -3.123   1.145  0.00  0.00    -0.389 OA
ATOM     23  H13 <0> d           0.781  -4.087   1.206  0.00  0.00     0.210 HD
ENDBRANCH  19  22
ENDBRANCH  18  19
ENDBRANCH   4  17
BRANCH   4  24
ATOM     24  O2  <0> d           1.323   1.962  -0.000  0.00  0.00    -0.378 OA
ATOM     25  H14 <0> d           1.852   1.680   0.758  0.00  0.00     0.211 HD
ENDBRANCH   4  24
TORSDOF 4
