REMARK  1 active torsions:
REMARK  status: ('A' for Active; 'I' for Inactive)
REMARK    1  A    between atoms: C7_7  and  N2_9 
ROOT
ATOM      1  C1  <0> d          -3.586   3.180   0.054  0.00  0.00    -0.064 A 
ATOM      2  C2  <0> d          -2.426   3.900   0.047  0.00  0.00    -0.051 A 
ATOM      3  C3  <0> d          -1.205   3.198   0.031  0.00  0.00     0.087 A 
ATOM      4  C4  <0> d          -1.235   1.782   0.018  0.00  0.00     0.085 A 
ATOM      5  C5  <0> d          -0.013   1.076   0.008  0.00  0.00    -0.049 A 
ATOM      6  C6  <0> d           1.147   1.789   0.001  0.00  0.00    -0.037 A 
ATOM      7  C7  <0> d           1.107   3.192   0.009  0.00  0.00     0.121 A 
ATOM      8  N1  <0> d          -0.036   3.846   0.023  0.00  0.00    -0.230 NA
ATOM      9  N3  <0> d          -2.403   1.137   0.032  0.00  0.00    -0.259 NA
ATOM     10  C8  <0> d          -3.541   1.788   0.046  0.00  0.00     0.003 A 
ATOM     11  H1  <0> d          -4.538   3.689   0.067  0.00  0.00     0.085 H 
ATOM     12  H2  <0> d          -2.443   4.980   0.053  0.00  0.00     0.087 H 
ATOM     13  H3  <0> d           0.002  -0.004   0.002  0.00  0.00     0.087 H 
ATOM     14  H4  <0> d           2.097   1.276  -0.011  0.00  0.00     0.089 H 
ATOM     15  H7  <0> d          -4.466   1.230   0.052  0.00  0.00     0.114 H 
ENDROOT
BRANCH   7  16
ATOM     16  N2  <0> d           2.296   3.905   0.001  0.00  0.00    -0.384 N 
ATOM     17  H5  <0> d           3.144   3.433  -0.010  0.00  0.00     0.157 HD
ATOM     18  H6  <0> d           2.281   4.875   0.006  0.00  0.00     0.157 HD
ENDBRANCH   7  16
TORSDOF 1
