REMARK  0 active torsions:
REMARK  status: ('A' for Active; 'I' for Inactive)
ROOT
ATOM      1  C1  <0> d          -0.018   1.495   0.010  0.00  0.00    -0.020 C 
ATOM      2  C2  <0> d           1.452   2.000  -0.001  0.00  0.00     0.052 C 
ATOM      3  S1  <0> d           2.242   0.494  -0.707  0.00  0.00     0.250 S 
ATOM      4  O1  <0> d           3.382   0.115   0.053  0.00  0.00    -0.204 OA
ATOM      5  O2  <0> d           2.287   0.560  -2.125  0.00  0.00    -0.204 OA
ATOM      6  N1  <0> d           1.055  -0.628  -0.339  0.00  0.00    -0.181 NA
ATOM      7  C3  <0> d           0.002  -0.004   0.002  0.00  0.00    -0.005 C 
ATOM      8  H1  <0> d          -0.523   1.851   0.908  0.00  0.00     0.042 H 
ATOM      9  H2  <0> d          -0.540   1.861  -0.874  0.00  0.00     0.042 H 
ATOM     10  H3  <0> d           1.575   2.863  -0.656  0.00  0.00     0.059 H 
ATOM     11  H4  <0> d           1.812   2.209   1.006  0.00  0.00     0.059 H 
ATOM     12  H5  <0> d          -0.882  -0.556   0.287  0.00  0.00     0.109 H 
ENDROOT
TORSDOF 0
