REMARK  5 active torsions:
REMARK  status: ('A' for Active; 'I' for Inactive)
REMARK    1  A    between atoms: C2_2  and  C3_3 
REMARK    2  A    between atoms: C3_3  and  O1_4 
REMARK    3  A    between atoms: O1_4  and  C4_5 
REMARK       I    between atoms: C4_5  and  N1_7 
REMARK    4  A    between atoms: N1_7  and  C5_8 
REMARK    5  A    between atoms: C5_8  and  C6_9 
ROOT
ATOM      1  C4  <0> d          -2.308  -2.622  -1.067  0.00  0.00     0.361 C 
ATOM      2  O2  <0> d          -3.286  -2.419  -0.376  0.00  0.00    -0.238 OA
ATOM      3  N1  <0> d          -2.308  -3.637  -1.954  0.00  0.00    -0.327 N 
ATOM      4  H8  <0> d          -1.527  -3.799  -2.506  0.00  0.00     0.165 HD
ENDROOT
BRANCH   1   5
ATOM      5  O1  <0> d          -1.224  -1.832  -0.949  0.00  0.00    -0.300 OA
BRANCH   5   6
ATOM      6  C3  <0> d          -1.293  -0.775   0.010  0.00  0.00     0.045 C 
ATOM      7  H4  <0> d          -1.459  -1.195   1.002  0.00  0.00     0.081 H 
ATOM      8  H5  <0> d          -2.115  -0.107  -0.244  0.00  0.00     0.081 H 
BRANCH   6   9
ATOM      9  C2  <0> d           0.002  -0.004   0.002  0.00  0.00    -0.089 C 
ATOM     10  C1  <0> d          -0.016   1.306   0.009  0.00  0.00    -0.123 C 
ATOM     11  H1  <0> d           0.912   1.859   0.003  0.00  0.00     0.066 H 
ATOM     12  H2  <0> d          -0.958   1.833   0.017  0.00  0.00     0.066 H 
ATOM     13  H3  <0> d           0.945  -0.531  -0.010  0.00  0.00     0.078 H 
ENDBRANCH   6   9
ENDBRANCH   5   6
ENDBRANCH   1   5
BRANCH   3  14
ATOM     14  C5  <0> d          -3.488  -4.497  -2.083  0.00  0.00     0.077 C 
ATOM     15  H6  <0> d          -3.691  -4.981  -1.127  0.00  0.00     0.080 H 
ATOM     16  H7  <0> d          -4.347  -3.892  -2.374  0.00  0.00     0.080 H 
BRANCH  14  17
ATOM     17  C6  <0> d          -3.232  -5.546  -3.133  0.00  0.00     0.191 C 
ATOM     18  O3  <0> d          -2.163  -5.574  -3.720  0.00  0.00    -0.647 OA
ATOM     19  O4  <0> d          -4.094  -6.367  -3.397  0.00  0.00    -0.647 OA
ENDBRANCH  14  17
ENDBRANCH   3  14
TORSDOF 5
