REMARK  1 active torsions:
REMARK  status: ('A' for Active; 'I' for Inactive)
REMARK    1  A    between atoms: C2_2  and  C4_8 
ROOT
ATOM      1  C1  <0> d          -0.013   1.086   0.008  0.00  0.00     0.059 A 
ATOM      2  C2  <0> d          -0.786   1.609   1.234  0.00  0.00     0.119 A 
ATOM      3  H1  <0> d          -1.157   0.779   1.835  0.00  0.00     0.093 H 
ATOM      4  N1  <0> d          -1.908   2.361   0.641  0.00  0.00    -0.320 N 
ATOM      5  C3  <0> d          -1.815   2.299  -0.694  0.00  0.00     0.361 A 
ATOM      6  O1  <0> d          -2.612   2.833  -1.440  0.00  0.00    -0.238 OA
ATOM      7  O2  <0> d          -0.766   1.593  -1.131  0.00  0.00    -0.301 OA
ATOM      8  H2  <0> d           0.002  -0.004   0.002  0.00  0.00     0.079 H 
ATOM      9  H3  <0> d           1.003   1.481   0.000  0.00  0.00     0.079 H 
ATOM     10  H4  <0> d          -2.599   2.825   1.138  0.00  0.00     0.165 HD
ENDROOT
BRANCH   2  11
ATOM     11  C4  <0> d           0.085   2.518   2.062  0.00  0.00     0.199 C 
ATOM     12  O3  <0> d          -0.025   3.716   1.961  0.00  0.00    -0.646 OA
ATOM     13  O4  <0> d           0.984   1.995   2.911  0.00  0.00    -0.646 OA
ENDBRANCH   2  11
TORSDOF 1
