REMARK  7 active torsions:
REMARK  status: ('A' for Active; 'I' for Inactive)
REMARK    1  A    between atoms: C1_1  and  C2_2 
REMARK    2  A    between atoms: C2_2  and  C3_3 
REMARK    3  A    between atoms: C3_3  and  C4_4 
REMARK    4  A    between atoms: C4_4  and  C5_5 
REMARK    5  A    between atoms: C6_6  and  O1_7 
REMARK    6  A    between atoms: O1_7  and  C7_8 
REMARK    7  A    between atoms: C7_8  and  C8_9 
ROOT
ATOM      1  C4  <0> d          -1.413  -2.063   0.004  0.00  0.00    -0.007 C 
ATOM      2  H8  <0> d          -0.902  -2.415  -0.892  0.00  0.00     0.052 H 
ATOM      3  H9  <0> d          -0.885  -2.425   0.887  0.00  0.00     0.052 H 
ENDROOT
BRANCH   1   4
ATOM      4  C3  <0> d          -1.433  -0.534   0.013  0.00  0.00    -0.056 C 
ATOM      5  H6  <0> d          -1.944  -0.182   0.910  0.00  0.00     0.034 H 
ATOM      6  H7  <0> d          -1.960  -0.173  -0.870  0.00  0.00     0.034 H 
BRANCH   4   7
ATOM      7  C2  <0> d           0.002  -0.004   0.002  0.00  0.00    -0.068 C 
ATOM      8  H4  <0> d           0.512  -0.356  -0.895  0.00  0.00     0.032 H 
ATOM      9  H5  <0> d           0.529  -0.365   0.885  0.00  0.00     0.032 H 
BRANCH   7  10
ATOM     10  C1  <0> d          -0.019   1.526   0.010  0.00  0.00    -0.076 C 
ATOM     11  H1  <0> d           1.004   1.903   0.003  0.00  0.00     0.027 H 
ATOM     12  H2  <0> d          -0.546   1.887  -0.873  0.00  0.00     0.027 H 
ATOM     13  H3  <0> d          -0.529   1.877   0.907  0.00  0.00     0.027 H 
ENDBRANCH   7  10
ENDBRANCH   4   7
ENDBRANCH   1   4
BRANCH   1  14
ATOM     14  C5  <0> d          -2.793  -2.573   0.015  0.00  0.00    -0.076 C 
ATOM     15  C6  <0> d          -3.895  -2.979   0.023  0.00  0.00     0.054 C 
BRANCH  15  16
ATOM     16  O1  <0> d          -5.166  -3.448   0.033  0.00  0.00    -0.304 OA
BRANCH  16  17
ATOM     17  C7  <0> d          -5.260  -4.874   0.026  0.00  0.00     0.032 C 
ATOM     18  H10 <0> d          -4.779  -5.266  -0.871  0.00  0.00     0.075 H 
ATOM     19  H11 <0> d          -4.762  -5.275   0.909  0.00  0.00     0.075 H 
BRANCH  17  20
ATOM     20  C8  <0> d          -6.732  -5.289   0.038  0.00  0.00    -0.055 C 
ATOM     21  H12 <0> d          -7.213  -4.897   0.935  0.00  0.00     0.030 H 
ATOM     22  H13 <0> d          -7.230  -4.888  -0.845  0.00  0.00     0.030 H 
ATOM     23  H14 <0> d          -6.804  -6.377   0.033  0.00  0.00     0.030 H 
ENDBRANCH  17  20
ENDBRANCH  16  17
ENDBRANCH  15  16
ENDBRANCH   1  14
TORSDOF 7
