REMARK  0 active torsions:
REMARK  status: ('A' for Active; 'I' for Inactive)
ROOT
ATOM      1  C1  <0> d           2.396   0.005  -0.020  0.00  0.00    -0.076 A 
ATOM      2  C2  <0> d           2.347   1.390  -0.013  0.00  0.00    -0.044 A 
ATOM      3  C3  <0> d           1.107   2.024   0.002  0.00  0.00     0.139 A 
ATOM      4  N1  <0> d          -0.016   1.313   0.009  0.00  0.00    -0.209 NA
ATOM      5  C4  <0> d           0.002  -0.004   0.002  0.00  0.00     0.211 A 
ATOM      6  C5  <0> d           1.204  -0.700  -0.013  0.00  0.00    -0.027 A 
ATOM      7  F1  <0> d          -1.164  -0.687   0.009  0.00  0.00    -0.184 F 
ATOM      8  C6  <0> d           1.041   3.455   0.010  0.00  0.00     0.119 C 
ATOM      9  N2  <0> d           0.988   4.590   0.016  0.00  0.00    -0.190 NA
ATOM     10  H1  <0> d           3.344  -0.514  -0.032  0.00  0.00     0.083 H 
ATOM     11  H2  <0> d           3.258   1.970  -0.018  0.00  0.00     0.088 H 
ATOM     12  H3  <0> d           1.208  -1.780  -0.019  0.00  0.00     0.090 H 
ENDROOT
TORSDOF 0
