REMARK  3 active torsions:
REMARK  status: ('A' for Active; 'I' for Inactive)
REMARK    1  A    between atoms: C1_1  and  C2_2 
REMARK    2  A    between atoms: C3_3  and  C6_8 
REMARK    3  A    between atoms: N1_4  and  C5_7 
ROOT
ATOM      1  C2  <0> d           1.244   1.760  -0.000  0.00  0.00     0.054 A 
ATOM      2  C3  <0> d           2.075   0.700  -0.014  0.00  0.00     0.032 A 
ATOM      3  N1  <0> d           1.287  -0.420  -0.013  0.00  0.00    -0.348 N 
ATOM      4  C4  <0> d           0.002  -0.004   0.002  0.00  0.00     0.066 A 
ATOM      5  N2  <0> d          -0.016   1.301   0.009  0.00  0.00    -0.247 NA
ATOM      6  H4  <0> d          -0.867  -0.645   0.006  0.00  0.00     0.143 H 
ENDROOT
BRANCH   1   7
ATOM      7  C1  <0> d           1.659   3.209   0.003  0.00  0.00    -0.034 C 
ATOM      8  H1  <0> d           1.769   3.554   1.031  0.00  0.00     0.035 H 
ATOM      9  H2  <0> d           2.609   3.317  -0.520  0.00  0.00     0.035 H 
ATOM     10  H3  <0> d           0.898   3.806  -0.501  0.00  0.00     0.035 H 
ENDBRANCH   1   7
BRANCH   2  11
ATOM     11  C6  <0> d           3.581   0.739  -0.029  0.00  0.00    -0.035 C 
ATOM     12  H8  <0> d           3.934   0.754  -1.060  0.00  0.00     0.035 H 
ATOM     13  H9  <0> d           3.926   1.635   0.487  0.00  0.00     0.035 H 
ATOM     14  H10 <0> d           3.972  -0.145   0.476  0.00  0.00     0.035 H 
ENDBRANCH   2  11
BRANCH   3  15
ATOM     15  C5  <0> d           1.751  -1.809  -0.024  0.00  0.00    -0.013 C 
ATOM     16  H5  <0> d           1.856  -2.148  -1.055  0.00  0.00     0.057 H 
ATOM     17  H6  <0> d           2.715  -1.874   0.479  0.00  0.00     0.057 H 
ATOM     18  H7  <0> d           1.027  -2.438   0.493  0.00  0.00     0.057 H 
ENDBRANCH   3  15
TORSDOF 3
