REMARK  0 active torsions:
REMARK  status: ('A' for Active; 'I' for Inactive)
ROOT
ATOM      1  C1  <0> d           3.158   3.189  -0.012  0.00  0.00    -0.040 A 
ATOM      2  C2  <0> d           3.965   2.049  -0.026  0.00  0.00     0.025 A 
ATOM      3  N1  <0> d           3.440   0.850  -0.026  0.00  0.00    -0.159 NA
ATOM      4  N2  <0> d           2.058   0.672  -0.014  0.00  0.00    -0.109 N 
ATOM      5  C3  <0> d           1.219   1.756  -0.000  0.00  0.00     0.216 A 
ATOM      6  C4  <0> d           1.777   3.058   0.001  0.00  0.00     0.097 A 
ATOM      7  C5  <0> d           0.932   4.214   0.015  0.00  0.00     0.103 C 
ATOM      8  N3  <0> d           0.263   5.132   0.027  0.00  0.00    -0.191 NA
ATOM      9  N4  <0> d          -0.015   1.282   0.009  0.00  0.00    -0.105 NA
ATOM     10  N5  <0> d           0.002  -0.004   0.002  0.00  0.00    -0.021 NA
ATOM     11  N6  <0> d           1.214  -0.446  -0.012  0.00  0.00    -0.021 NA
ATOM     12  H1  <0> d           3.608   4.171  -0.012  0.00  0.00     0.088 H 
ATOM     13  H2  <0> d           5.039   2.159  -0.036  0.00  0.00     0.117 H 
ENDROOT
TORSDOF 0
