REMARK  4 active torsions:
REMARK  status: ('A' for Active; 'I' for Inactive)
REMARK    1  A    between atoms: C1_1  and  C2_2 
REMARK    2  A    between atoms: C7_8  and  C9_12 
REMARK    3  A    between atoms: C7_8  and  C10_13 
REMARK    4  A    between atoms: C8_9  and  O1_11 
ROOT
ATOM      1  C2  <0> d          -0.114  -0.240   0.384  0.00  0.00    -0.017 C 
ATOM      2  C3  <0> d          -1.380  -1.126   0.589  0.00  0.00    -0.056 C 
ATOM      3  C4  <0> d          -0.826  -2.544   0.855  0.00  0.00    -0.060 C 
ATOM      4  C5  <0> d           0.723  -2.382   0.785  0.00  0.00    -0.044 C 
ATOM      5  H1  <0> d           1.306  -3.166   1.267  0.00  0.00     0.041 H 
ATOM      6  C6  <0> d           0.889  -0.935   1.371  0.00  0.00    -0.052 C 
ATOM      7  C7  <0> d           1.023  -2.139  -0.725  0.00  0.00    -0.017 C 
ATOM      8  C8  <0> d           0.479  -0.683  -0.989  0.00  0.00     0.049 C 
ATOM      9  H2  <0> d           1.276  -0.006  -1.295  0.00  0.00     0.085 H 
ATOM     10  H6  <0> d          -1.955  -0.775   1.446  0.00  0.00     0.034 H 
ATOM     11  H7  <0> d          -1.997  -1.121  -0.310  0.00  0.00     0.034 H 
ATOM     12  H8  <0> d          -1.128  -2.891   1.843  0.00  0.00     0.033 H 
ATOM     13  H9  <0> d          -1.170  -3.237   0.086  0.00  0.00     0.033 H 
ATOM     14  H10 <0> d           1.906  -0.560   1.252  0.00  0.00     0.034 H 
ATOM     15  H11 <0> d           0.554  -0.872   2.406  0.00  0.00     0.034 H 
ENDROOT
BRANCH   7  16
ATOM     16  C9  <0> d           2.530  -2.184  -0.984  0.00  0.00    -0.067 C 
ATOM     17  H13 <0> d           2.920  -3.160  -0.697  0.00  0.00     0.028 H 
ATOM     18  H14 <0> d           2.723  -2.013  -2.043  0.00  0.00     0.028 H 
ATOM     19  H15 <0> d           3.023  -1.409  -0.395  0.00  0.00     0.028 H 
ENDBRANCH   7  16
BRANCH   7  20
ATOM     20  C10 <0> d           0.302  -3.179  -1.586  0.00  0.00    -0.067 C 
ATOM     21  H16 <0> d          -0.774  -3.014  -1.530  0.00  0.00     0.028 H 
ATOM     22  H17 <0> d           0.631  -3.086  -2.621  0.00  0.00     0.028 H 
ATOM     23  H18 <0> d           0.536  -4.179  -1.219  0.00  0.00     0.028 H 
ENDBRANCH   7  20
BRANCH   8  24
ATOM     24  O1  <0> d          -0.547  -0.729  -1.982  0.00  0.00    -0.394 OA
ATOM     25  H12 <0> d          -0.235  -0.999  -2.857  0.00  0.00     0.210 HD
ENDBRANCH   8  24
BRANCH   1  26
ATOM     26  C1  <0> d          -0.313   1.266   0.572  0.00  0.00    -0.067 C 
ATOM     27  H3  <0> d           0.644   1.776   0.459  0.00  0.00     0.028 H 
ATOM     28  H4  <0> d          -1.013   1.636  -0.178  0.00  0.00     0.028 H 
ATOM     29  H5  <0> d          -0.712   1.458   1.567  0.00  0.00     0.028 H 
ENDBRANCH   1  26
TORSDOF 4
