REMARK  1 active torsions:
REMARK  status: ('A' for Active; 'I' for Inactive)
REMARK    1  A    between atoms: C1_1  and  C2_2 
ROOT
ATOM      1  C2  <0> d          -0.018   1.503   0.010  0.00  0.00     0.055 A 
ATOM      2  C3  <0> d           1.168   2.222   0.003  0.00  0.00     0.075 A 
ATOM      3  C4  <0> d           1.099   3.607   0.011  0.00  0.00     0.026 A 
ATOM      4  N1  <0> d          -0.088   4.192   0.025  0.00  0.00    -0.252 NA
ATOM      5  C5  <0> d          -1.194   3.476   0.031  0.00  0.00     0.086 A 
ATOM      6  N2  <0> d          -1.168   2.158   0.019  0.00  0.00    -0.245 NA
ATOM      7 Cl1  <0> d           2.701   1.409  -0.016  0.00  0.00    -0.081 Cl
ATOM      8  H4  <0> d           2.001   4.201   0.005  0.00  0.00     0.117 H 
ATOM      9  H5  <0> d          -2.148   3.982   0.042  0.00  0.00     0.146 H 
ENDROOT
BRANCH   1  10
ATOM     10  C1  <0> d           0.002  -0.004   0.002  0.00  0.00    -0.034 C 
ATOM     11  H1  <0> d           0.017  -0.373   1.028  0.00  0.00     0.035 H 
ATOM     12  H2  <0> d          -0.888  -0.377  -0.505  0.00  0.00     0.035 H 
ATOM     13  H3  <0> d           0.892  -0.352  -0.522  0.00  0.00     0.035 H 
ENDBRANCH   1  10
TORSDOF 1
