REMARK  7 active torsions:
REMARK  status: ('A' for Active; 'I' for Inactive)
REMARK    1  A    between atoms: C1_1  and  C2_2 
REMARK    2  A    between atoms: C2_2  and  C3_4 
REMARK    3  A    between atoms: C2_2  and  C4_6 
REMARK    4  A    between atoms: C3_4  and  O1_5 
REMARK    5  A    between atoms: C4_6  and  C5_7 
REMARK    6  A    between atoms: C4_6  and  C6_8 
REMARK    7  A    between atoms: C4_6  and  C7_9 
ROOT
ATOM      1  C4  <0> d          -0.735   2.019   1.269  0.00  0.00    -0.046 C 
ENDROOT
BRANCH   1   2
ATOM      2  C2  <0> d          -0.019   1.526   0.010  0.00  0.00    -0.031 C 
ATOM      3  H1  <0> d           1.004   1.903   0.003  0.00  0.00     0.043 H 
BRANCH   2   4
ATOM      4  C1  <0> d          -0.759   2.033  -1.229  0.00  0.00    -0.070 C 
ATOM      5  H2  <0> d          -0.773   3.123  -1.223  0.00  0.00     0.028 H 
ATOM      6  H3  <0> d          -0.248   1.681  -2.126  0.00  0.00     0.028 H 
ATOM      7  H4  <0> d          -1.781   1.655  -1.221  0.00  0.00     0.028 H 
ENDBRANCH   2   4
BRANCH   2   8
ATOM      8  C3  <0> d           0.002  -0.004   0.002  0.00  0.00     0.020 C 
ATOM      9  H5  <0> d           0.450  -0.366   0.927  0.00  0.00     0.074 H 
ATOM     10  H6  <0> d          -1.018  -0.381  -0.080  0.00  0.00     0.074 H 
BRANCH   8  11
ATOM     11  O1  <0> d           0.771  -0.464  -1.111  0.00  0.00    -0.400 OA
ATOM     12  H7  <0> d           0.827  -1.427  -1.180  0.00  0.00     0.209 HD
ENDBRANCH   8  11
ENDBRANCH   2   8
ENDBRANCH   1   2
BRANCH   1  13
ATOM     13  C5  <0> d           0.005   1.512   2.509  0.00  0.00    -0.069 C 
ATOM     14  H8  <0> d           1.028   1.890   2.501  0.00  0.00     0.028 H 
ATOM     15  H9  <0> d          -0.505   1.864   3.406  0.00  0.00     0.028 H 
ATOM     16  H10 <0> d           0.020   0.422   2.503  0.00  0.00     0.028 H 
ENDBRANCH   1  13
BRANCH   1  17
ATOM     17  C6  <0> d          -0.756   3.549   1.278  0.00  0.00    -0.069 C 
ATOM     18  H11 <0> d          -1.283   3.910   0.395  0.00  0.00     0.028 H 
ATOM     19  H12 <0> d          -1.266   3.901   2.174  0.00  0.00     0.028 H 
ATOM     20  H13 <0> d           0.267   3.926   1.270  0.00  0.00     0.028 H 
ENDBRANCH   1  17
BRANCH   1  21
ATOM     21  C7  <0> d          -2.170   1.490   1.280  0.00  0.00    -0.069 C 
ATOM     22  H14 <0> d          -2.155   0.400   1.274  0.00  0.00     0.028 H 
ATOM     23  H15 <0> d          -2.680   1.841   2.177  0.00  0.00     0.028 H 
ATOM     24  H16 <0> d          -2.697   1.851   0.397  0.00  0.00     0.028 H 
ENDBRANCH   1  21
TORSDOF 7
