REMARK  2 active torsions:
REMARK  status: ('A' for Active; 'I' for Inactive)
REMARK    1  A    between atoms: C1_1  and  C2_2 
REMARK    2  A    between atoms: C3_3  and  C5_8 
ROOT
ATOM      1  C2  <0> d           0.002  -0.004   0.002  0.00  0.00     0.034 A 
ATOM      2  C3  <0> d           0.008  -0.799  -1.102  0.00  0.00     0.065 A 
ATOM      3  N1  <0> d           0.029  -2.098  -0.648  0.00  0.00    -0.350 N 
ATOM      4  H1  <0> d           0.037  -2.900  -1.195  0.00  0.00     0.166 HD
ATOM      5  C4  <0> d           0.034  -2.047   0.701  0.00  0.00     0.041 A 
ATOM      6  N2  <0> d           0.024  -0.797   1.079  0.00  0.00    -0.354 N 
ATOM      7  H5  <0> d           0.050  -2.902   1.361  0.00  0.00     0.140 H 
ATOM      8  H11 <0> d           0.029  -0.491   2.000  0.00  0.00     0.166 HD
ENDROOT
BRANCH   2   9
ATOM      9  C5  <0> d          -0.006  -0.354  -2.513  0.00  0.00    -0.007 A 
ATOM     10  C10 <0> d           0.852  -0.945  -3.442  0.00  0.00    -0.071 A 
ATOM     11  C9  <0> d           0.830  -0.530  -4.758  0.00  0.00    -0.082 A 
ATOM     12  H10 <0> d           1.528  -1.728  -3.133  0.00  0.00     0.084 H 
ATOM     13  C8  <0> d          -0.031   0.478  -5.154  0.00  0.00    -0.083 A 
ATOM     14  H9  <0> d           1.489  -0.990  -5.479  0.00  0.00     0.083 H 
ATOM     15  C7  <0> d          -0.879   1.072  -4.236  0.00  0.00    -0.082 A 
ATOM     16  H8  <0> d          -0.042   0.802  -6.184  0.00  0.00     0.083 H 
ATOM     17  C6  <0> d          -0.872   0.662  -2.919  0.00  0.00    -0.071 A 
ATOM     18  H7  <0> d          -1.549   1.858  -4.552  0.00  0.00     0.083 H 
ATOM     19  H6  <0> d          -1.535   1.126  -2.204  0.00  0.00     0.084 H 
ENDBRANCH   2   9
BRANCH   1  20
ATOM     20  C1  <0> d          -0.018   1.503   0.010  0.00  0.00    -0.035 C 
ATOM     21  H2  <0> d           1.004   1.880   0.003  0.00  0.00     0.035 H 
ATOM     22  H3  <0> d          -0.545   1.864  -0.873  0.00  0.00     0.035 H 
ATOM     23  H4  <0> d          -0.529   1.854   0.907  0.00  0.00     0.035 H 
ENDBRANCH   1  20
TORSDOF 2
