REMARK  0 active torsions:
REMARK  status: ('A' for Active; 'I' for Inactive)
ROOT
ATOM      1  C1  <0> d          -0.811   1.624  -1.216  0.00  0.00    -0.062 C 
ATOM      2  C2  <0> d          -0.013   1.086   0.008  0.00  0.00    -0.052 C 
ATOM      3  C3  <0> d          -0.763   1.594   1.214  0.00  0.00     0.043 C 
ATOM      4  H1  <0> d          -1.597   0.943   1.474  0.00  0.00     0.057 H 
ATOM      5  C4  <0> d          -1.173   3.014   0.673  0.00  0.00     0.024 C 
ATOM      6  H2  <0> d          -0.268   3.566   0.419  0.00  0.00     0.073 H 
ATOM      7  C5  <0> d          -1.855   2.616  -0.605  0.00  0.00    -0.045 C 
ATOM      8  N1  <0> d          -1.513   3.295   1.997  0.00  0.00    -0.355 N 
ATOM      9  C6  <0> d          -0.408   2.524   2.274  0.00  0.00     0.224 C 
ATOM     10  O1  <0> d           0.489   2.590   3.087  0.00  0.00    -0.273 OA
ATOM     11  H3  <0> d          -0.146   2.148  -1.902  0.00  0.00     0.033 H 
ATOM     12  H4  <0> d          -1.317   0.806  -1.728  0.00  0.00     0.033 H 
ATOM     13  H5  <0> d           0.002  -0.004   0.002  0.00  0.00     0.034 H 
ATOM     14  H6  <0> d           1.004   1.478   0.000  0.00  0.00     0.034 H 
ATOM     15  H7  <0> d          -2.001   3.478  -1.255  0.00  0.00     0.036 H 
ATOM     16  H8  <0> d          -2.801   2.114  -0.405  0.00  0.00     0.036 H 
ATOM     17  H9  <0> d          -2.193   3.788   2.482  0.00  0.00     0.162 HD
ENDROOT
TORSDOF 0
