REMARK  3 active torsions:
REMARK  status: ('A' for Active; 'I' for Inactive)
REMARK    1  A    between atoms: C1_1  and  O1_2 
REMARK    2  A    between atoms: O1_2  and  C2_3 
REMARK    3  A    between atoms: C2_3  and  C3_5 
ROOT
ATOM      1  C3  <0> d           0.657  -2.104  -1.120  0.00  0.00     0.096 C 
ATOM      2  H1  <0> d           0.861  -2.507  -0.128  0.00  0.00     0.088 H 
ATOM      3  C4  <0> d          -0.686  -2.638  -1.617  0.00  0.00    -0.037 C 
ATOM      4  C5  <0> d          -0.543  -4.137  -1.903  0.00  0.00    -0.055 C 
ATOM      5  C6  <0> d           0.392  -4.313  -3.102  0.00  0.00     0.009 C 
ATOM      6  C7  <0> d           1.637  -3.497  -2.904  0.00  0.00     0.218 C 
ATOM      7  O3  <0> d           2.610  -3.760  -3.578  0.00  0.00    -0.274 OA
ATOM      8  N1  <0> d           1.726  -2.498  -2.029  0.00  0.00    -0.347 N 
ATOM      9  H5  <0> d          -1.447  -2.482  -0.852  0.00  0.00     0.036 H 
ATOM     10  H6  <0> d          -0.972  -2.116  -2.530  0.00  0.00     0.036 H 
ATOM     11  H7  <0> d          -0.122  -4.639  -1.032  0.00  0.00     0.033 H 
ATOM     12  H8  <0> d          -1.520  -4.561  -2.135  0.00  0.00     0.033 H 
ATOM     13  H9  <0> d           0.661  -5.365  -3.200  0.00  0.00     0.047 H 
ATOM     14  H10 <0> d          -0.116  -3.984  -4.009  0.00  0.00     0.047 H 
ATOM     15  H11 <0> d           2.559  -2.002  -1.993  0.00  0.00     0.163 HD
ENDROOT
BRANCH   1  16
ATOM     16  C2  <0> d           0.598  -0.600  -1.043  0.00  0.00     0.281 C 
ATOM     17  O2  <0> d           1.088   0.070  -1.921  0.00  0.00    -0.263 OA
BRANCH  16  18
ATOM     18  O1  <0> d           0.002  -0.004   0.002  0.00  0.00    -0.325 OA
BRANCH  18  19
ATOM     19  C1  <0> d          -0.017   1.425   0.010  0.00  0.00     0.013 C 
ATOM     20  H2  <0> d           1.005   1.802   0.002  0.00  0.00     0.067 H 
ATOM     21  H3  <0> d          -0.544   1.786  -0.873  0.00  0.00     0.067 H 
ATOM     22  H4  <0> d          -0.527   1.776   0.907  0.00  0.00     0.067 H 
ENDBRANCH  18  19
ENDBRANCH  16  18
ENDBRANCH   1  16
TORSDOF 3
