REMARK  0 active torsions:
REMARK  status: ('A' for Active; 'I' for Inactive)
ROOT
ATOM      1  C1  <0> d          -0.017   1.409   0.010  0.00  0.00    -0.060 A 
ATOM      2  C2  <0> d           1.263   1.829  -0.000  0.00  0.00    -0.022 A 
ATOM      3  N1  <0> d           2.071   0.732  -0.014  0.00  0.00    -0.368 N 
ATOM      4  H1  <0> d           3.041   0.745  -0.023  0.00  0.00     0.165 HD
ATOM      5  C3  <0> d           1.288  -0.391  -0.012  0.00  0.00     0.022 A 
ATOM      6  C4  <0> d           0.002  -0.004   0.002  0.00  0.00    -0.027 A 
ATOM      7  C5  <0> d          -0.912  -1.204   0.004  0.00  0.00     0.016 A 
ATOM      8  C6  <0> d          -0.030  -2.431  -0.011  0.00  0.00     0.136 A 
ATOM      9  O1  <0> d          -0.379  -3.587  -0.014  0.00  0.00    -0.297 OA
ATOM     10  C7  <0> d           1.384  -1.898  -0.022  0.00  0.00     0.029 A 
ATOM     11  H2  <0> d          -0.896   2.036   0.026  0.00  0.00     0.086 H 
ATOM     12  H3  <0> d           1.592   2.857   0.002  0.00  0.00     0.111 H 
ATOM     13  H4  <0> d          -1.528  -1.200   0.904  0.00  0.00     0.051 H 
ATOM     14  H5  <0> d          -1.545  -1.190  -0.883  0.00  0.00     0.051 H 
ATOM     15  H6  <0> d           1.900  -2.231  -0.922  0.00  0.00     0.053 H 
ATOM     16  H7  <0> d           1.917  -2.241   0.865  0.00  0.00     0.053 H 
ENDROOT
TORSDOF 0
