REMARK  7 active torsions:
REMARK  status: ('A' for Active; 'I' for Inactive)
REMARK    1  A    between atoms: C2_2  and  C3_3 
REMARK    2  A    between atoms: C3_3  and  O1_4 
REMARK    3  A    between atoms: O1_4  and  C4_5 
REMARK    4  A    between atoms: C4_5  and  O3_7 
REMARK    5  A    between atoms: O3_7  and  C5_8 
REMARK    6  A    between atoms: C5_8  and  C6_9 
REMARK    7  A    between atoms: C6_9  and  O4_10 
ROOT
ATOM      1  C4  <0> d           0.340   4.827   1.425  0.00  0.00     0.406 C 
ATOM      2  O2  <0> d           0.668   5.606   0.553  0.00  0.00    -0.229 OA
ENDROOT
BRANCH   1   3
ATOM      3  O1  <0> d          -0.220   5.285   2.560  0.00  0.00    -0.294 OA
BRANCH   3   4
ATOM      4  C3  <0> d          -0.401   6.721   2.673  0.00  0.00     0.045 C 
ATOM      5  H4  <0> d           0.568   7.216   2.604  0.00  0.00     0.081 H 
ATOM      6  H5  <0> d          -1.046   7.070   1.867  0.00  0.00     0.081 H 
BRANCH   4   7
ATOM      7  C2  <0> d          -1.037   7.043   4.001  0.00  0.00    -0.089 C 
ATOM      8  C1  <0> d          -0.573   8.030   4.727  0.00  0.00    -0.123 C 
ATOM      9  H1  <0> d          -1.029   8.262   5.678  0.00  0.00     0.066 H 
ATOM     10  H2  <0> d           0.266   8.612   4.374  0.00  0.00     0.066 H 
ATOM     11  H3  <0> d          -1.876   6.462   4.354  0.00  0.00     0.078 H 
ENDBRANCH   4   7
ENDBRANCH   3   4
ENDBRANCH   1   3
BRANCH   1  12
ATOM     12  O3  <0> d           0.536   3.507   1.256  0.00  0.00    -0.296 OA
BRANCH  12  13
ATOM     13  C5  <0> d           1.145   3.085   0.008  0.00  0.00     0.050 C 
ATOM     14  H6  <0> d           2.130   3.542  -0.089  0.00  0.00     0.078 H 
ATOM     15  H7  <0> d           0.516   3.397  -0.827  0.00  0.00     0.078 H 
BRANCH  13  16
ATOM     16  C6  <0> d           1.286   1.562  -0.002  0.00  0.00     0.037 C 
ATOM     17  H8  <0> d           1.840   1.243   0.881  0.00  0.00     0.077 H 
ATOM     18  H9  <0> d           1.823   1.252  -0.899  0.00  0.00     0.077 H 
BRANCH  16  19
ATOM     19  O4  <0> d          -0.011   0.963   0.007  0.00  0.00    -0.399 OA
ATOM     20  H10 <0> d           0.002  -0.004   0.002  0.00  0.00     0.209 HD
ENDBRANCH  16  19
ENDBRANCH  13  16
ENDBRANCH  12  13
ENDBRANCH   1  12
TORSDOF 7
