REMARK  5 active torsions:
REMARK  status: ('A' for Active; 'I' for Inactive)
REMARK    1  A    between atoms: C1_1  and  C2_2 
REMARK    2  A    between atoms: N1_4  and  C9_11 
REMARK    3  A    between atoms: C4_5  and  C8_10 
REMARK    4  A    between atoms: C5_6  and  C6_7 
REMARK    5  A    between atoms: C6_7  and  C7_9 
ROOT
ATOM      1  C2  <0> d          -1.121   1.839  -0.021  0.00  0.00    -0.031 A 
ATOM      2  C3  <0> d          -0.017   1.074  -0.021  0.00  0.00    -0.014 A 
ATOM      3  N1  <0> d           1.085   1.879   0.018  0.00  0.00    -0.363 N 
ATOM      4  C4  <0> d           0.722   3.173   0.051  0.00  0.00     0.021 A 
ATOM      5  C5  <0> d          -0.659   3.233   0.033  0.00  0.00     0.039 A 
ATOM      6  H4  <0> d          -0.003  -0.005  -0.053  0.00  0.00     0.112 H 
ENDROOT
BRANCH   5   7
ATOM      7  C6  <0> d          -1.491   4.438   0.056  0.00  0.00     0.158 C 
ATOM      8  O1  <0> d          -1.898   4.875   1.112  0.00  0.00    -0.293 OA
BRANCH   7   9
ATOM      9  C7  <0> d          -1.841   5.136  -1.233  0.00  0.00    -0.017 C 
ATOM     10  H5  <0> d          -2.731   4.815  -1.555  0.00  0.00     0.038 H 
ATOM     11  H6  <0> d          -1.882   6.212  -1.064  0.00  0.00     0.038 H 
ATOM     12  H7  <0> d          -1.082   4.915  -1.984  0.00  0.00     0.038 H 
ENDBRANCH   7   9
ENDBRANCH   5   7
BRANCH   1  13
ATOM     13  C1  <0> d          -2.550   1.363  -0.064  0.00  0.00    -0.049 C 
ATOM     14  H1  <0> d          -2.946   1.309   0.950  0.00  0.00     0.033 H 
ATOM     15  H2  <0> d          -3.148   2.060  -0.651  0.00  0.00     0.033 H 
ATOM     16  H3  <0> d          -2.590   0.375  -0.522  0.00  0.00     0.033 H 
ENDBRANCH   1  13
BRANCH   4  17
ATOM     17  C8  <0> d           1.657   4.353   0.100  0.00  0.00    -0.036 C 
ATOM     18  H8  <0> d           1.898   4.668  -0.916  0.00  0.00     0.035 H 
ATOM     19  H9  <0> d           1.178   5.176   0.630  0.00  0.00     0.035 H 
ATOM     20  H10 <0> d           2.573   4.070   0.619  0.00  0.00     0.035 H 
ENDBRANCH   4  17
BRANCH   3  21
ATOM     21  C9  <0> d           2.470   1.399   0.024  0.00  0.00    -0.015 C 
ATOM     22  H11 <0> d           2.828   1.311  -1.002  0.00  0.00     0.057 H 
ATOM     23  H12 <0> d           3.097   2.106   0.568  0.00  0.00     0.057 H 
ATOM     24  H13 <0> d           2.515   0.425   0.510  0.00  0.00     0.057 H 
ENDBRANCH   3  21
TORSDOF 5
