REMARK  6 active torsions:
REMARK  status: ('A' for Active; 'I' for Inactive)
REMARK    1  A    between atoms: C1_1  and  C2_2 
REMARK    2  A    between atoms: C2_2  and  C3_3 
REMARK    3  A    between atoms: C2_2  and  N1_4 
REMARK    4  A    between atoms: N1_4  and  S1_5 
REMARK    5  A    between atoms: S1_5  and  N2_8 
REMARK    6  A    between atoms: N2_8  and  C4_9 
ROOT
ATOM      1  N1  <0> d          -1.372  -0.511   0.012  0.00  0.00    -0.299 N 
ATOM      2  H8  <0> d          -2.061  -0.036   0.503  0.00  0.00     0.174 HD
ENDROOT
BRANCH   1   3
ATOM      3  C2  <0> d           0.002  -0.004   0.002  0.00  0.00     0.014 C 
ATOM      4  H4  <0> d           0.512  -0.356  -0.895  0.00  0.00     0.072 H 
BRANCH   3   5
ATOM      5  C1  <0> d          -0.019   1.526   0.010  0.00  0.00    -0.057 C 
ATOM      6  H1  <0> d           1.004   1.903   0.003  0.00  0.00     0.030 H 
ATOM      7  H2  <0> d          -0.546   1.887  -0.873  0.00  0.00     0.030 H 
ATOM      8  H3  <0> d          -0.529   1.877   0.907  0.00  0.00     0.030 H 
ENDBRANCH   3   5
BRANCH   3   9
ATOM      9  C3  <0> d           0.742  -0.511   1.242  0.00  0.00    -0.057 C 
ATOM     10  H5  <0> d           0.232  -0.159   2.138  0.00  0.00     0.030 H 
ATOM     11  H6  <0> d           0.757  -1.601   1.236  0.00  0.00     0.030 H 
ATOM     12  H7  <0> d           1.765  -0.134   1.234  0.00  0.00     0.030 H 
ENDBRANCH   3   9
ENDBRANCH   1   3
BRANCH   1  13
ATOM     13  S1  <0> d          -1.750  -1.895  -0.814  0.00  0.00     0.314 S 
ATOM     14  O1  <0> d          -3.133  -2.137  -0.591  0.00  0.00    -0.183 OA
ATOM     15  O2  <0> d          -1.202  -1.753  -2.117  0.00  0.00    -0.183 OA
BRANCH  13  16
ATOM     16  N2  <0> d          -0.930  -3.138  -0.089  0.00  0.00    -0.307 N 
ATOM     17  H9  <0> d          -0.239  -3.613  -0.577  0.00  0.00     0.173 HD
BRANCH  16  18
ATOM     18  C4  <0> d          -1.248  -3.520   1.289  0.00  0.00    -0.010 C 
ATOM     19  H10 <0> d          -1.078  -2.671   1.950  0.00  0.00     0.057 H 
ATOM     20  H11 <0> d          -2.294  -3.824   1.350  0.00  0.00     0.057 H 
ATOM     21  H12 <0> d          -0.611  -4.351   1.592  0.00  0.00     0.057 H 
ENDBRANCH  16  18
ENDBRANCH  13  16
ENDBRANCH   1  13
TORSDOF 6
