REMARK  4 active torsions:
REMARK  status: ('A' for Active; 'I' for Inactive)
REMARK    1  A    between atoms: C1_1  and  C2_2 
REMARK    2  A    between atoms: C1_1  and  O3_7 
REMARK    3  A    between atoms: C2_2  and  O1_3 
REMARK    4  A    between atoms: O1_3  and  C3_4 
REMARK       I    between atoms: C3_4  and  N1_6 
ROOT
ATOM      1  C2  <0> d           1.145   3.085   0.008  0.00  0.00     0.050 C 
ATOM      2  H3  <0> d           2.130   3.542  -0.089  0.00  0.00     0.078 H 
ATOM      3  H4  <0> d           0.516   3.397  -0.827  0.00  0.00     0.078 H 
ENDROOT
BRANCH   1   4
ATOM      4  C1  <0> d           1.286   1.562  -0.002  0.00  0.00     0.037 C 
ATOM      5  H1  <0> d           1.840   1.243   0.881  0.00  0.00     0.077 H 
ATOM      6  H2  <0> d           1.823   1.252  -0.899  0.00  0.00     0.077 H 
BRANCH   4   7
ATOM      7  O3  <0> d          -0.011   0.963   0.007  0.00  0.00    -0.399 OA
ATOM      8  H7  <0> d           0.002  -0.004   0.002  0.00  0.00     0.209 HD
ENDBRANCH   4   7
ENDBRANCH   1   4
BRANCH   1   9
ATOM      9  O1  <0> d           0.536   3.507   1.256  0.00  0.00    -0.302 OA
BRANCH   9  10
ATOM     10  C3  <0> d           0.340   4.828   1.425  0.00  0.00     0.358 C 
ATOM     11  O2  <0> d           0.668   5.608   0.553  0.00  0.00    -0.239 OA
ATOM     12  N1  <0> d          -0.221   5.286   2.562  0.00  0.00    -0.346 N 
ATOM     13  H5  <0> d          -0.483   4.664   3.258  0.00  0.00     0.161 HD
ATOM     14  H6  <0> d          -0.362   6.238   2.684  0.00  0.00     0.161 HD
ENDBRANCH   9  10
ENDBRANCH   1   9
TORSDOF 4
