REMARK  0 active torsions:
REMARK  status: ('A' for Active; 'I' for Inactive)
ROOT
ATOM      1  C1  <0> d          -0.017   1.374   0.010  0.00  0.00    -0.081 A 
ATOM      2  C2  <0> d           1.170   2.094   0.002  0.00  0.00    -0.081 A 
ATOM      3  C3  <0> d           2.375   1.450  -0.013  0.00  0.00    -0.053 A 
ATOM      4  C4  <0> d           2.418   0.054  -0.021  0.00  0.00     0.084 A 
ATOM      5  C5  <0> d           1.217  -0.675  -0.013  0.00  0.00     0.062 A 
ATOM      6  C6  <0> d           0.002  -0.004   0.002  0.00  0.00    -0.055 A 
ATOM      7  N1  <0> d           1.580  -2.007  -0.024  0.00  0.00    -0.349 N 
ATOM      8  H1  <0> d           0.977  -2.767  -0.022  0.00  0.00     0.167 HD
ATOM      9  C7  <0> d           2.939  -2.056  -0.038  0.00  0.00     0.065 A 
ATOM     10  N2  <0> d           3.430  -0.852  -0.036  0.00  0.00    -0.242 NA
ATOM     11  H2  <0> d          -0.961   1.898   0.026  0.00  0.00     0.083 H 
ATOM     12  H3  <0> d           1.141   3.173   0.008  0.00  0.00     0.083 H 
ATOM     13  H4  <0> d           3.292   2.020  -0.020  0.00  0.00     0.087 H 
ATOM     14  H5  <0> d          -0.924  -0.559   0.008  0.00  0.00     0.087 H 
ATOM     15  H6  <0> d           3.526  -2.963  -0.048  0.00  0.00     0.143 H 
ENDROOT
TORSDOF 0
