REMARK  2 active torsions:
REMARK  status: ('A' for Active; 'I' for Inactive)
REMARK    1  A    between atoms: C2_2  and  C3_3 
REMARK    2  A    between atoms: C3_3  and  O2_7 
ROOT
ATOM      1  C3  <0> d           1.317  -0.740  -0.015  0.00  0.00     0.117 C 
ATOM      2  C4  <0> d           1.313  -2.040   0.811  0.00  0.00     0.053 C 
ATOM      3  O1  <0> d           0.927  -2.686  -0.419  0.00  0.00    -0.384 OA
ATOM      4  C5  <0> d           1.504  -1.652  -1.242  0.00  0.00     0.053 C 
ATOM      5  H4  <0> d           2.297  -2.336   1.174  0.00  0.00     0.079 H 
ATOM      6  H5  <0> d           0.545  -2.070   1.583  0.00  0.00     0.079 H 
ATOM      7  H6  <0> d           0.888  -1.373  -2.096  0.00  0.00     0.079 H 
ATOM      8  H7  <0> d           2.547  -1.828  -1.505  0.00  0.00     0.079 H 
ENDROOT
BRANCH   1   9
ATOM      9  C2  <0> d           0.002  -0.004   0.002  0.00  0.00    -0.075 C 
ATOM     10  C1  <0> d          -0.016   1.306   0.009  0.00  0.00    -0.122 C 
ATOM     11  H1  <0> d           0.912   1.859   0.003  0.00  0.00     0.066 H 
ATOM     12  H2  <0> d          -0.958   1.833   0.017  0.00  0.00     0.066 H 
ATOM     13  H3  <0> d          -0.926  -0.557   0.008  0.00  0.00     0.080 H 
ENDBRANCH   1   9
BRANCH   1  14
ATOM     14  O2  <0> d           2.436   0.110   0.249  0.00  0.00    -0.381 OA
ATOM     15  H8  <0> d           2.334   0.660   1.038  0.00  0.00     0.211 HD
ENDBRANCH   1  14
TORSDOF 2
