REMARK  4 active torsions:
REMARK  status: ('A' for Active; 'I' for Inactive)
REMARK    1  A    between atoms: C1_1  and  C2_2 
REMARK    2  A    between atoms: C2_2  and  C3_3 
REMARK    3  A    between atoms: C4_5  and  C7_11 
REMARK    4  A    between atoms: C5_6  and  O3_10 
ROOT
ATOM      1  C3  <0> d          -0.018   1.506   0.010  0.00  0.00     0.072 A 
ATOM      2  H1  <0> d          -0.511   1.907   0.908  0.00  0.00     0.091 H 
ATOM      3  C4  <0> d           0.002  -0.004   0.002  0.00  0.00    -0.015 A 
ATOM      4  C5  <0> d           1.283  -0.375  -0.012  0.00  0.00     0.146 A 
ATOM      5  C6  <0> d           2.137   0.821  -0.014  0.00  0.00     0.317 A 
ATOM      6  O1  <0> d           3.353   0.811  -0.025  0.00  0.00    -0.257 OA
ATOM      7  O2  <0> d           1.374   1.929  -0.001  0.00  0.00    -0.306 OA
ENDROOT
BRANCH   1   8
ATOM      8  C2  <0> d          -0.737   2.030  -1.235  0.00  0.00    -0.040 C 
ATOM      9  H5  <0> d          -1.741   1.584  -1.293  0.00  0.00     0.036 H 
ATOM     10  H6  <0> d          -0.163   1.757  -2.132  0.00  0.00     0.036 H 
BRANCH   8  11
ATOM     11  C1  <0> d          -0.860   3.553  -1.150  0.00  0.00    -0.074 C 
ATOM     12  H2  <0> d          -1.377   3.929  -2.045  0.00  0.00     0.027 H 
ATOM     13  H3  <0> d           0.144   3.999  -1.092  0.00  0.00     0.027 H 
ATOM     14  H4  <0> d          -1.435   3.825  -0.253  0.00  0.00     0.027 H 
ENDBRANCH   8  11
ENDBRANCH   1   8
BRANCH   3  15
ATOM     15  C7  <0> d          -1.196  -0.918   0.009  0.00  0.00    -0.049 C 
ATOM     16  H8  <0> d          -0.859  -1.965   0.000  0.00  0.00     0.033 H 
ATOM     17  H9  <0> d          -1.811  -0.723  -0.882  0.00  0.00     0.033 H 
ATOM     18  H10 <0> d          -1.793  -0.732   0.914  0.00  0.00     0.033 H 
ENDBRANCH   3  15
BRANCH   4  19
ATOM     19  O3  <0> d           1.730  -1.659  -0.023  0.00  0.00    -0.355 OA
ATOM     20  H7  <0> d           2.810  -1.866  -0.034  0.00  0.00     0.218 HD
ENDBRANCH   4  19
TORSDOF 4
