REMARK  2 active torsions:
REMARK  status: ('A' for Active; 'I' for Inactive)
REMARK    1  A    between atoms: C1_1  and  C2_2 
REMARK    2  A    between atoms: C2_2  and  C3_3 
ROOT
ATOM      1  C3  <0> d           0.707  -0.490  -1.238  0.00  0.00    -0.025 A 
ATOM      2  C4  <0> d           2.030  -0.804  -1.200  0.00  0.00    -0.011 A 
ATOM      3  N1  <0> d           2.641  -1.240  -2.333  0.00  0.00    -0.317 N 
ATOM      4  H1  <0> d           3.584  -1.467  -2.319  0.00  0.00     0.170 HD
ATOM      5  C5  <0> d           1.939  -1.357  -3.476  0.00  0.00     0.345 A 
ATOM      6  O1  <0> d           2.498  -1.749  -4.487  0.00  0.00    -0.245 OA
ATOM      7  N2  <0> d           0.640  -1.051  -3.519  0.00  0.00    -0.206 NA
ATOM      8  C6  <0> d           0.010  -0.630  -2.441  0.00  0.00     0.015 A 
ATOM      9  H7  <0> d           2.589  -0.708  -0.281  0.00  0.00     0.112 H 
ATOM     10  H8  <0> d          -1.042  -0.390  -2.488  0.00  0.00     0.115 H 
ENDROOT
BRANCH   1  11
ATOM     11  C2  <0> d           0.002  -0.004   0.002  0.00  0.00    -0.042 C 
ATOM     12  H5  <0> d           0.529  -0.365   0.885  0.00  0.00     0.039 H 
ATOM     13  H6  <0> d          -1.020  -0.381   0.010  0.00  0.00     0.039 H 
BRANCH  11  14
ATOM     14  C1  <0> d          -0.019   1.526   0.010  0.00  0.00    -0.073 C 
ATOM     15  H2  <0> d           1.004   1.903   0.003  0.00  0.00     0.028 H 
ATOM     16  H3  <0> d          -0.546   1.887  -0.873  0.00  0.00     0.028 H 
ATOM     17  H4  <0> d          -0.529   1.877   0.907  0.00  0.00     0.028 H 
ENDBRANCH  11  14
ENDBRANCH   1  11
TORSDOF 2
