REMARK  2 active torsions:
REMARK  status: ('A' for Active; 'I' for Inactive)
REMARK    1  A    between atoms: C3_3  and  C7_10 
REMARK    2  A    between atoms: C7_10  and  O2_11 
ROOT
ATOM      1  C1  <0> d          -0.251   5.026   0.032  0.00  0.00    -0.080 A 
ATOM      2  C2  <0> d          -0.082   3.635   0.022  0.00  0.00    -0.072 A 
ATOM      3  C3  <0> d           1.147   3.062   0.008  0.00  0.00    -0.001 A 
ATOM      4  C4  <0> d           2.292   3.882   0.007  0.00  0.00     0.125 A 
ATOM      5  C5  <0> d           2.113   5.356   0.012  0.00  0.00     0.118 A 
ATOM      6  C6  <0> d           0.804   5.877   0.026  0.00  0.00    -0.051 A 
ATOM      7  N1  <0> d           3.346   5.798   0.002  0.00  0.00    -0.103 NA
ATOM      8  O1  <0> d           4.107   4.851  -0.010  0.00  0.00    -0.106 OA
ATOM      9  N2  <0> d           3.595   3.749  -0.011  0.00  0.00    -0.102 NA
ATOM     10  H1  <0> d          -1.252   5.432   0.043  0.00  0.00     0.083 H 
ATOM     11  H2  <0> d          -0.956   3.001   0.027  0.00  0.00     0.084 H 
ATOM     12  H3  <0> d           0.643   6.945   0.033  0.00  0.00     0.087 H 
ENDROOT
BRANCH   3  13
ATOM     13  C7  <0> d           1.286   1.562  -0.002  0.00  0.00     0.043 C 
ATOM     14  H4  <0> d           1.840   1.243   0.881  0.00  0.00     0.081 H 
ATOM     15  H5  <0> d           1.823   1.252  -0.899  0.00  0.00     0.081 H 
BRANCH  13  16
ATOM     16  O2  <0> d          -0.011   0.963   0.007  0.00  0.00    -0.396 OA
ATOM     17  H6  <0> d           0.002  -0.004   0.002  0.00  0.00     0.209 HD
ENDBRANCH  13  16
ENDBRANCH   3  13
TORSDOF 2
