REMARK  2 active torsions:
REMARK  status: ('A' for Active; 'I' for Inactive)
REMARK    1  A    between atoms: C1_1  and  C2_2 
REMARK    2  A    between atoms: C5_8  and  C6_11 
ROOT
ATOM      1  C2  <0> d          -0.718   1.572   1.248  0.00  0.00     0.127 A 
ATOM      2  N1  <0> d          -0.162   1.829   2.394  0.00  0.00    -0.134 NA
ATOM      3  N2  <0> d          -1.049   2.224   3.236  0.00  0.00    -0.123 NA
ATOM      4  C3  <0> d          -2.219   2.236   2.657  0.00  0.00     0.192 A 
ATOM      5  N3  <0> d          -2.074   1.830   1.367  0.00  0.00    -0.310 N 
ATOM      6  C4  <0> d          -3.256   1.769   0.514  0.00  0.00     0.015 A 
ATOM      7  C5  <0> d          -4.559   2.192   1.214  0.00  0.00     0.011 A 
ATOM      8  H1  <0> d          -4.994   3.070   0.736  0.00  0.00     0.059 H 
ATOM      9  S1  <0> d          -3.944   2.583   2.895  0.00  0.00    -0.084 SA
ATOM     10  H5  <0> d          -3.097   2.420  -0.346  0.00  0.00     0.066 H 
ATOM     11  H6  <0> d          -3.372   0.747   0.154  0.00  0.00     0.066 H 
ENDROOT
BRANCH   7  12
ATOM     12  C6  <0> d          -5.561   1.037   1.256  0.00  0.00    -0.062 C 
ATOM     13  H7  <0> d          -5.128   0.200   1.802  0.00  0.00     0.029 H 
ATOM     14  H8  <0> d          -6.473   1.365   1.756  0.00  0.00     0.029 H 
ATOM     15  H9  <0> d          -5.798   0.725   0.238  0.00  0.00     0.029 H 
ENDBRANCH   7  12
BRANCH   1  16
ATOM     16  C1  <0> d          -0.013   1.086   0.008  0.00  0.00    -0.019 C 
ATOM     17  H2  <0> d           0.002  -0.004   0.002  0.00  0.00     0.037 H 
ATOM     18  H3  <0> d           1.010   1.463   0.000  0.00  0.00     0.037 H 
ATOM     19  H4  <0> d          -0.540   1.447  -0.875  0.00  0.00     0.037 H 
ENDBRANCH   1  16
TORSDOF 2
