REMARK  0 active torsions:
REMARK  status: ('A' for Active; 'I' for Inactive)
ROOT
ATOM      1  C1  <0> d          -1.324   3.769  -2.309  0.00  0.00    -0.069 A 
ATOM      2  C2  <0> d          -1.560   5.108  -2.272  0.00  0.00    -0.009 A 
ATOM      3  C3  <0> d          -1.478   5.774  -1.035  0.00  0.00     0.287 A 
ATOM      4  O1  <0> d          -1.689   6.973  -0.970  0.00  0.00    -0.260 OA
ATOM      5  O2  <0> d          -1.167   5.086   0.071  0.00  0.00    -0.279 OA
ATOM      6  C4  <0> d          -0.925   3.759   0.041  0.00  0.00     0.063 A 
ATOM      7  C5  <0> d          -1.003   3.081  -1.118  0.00  0.00    -0.028 A 
ATOM      8  C6  <0> d          -0.763   1.598  -1.219  0.00  0.00    -0.039 C 
ATOM      9  C7  <0> d          -0.013   1.086   0.008  0.00  0.00    -0.061 C 
ATOM     10  C8  <0> d          -0.743   1.587   1.260  0.00  0.00    -0.059 C 
ATOM     11  C9  <0> d          -0.560   3.100   1.347  0.00  0.00    -0.020 C 
ATOM     12  H1  <0> d          -1.381   3.234  -3.246  0.00  0.00     0.084 H 
ATOM     13  H2  <0> d          -1.806   5.650  -3.173  0.00  0.00     0.092 H 
ATOM     14  H3  <0> d          -0.175   1.390  -2.113  0.00  0.00     0.040 H 
ATOM     15  H4  <0> d          -1.722   1.083  -1.294  0.00  0.00     0.040 H 
ATOM     16  H5  <0> d           0.002  -0.004   0.002  0.00  0.00     0.033 H 
ATOM     17  H6  <0> d           1.008   1.468   0.000  0.00  0.00     0.033 H 
ATOM     18  H7  <0> d          -1.804   1.349   1.187  0.00  0.00     0.033 H 
ATOM     19  H8  <0> d          -0.320   1.113   2.146  0.00  0.00     0.033 H 
ATOM     20  H9  <0> d           0.480   3.322   1.583  0.00  0.00     0.043 H 
ATOM     21  H10 <0> d          -1.199   3.493   2.138  0.00  0.00     0.043 H 
ENDROOT
TORSDOF 0
