REMARK  4 active torsions:
REMARK  status: ('A' for Active; 'I' for Inactive)
REMARK    1  A    between atoms: C2_2  and  C3_3 
REMARK    2  A    between atoms: C3_3  and  C4_4 
REMARK    3  A    between atoms: C4_4  and  C5_6 
REMARK    4  A    between atoms: C4_4  and  O1_12 
ROOT
ATOM      1  C1  <0> d           1.158   6.732   1.487  0.00  0.00    -0.154 C 
ATOM      2  C2  <0> d           1.269   5.564   1.462  0.00  0.00    -0.115 C 
ATOM      3  H2  <0> d           1.060   7.777   1.510  0.00  0.00     0.166 H 
ENDROOT
BRANCH   2   4
ATOM      4  C3  <0> d           1.407   4.098   1.431  0.00  0.00     0.018 C 
ATOM      5  H3  <0> d           0.684   3.651   2.112  0.00  0.00     0.056 H 
ATOM      6  H4  <0> d           2.416   3.822   1.738  0.00  0.00     0.056 H 
BRANCH   4   7
ATOM      7  C4  <0> d           1.151   3.592   0.010  0.00  0.00     0.070 C 
ATOM      8  H1  <0> d           0.177   3.944  -0.331  0.00  0.00     0.091 H 
BRANCH   7   9
ATOM      9  C5  <0> d           1.171   2.086   0.002  0.00  0.00    -0.029 A 
ATOM     10  C10 <0> d           2.377   1.411  -0.014  0.00  0.00    -0.074 A 
ATOM     11  C9  <0> d           2.396   0.029  -0.021  0.00  0.00    -0.082 A 
ATOM     12  H9  <0> d           3.305   1.963  -0.019  0.00  0.00     0.084 H 
ATOM     13  C8  <0> d           1.208  -0.679  -0.014  0.00  0.00    -0.083 A 
ATOM     14  H8  <0> d           3.339  -0.499  -0.033  0.00  0.00     0.083 H 
ATOM     15  C7  <0> d           0.002  -0.004   0.002  0.00  0.00    -0.082 A 
ATOM     16  H7  <0> d           1.223  -1.759  -0.020  0.00  0.00     0.083 H 
ATOM     17  C6  <0> d          -0.017   1.378   0.010  0.00  0.00    -0.074 A 
ATOM     18  H6  <0> d          -0.926  -0.557   0.008  0.00  0.00     0.083 H 
ATOM     19  H5  <0> d          -0.959   1.905   0.017  0.00  0.00     0.084 H 
ENDBRANCH   7   9
BRANCH   7  20
ATOM     20  O1  <0> d           2.168   4.087  -0.863  0.00  0.00    -0.390 OA
ATOM     21  H10 <0> d           3.063   3.813  -0.620  0.00  0.00     0.210 HD
ENDBRANCH   7  20
ENDBRANCH   4   7
ENDBRANCH   2   4
TORSDOF 4
