REMARK  3 active torsions:
REMARK  status: ('A' for Active; 'I' for Inactive)
REMARK    1  A    between atoms: C1_1  and  O1_2 
REMARK    2  A    between atoms: O1_2  and  C2_3 
REMARK    3  A    between atoms: C2_3  and  C3_4 
ROOT
ATOM      1  C3  <0> d           2.334   1.401  -0.012  0.00  0.00     0.049 A 
ATOM      2  C4  <0> d           1.152   2.054   0.002  0.00  0.00    -0.005 A 
ATOM      3  N1  <0> d          -0.016   1.341   0.009  0.00  0.00    -0.318 N 
ATOM      4  H1  <0> d          -0.891   1.825   0.020  0.00  0.00     0.170 HD
ATOM      5  C5  <0> d           0.002  -0.004   0.002  0.00  0.00     0.326 A 
ATOM      6  O2  <0> d          -1.048  -0.618   0.009  0.00  0.00    -0.247 OA
ATOM      7  N2  <0> d           1.166  -0.680  -0.013  0.00  0.00    -0.275 N 
ATOM      8  H2  <0> d           1.161  -1.680  -0.019  0.00  0.00     0.173 HD
ATOM      9  C6  <0> d           2.338  -0.014  -0.020  0.00  0.00     0.259 A 
ATOM     10  O3  <0> d           3.392  -0.625  -0.033  0.00  0.00    -0.267 OA
ATOM     11  H8  <0> d           1.128   3.134   0.008  0.00  0.00     0.112 H 
ENDROOT
BRANCH   1  12
ATOM     12  C2  <0> d           3.630   2.169  -0.019  0.00  0.00     0.049 C 
ATOM     13  H6  <0> d           4.213   1.907   0.864  0.00  0.00     0.082 H 
ATOM     14  H7  <0> d           4.197   1.917  -0.916  0.00  0.00     0.082 H 
BRANCH  12  15
ATOM     15  O1  <0> d           3.353   3.571  -0.009  0.00  0.00    -0.391 OA
BRANCH  15  16
ATOM     16  C1  <0> d           4.521   4.394  -0.015  0.00  0.00     0.004 C 
ATOM     17  H3  <0> d           4.227   5.444  -0.006  0.00  0.00     0.066 H 
ATOM     18  H4  <0> d           5.122   4.179   0.869  0.00  0.00     0.066 H 
ATOM     19  H5  <0> d           5.106   4.189  -0.911  0.00  0.00     0.066 H 
ENDBRANCH  15  16
ENDBRANCH  12  15
ENDBRANCH   1  12
TORSDOF 3
