REMARK  2 active torsions:
REMARK  status: ('A' for Active; 'I' for Inactive)
REMARK    1  A    between atoms: C8_10  and  C9_12 
REMARK    2  A    between atoms: C9_12  and  O1_13 
ROOT
ATOM      1  C1  <0> d           1.436   2.007  -0.001  0.00  0.00    -0.058 C 
ATOM      2  C2  <0> d           2.167   1.408  -1.206  0.00  0.00    -0.058 C 
ATOM      3  C3  <0> d           1.201   0.519  -2.000  0.00  0.00    -0.033 C 
ATOM      4  H1  <0> d           1.715   0.042  -2.835  0.00  0.00     0.046 H 
ATOM      5  C4  <0> d           0.638  -0.525  -1.046  0.00  0.00    -0.102 C 
ATOM      6  C5  <0> d           0.002  -0.004   0.002  0.00  0.00    -0.102 C 
ATOM      7  C6  <0> d          -0.019   1.518   0.010  0.00  0.00    -0.038 C 
ATOM      8  H2  <0> d          -0.544   1.891   0.889  0.00  0.00     0.046 H 
ATOM      9  C7  <0> d          -0.698   1.985  -1.284  0.00  0.00    -0.053 C 
ATOM     10  C8  <0> d           0.033   1.386  -2.489  0.00  0.00    -0.026 C 
ATOM     11  H3  <0> d           0.416   2.190  -3.118  0.00  0.00     0.044 H 
ATOM     12  H4  <0> d           1.453   3.094  -0.069  0.00  0.00     0.034 H 
ATOM     13  H5  <0> d           1.932   1.692   0.917  0.00  0.00     0.034 H 
ATOM     14  H6  <0> d           3.009   0.810  -0.859  0.00  0.00     0.034 H 
ATOM     15  H7  <0> d           2.530   2.212  -1.846  0.00  0.00     0.034 H 
ATOM     16  H8  <0> d           0.744  -1.588  -1.205  0.00  0.00     0.077 H 
ATOM     17  H9  <0> d          -0.456  -0.605   0.773  0.00  0.00     0.076 H 
ATOM     18  H10 <0> d          -1.736   1.655  -1.289  0.00  0.00     0.034 H 
ATOM     19  H11 <0> d          -0.662   3.073  -1.341  0.00  0.00     0.034 H 
ENDROOT
BRANCH  10  20
ATOM     20  C9  <0> d          -0.938   0.525  -3.298  0.00  0.00     0.021 C 
ATOM     21  H12 <0> d          -0.399   0.028  -4.104  0.00  0.00     0.074 H 
ATOM     22  H13 <0> d          -1.388  -0.225  -2.647  0.00  0.00     0.074 H 
BRANCH  20  23
ATOM     23  O1  <0> d          -1.963   1.353  -3.850  0.00  0.00    -0.400 OA
ATOM     24  H14 <0> d          -2.616   0.873  -4.377  0.00  0.00     0.209 HD
ENDBRANCH  20  23
ENDBRANCH  10  20
TORSDOF 2
