REMARK  4 active torsions:
REMARK  status: ('A' for Active; 'I' for Inactive)
REMARK    1  A    between atoms: C1_1  and  O1_2 
REMARK    2  A    between atoms: O1_2  and  C2_3 
REMARK    3  A    between atoms: C4_5  and  C8_10 
REMARK    4  A    between atoms: C7_8  and  O2_9 
ROOT
ATOM      1  C2  <0> d          -3.707   1.764   0.029  0.00  0.00     0.102 A 
ATOM      2  C3  <0> d          -2.502   1.085   0.020  0.00  0.00    -0.038 A 
ATOM      3  C4  <0> d          -1.302   1.797   0.018  0.00  0.00    -0.034 A 
ATOM      4  C5  <0> d          -1.323   3.193   0.031  0.00  0.00    -0.070 A 
ATOM      5  C6  <0> d          -2.527   3.865   0.035  0.00  0.00    -0.047 A 
ATOM      6  C7  <0> d          -3.720   3.157   0.037  0.00  0.00     0.099 A 
ATOM      7  H4  <0> d          -2.490   0.005   0.014  0.00  0.00     0.089 H 
ATOM      8  H5  <0> d          -0.396   3.746   0.035  0.00  0.00     0.084 H 
ATOM      9  H6  <0> d          -2.542   4.945   0.040  0.00  0.00     0.087 H 
ENDROOT
BRANCH   1  10
ATOM     10  O1  <0> d          -4.878   1.073   0.030  0.00  0.00    -0.353 OA
BRANCH  10  11
ATOM     11  C1  <0> d          -4.789  -0.354   0.022  0.00  0.00     0.010 C 
ATOM     12  H1  <0> d          -4.257  -0.679  -0.872  0.00  0.00     0.066 H 
ATOM     13  H2  <0> d          -4.249  -0.690   0.908  0.00  0.00     0.066 H 
ATOM     14  H3  <0> d          -5.792  -0.780   0.024  0.00  0.00     0.066 H 
ENDBRANCH  10  11
ENDBRANCH   1  10
BRANCH   6  15
ATOM     15  O2  <0> d          -4.905   3.824   0.046  0.00  0.00    -0.358 OA
ATOM     16  H7  <0> d          -5.243   4.012   0.932  0.00  0.00     0.217 HD
ENDBRANCH   6  15
BRANCH   3  17
ATOM     17  C8  <0> d          -0.013   1.076   0.008  0.00  0.00    -0.082 C 
ATOM     18  C9  <0> d           1.127   1.754   0.001  0.00  0.00    -0.120 C 
ATOM     19  H9  <0> d           2.069   1.227  -0.011  0.00  0.00     0.066 H 
ATOM     20  H10 <0> d           1.112   2.834   0.007  0.00  0.00     0.066 H 
ATOM     21  H8  <0> d           0.002  -0.004   0.002  0.00  0.00     0.083 H 
ENDBRANCH   3  17
TORSDOF 4
