REMARK  6 active torsions:
REMARK  status: ('A' for Active; 'I' for Inactive)
REMARK    1  A    between atoms: C1_1  and  C2_2 
REMARK    2  A    between atoms: C3_3  and  N3_11 
REMARK    3  A    between atoms: N1_5  and  C5_7 
REMARK    4  A    between atoms: C5_7  and  C6_8 
REMARK    5  A    between atoms: C6_8  and  C7_9 
REMARK    6  A    between atoms: C6_8  and  C8_10 
ROOT
ATOM      1  C2  <0> d           0.002  -0.004   0.002  0.00  0.00     0.078 A 
ATOM      2  C3  <0> d          -0.017   1.398   0.010  0.00  0.00     0.069 A 
ATOM      3  C4  <0> d           1.269   1.832  -0.000  0.00  0.00     0.026 A 
ATOM      4  N1  <0> d           2.072   0.735  -0.014  0.00  0.00    -0.278 N 
ATOM      5  N2  <0> d           1.250  -0.399  -0.012  0.00  0.00    -0.176 NA
ATOM      6  H4  <0> d           1.595   2.861   0.002  0.00  0.00     0.117 H 
ENDROOT
BRANCH   4   7
ATOM      7  C5  <0> d           3.537   0.738  -0.027  0.00  0.00     0.019 C 
ATOM      8  H5  <0> d           3.896   0.305  -0.973  0.00  0.00     0.067 H 
ATOM      9  H6  <0> d           3.902   1.771   0.065  0.00  0.00     0.067 H 
BRANCH   7  10
ATOM     10  C6  <0> d           4.059  -0.094   1.146  0.00  0.00    -0.044 C 
ATOM     11  H7  <0> d           3.629   0.284   2.084  0.00  0.00     0.041 H 
BRANCH  10  12
ATOM     12  C7  <0> d           3.656  -1.557   0.953  0.00  0.00    -0.072 C 
ATOM     13  H8  <0> d           4.032  -2.155   1.796  0.00  0.00     0.028 H 
ATOM     14  H9  <0> d           4.087  -1.936   0.014  0.00  0.00     0.028 H 
ATOM     15  H10 <0> d           2.559  -1.633   0.910  0.00  0.00     0.028 H 
ENDBRANCH  10  12
BRANCH  10  16
ATOM     16  C8  <0> d           5.585   0.011   1.206  0.00  0.00    -0.072 C 
ATOM     17  H11 <0> d           5.960  -0.587   2.049  0.00  0.00     0.028 H 
ATOM     18  H12 <0> d           5.875   1.063   1.344  0.00  0.00     0.028 H 
ATOM     19  H13 <0> d           6.015  -0.367   0.267  0.00  0.00     0.028 H 
ENDBRANCH  10  16
ENDBRANCH   7  10
ENDBRANCH   4   7
BRANCH   2  20
ATOM     20  N3  <0> d          -1.166   2.211   0.020  0.00  0.00    -0.396 N 
ATOM     21  H14 <0> d          -1.065   3.307   0.025  0.00  0.00     0.156 HD
ATOM     22  H15 <0> d          -2.166   1.752   0.022  0.00  0.00     0.156 HD
ENDBRANCH   2  20
BRANCH   1  23
ATOM     23  C1  <0> d          -1.208  -0.902   0.008  0.00  0.00    -0.032 C 
ATOM     24  H1  <0> d          -2.120  -0.288   0.020  0.00  0.00     0.035 H 
ATOM     25  H2  <0> d          -1.185  -1.543   0.902  0.00  0.00     0.035 H 
ATOM     26  H3  <0> d          -1.202  -1.532  -0.894  0.00  0.00     0.035 H 
ENDBRANCH   1  23
TORSDOF 6
