REMARK  2 active torsions:
REMARK  status: ('A' for Active; 'I' for Inactive)
REMARK    1  A    between atoms: C1_1  and  C2_2 
REMARK    2  A    between atoms: C2_2  and  C4_6 
ROOT
ATOM      1  C2  <0> d           1.402   3.539   0.007  0.00  0.00     0.058 C 
ATOM      2  H1  <0> d           0.440   4.071   0.054  0.00  0.00     0.070 H 
ATOM      3  C3  <0> d           2.177   3.906   1.204  0.00  0.00     0.069 C 
ATOM      4  N1  <0> d           2.775   4.189   2.127  0.00  0.00    -0.197 NA
ENDROOT
BRANCH   1   5
ATOM      5  C1  <0> d           2.184   3.933  -1.247  0.00  0.00    -0.057 C 
ATOM      6  H2  <0> d           1.605   3.659  -2.142  0.00  0.00     0.029 H 
ATOM      7  H3  <0> d           3.148   3.404  -1.259  0.00  0.00     0.029 H 
ATOM      8  H4  <0> d           2.361   5.018  -1.244  0.00  0.00     0.029 H 
ENDBRANCH   1   5
BRANCH   1   9
ATOM      9  C4  <0> d           1.160   2.051   0.002  0.00  0.00    -0.000 A 
ATOM     10  S1  <0> d           2.348   0.719  -0.017  0.00  0.00    -0.105 SA
ATOM     11  C7  <0> d           1.196  -0.645  -0.013  0.00  0.00    -0.044 A 
ATOM     12  C6  <0> d           0.002  -0.004   0.002  0.00  0.00    -0.076 A 
ATOM     13  H7  <0> d           1.399  -1.706  -0.020  0.00  0.00     0.095 H 
ATOM     14  C5  <0> d          -0.017   1.378   0.010  0.00  0.00    -0.069 A 
ATOM     15  H6  <0> d          -0.921  -0.565   0.008  0.00  0.00     0.084 H 
ATOM     16  H5  <0> d          -0.955   1.913   0.017  0.00  0.00     0.085 H 
ENDBRANCH   1   9
TORSDOF 2
