REMARK  3 active torsions:
REMARK  status: ('A' for Active; 'I' for Inactive)
REMARK    1  A    between atoms: C1_1  and  C2_2 
REMARK    2  A    between atoms: C2_2  and  N1_3 
REMARK    3  A    between atoms: C5_6  and  N3_8 
ROOT
ATOM      1  N1  <0> d          -1.372  -0.511   0.012  0.00  0.00    -0.278 N 
ATOM      2  C3  <0> d          -1.908  -1.369  -0.883  0.00  0.00     0.023 A 
ATOM      3  C4  <0> d          -3.195  -1.589  -0.527  0.00  0.00     0.098 A 
ATOM      4  C5  <0> d          -3.456  -0.837   0.631  0.00  0.00     0.164 A 
ATOM      5  N2  <0> d          -2.359  -0.196   0.956  0.00  0.00    -0.153 NA
ATOM      6 Cl1  <0> d          -4.322  -2.619  -1.353  0.00  0.00    -0.079 Cl
ATOM      7  H6  <0> d          -1.400  -1.802  -1.731  0.00  0.00     0.117 H 
ENDROOT
BRANCH   1   8
ATOM      8  C2  <0> d           0.002  -0.004   0.002  0.00  0.00     0.013 C 
ATOM      9  H4  <0> d           0.512  -0.356  -0.895  0.00  0.00     0.066 H 
ATOM     10  H5  <0> d           0.529  -0.365   0.885  0.00  0.00     0.066 H 
BRANCH   8  11
ATOM     11  C1  <0> d          -0.019   1.526   0.010  0.00  0.00    -0.059 C 
ATOM     12  H1  <0> d           1.004   1.903   0.003  0.00  0.00     0.029 H 
ATOM     13  H2  <0> d          -0.546   1.887  -0.873  0.00  0.00     0.029 H 
ATOM     14  H3  <0> d          -0.529   1.877   0.907  0.00  0.00     0.029 H 
ENDBRANCH   8  11
ENDBRANCH   1   8
BRANCH   4  15
ATOM     15  N3  <0> d          -4.673  -0.787   1.321  0.00  0.00    -0.381 N 
ATOM     16  H7  <0> d          -5.432  -1.303   1.006  0.00  0.00     0.157 HD
ATOM     17  H8  <0> d          -4.758  -0.236   2.115  0.00  0.00     0.157 HD
ENDBRANCH   4  15
TORSDOF 3
