REMARK  1 active torsions:
REMARK  status: ('A' for Active; 'I' for Inactive)
REMARK    1  A    between atoms: C2_2  and  C3_3 
ROOT
ATOM      1  C1  <0> d           0.018  -1.178  -0.004  0.00  0.00    -0.149 C 
ATOM      2  C2  <0> d           0.002  -0.004   0.002  0.00  0.00    -0.076 C 
ATOM      3  H1  <0> d           0.032  -2.228  -0.010  0.00  0.00     0.166 H 
ENDROOT
BRANCH   2   4
ATOM      4  C3  <0> d          -0.017   1.428   0.010  0.00  0.00     0.040 A 
ATOM      5  C8  <0> d           1.190   2.153   0.002  0.00  0.00     0.101 A 
ATOM      6  C7  <0> d           1.154   3.551   0.003  0.00  0.00     0.138 A 
ATOM      7  C9  <0> d           2.446   1.464  -0.013  0.00  0.00     0.104 C 
ATOM      8  C6  <0> d          -0.061   4.209   0.025  0.00  0.00    -0.044 A 
ATOM      9  F1  <0> d           2.305   4.258  -0.011  0.00  0.00    -0.204 F 
ATOM     10  C5  <0> d          -1.246   3.493   0.038  0.00  0.00    -0.079 A 
ATOM     11  H4  <0> d          -0.087   5.288   0.030  0.00  0.00     0.088 H 
ATOM     12  C4  <0> d          -1.231   2.113   0.031  0.00  0.00    -0.063 A 
ATOM     13  H3  <0> d          -2.190   4.018   0.055  0.00  0.00     0.083 H 
ATOM     14  H2  <0> d          -2.161   1.563   0.041  0.00  0.00     0.085 H 
ATOM     15  N1  <0> d           3.442   0.918  -0.025  0.00  0.00    -0.191 NA
ENDBRANCH   2   4
TORSDOF 1
