REMARK  4 active torsions:
REMARK  status: ('A' for Active; 'I' for Inactive)
REMARK    1  A    between atoms: C1_1  and  C2_2 
REMARK    2  A    between atoms: C2_2  and  C3_3 
REMARK    3  A    between atoms: C4_4  and  N4_12 
REMARK    4  A    between atoms: C5_5  and  C6_9 
REMARK       I    between atoms: C6_9  and  N3_11 
ROOT
ATOM      1  C3  <0> d          -3.463   2.393   0.032  0.00  0.00     0.056 A 
ATOM      2  C4  <0> d          -2.594   1.347   0.022  0.00  0.00     0.086 A 
ATOM      3  C5  <0> d          -1.301   1.932   0.019  0.00  0.00     0.172 A 
ATOM      4  N1  <0> d          -1.468   3.241   0.032  0.00  0.00    -0.167 NA
ATOM      5  N2  <0> d          -2.719   3.530   0.034  0.00  0.00    -0.279 N 
ATOM      6  H1  <0> d          -3.215   4.512   0.037  0.00  0.00     0.189 HD
ENDROOT
BRANCH   1   7
ATOM      7  C2  <0> d          -4.968   2.307   0.037  0.00  0.00    -0.026 C 
ATOM      8  H5  <0> d          -5.288   1.441  -0.561  0.00  0.00     0.041 H 
ATOM      9  H6  <0> d          -5.389   3.227  -0.394  0.00  0.00     0.041 H 
BRANCH   7  10
ATOM     10  C1  <0> d          -5.464   2.144   1.476  0.00  0.00    -0.071 C 
ATOM     11  H2  <0> d          -6.562   2.081   1.480  0.00  0.00     0.028 H 
ATOM     12  H3  <0> d          -5.144   3.010   2.074  0.00  0.00     0.028 H 
ATOM     13  H4  <0> d          -5.042   1.224   1.907  0.00  0.00     0.028 H 
ENDBRANCH   7  10
ENDBRANCH   1   7
BRANCH   2  14
ATOM     14  N4  <0> d          -2.909  -0.019   0.016  0.00  0.00    -0.395 N 
ATOM     15  H9  <0> d          -2.104  -0.769   0.008  0.00  0.00     0.156 HD
ATOM     16  H10 <0> d          -3.961  -0.341   0.020  0.00  0.00     0.156 HD
ENDBRANCH   2  14
BRANCH   3  17
ATOM     17  C6  <0> d          -0.014   1.212   0.009  0.00  0.00     0.272 C 
ATOM     18  O1  <0> d           0.002  -0.004   0.002  0.00  0.00    -0.266 OA
ATOM     19  N3  <0> d           1.143   1.901   0.001  0.00  0.00    -0.365 N 
ATOM     20  H7  <0> d           2.103   1.365  -0.006  0.00  0.00     0.159 HD
ATOM     21  H8  <0> d           1.129   3.001   0.003  0.00  0.00     0.159 HD
ENDBRANCH   3  17
TORSDOF 4
