REMARK  3 active torsions:
REMARK  status: ('A' for Active; 'I' for Inactive)
REMARK    1  A    between atoms: C2_2  and  C6_9 
REMARK    2  A    between atoms: C4_5  and  N2_8 
REMARK    3  A    between atoms: C6_9  and  O1_10 
ROOT
ATOM      1  C1  <0> d          -0.017   1.380   0.010  0.00  0.00    -0.049 A 
ATOM      2  C2  <0> d           1.195   2.059   0.002  0.00  0.00    -0.015 A 
ATOM      3  C3  <0> d           2.373   1.340  -0.013  0.00  0.00     0.013 A 
ATOM      4  N1  <0> d           2.361   0.020  -0.020  0.00  0.00    -0.241 NA
ATOM      5  C4  <0> d           1.228  -0.664  -0.013  0.00  0.00     0.142 A 
ATOM      6  C5  <0> d           0.002  -0.004   0.002  0.00  0.00     0.080 A 
ATOM      7 Cl1  <0> d          -1.482  -0.904   0.012  0.00  0.00    -0.080 Cl
ATOM      8  H1  <0> d          -0.952   1.919   0.026  0.00  0.00     0.087 H 
ATOM      9  H2  <0> d           3.317   1.865  -0.020  0.00  0.00     0.115 H 
ENDROOT
BRANCH   2  10
ATOM     10  C6  <0> d           1.223   3.566   0.009  0.00  0.00     0.042 C 
ATOM     11  H5  <0> d           2.114   3.915  -0.511  0.00  0.00     0.081 H 
ATOM     12  H6  <0> d           0.335   3.948  -0.495  0.00  0.00     0.081 H 
BRANCH  10  13
ATOM     13  O1  <0> d           1.244   4.035   1.359  0.00  0.00    -0.396 OA
ATOM     14  H7  <0> d           1.263   4.998   1.440  0.00  0.00     0.209 HD
ENDBRANCH  10  13
ENDBRANCH   2  10
BRANCH   5  15
ATOM     15  N2  <0> d           1.262  -2.054  -0.021  0.00  0.00    -0.383 N 
ATOM     16  H3  <0> d           2.114  -2.518  -0.032  0.00  0.00     0.157 HD
ATOM     17  H4  <0> d           0.435  -2.560  -0.016  0.00  0.00     0.157 HD
ENDBRANCH   5  15
TORSDOF 3
