REMARK  1 active torsions:
REMARK  status: ('A' for Active; 'I' for Inactive)
REMARK    1  A    between atoms: C3_3  and  N3_7 
ROOT
ATOM      1  C1  <0> d          -0.016   1.322   0.009  0.00  0.00     0.044 A 
ATOM      2  C2  <0> d           1.182   2.012   0.002  0.00  0.00     0.179 A 
ATOM      3  C3  <0> d           2.371   1.276  -0.014  0.00  0.00     0.163 A 
ATOM      4  N1  <0> d           2.305  -0.052  -0.020  0.00  0.00    -0.222 NA
ATOM      5  C4  <0> d           1.140  -0.668  -0.012  0.00  0.00     0.088 A 
ATOM      6  N2  <0> d           0.002  -0.004   0.002  0.00  0.00    -0.251 NA
ATOM      7  F1  <0> d           1.204   3.363   0.008  0.00  0.00    -0.201 F 
ATOM      8  H1  <0> d          -0.955   1.856   0.026  0.00  0.00     0.119 H 
ATOM      9  H2  <0> d           1.118  -1.748  -0.018  0.00  0.00     0.146 H 
ENDROOT
BRANCH   3  10
ATOM     10  N3  <0> d           3.599   1.921  -0.022  0.00  0.00    -0.381 N 
ATOM     11  H3  <0> d           3.638   2.890  -0.018  0.00  0.00     0.157 HD
ATOM     12  H4  <0> d           4.419   1.403  -0.033  0.00  0.00     0.157 HD
ENDBRANCH   3  10
TORSDOF 1
