REMARK  6 active torsions:
REMARK  status: ('A' for Active; 'I' for Inactive)
REMARK    1  A    between atoms: C1_1  and  C2_2 
REMARK    2  A    between atoms: C2_2  and  C3_3 
REMARK    3  A    between atoms: C2_2  and  C4_4 
REMARK    4  A    between atoms: C4_4  and  C5_6 
REMARK    5  A    between atoms: C4_4  and  C7_9 
REMARK    6  A    between atoms: C5_6  and  C6_7 
ROOT
ATOM      1  C4  <0> d          -0.729   1.579   1.267  0.00  0.00     0.042 C 
ATOM      2  H1  <0> d          -1.776   1.277   1.232  0.00  0.00     0.058 H 
ENDROOT
BRANCH   1   3
ATOM      3  C2  <0> d          -0.064   0.971   2.503  0.00  0.00    -0.048 C 
ATOM      4  H5  <0> d           0.983   1.274   2.539  0.00  0.00     0.040 H 
BRANCH   3   5
ATOM      5  C1  <0> d          -0.780   1.465   3.762  0.00  0.00    -0.072 C 
ATOM      6  H2  <0> d          -1.827   1.162   3.727  0.00  0.00     0.028 H 
ATOM      7  H3  <0> d          -0.306   1.032   4.643  0.00  0.00     0.028 H 
ATOM      8  H4  <0> d          -0.717   2.552   3.813  0.00  0.00     0.028 H 
ENDBRANCH   3   5
BRANCH   3   9
ATOM      9  C3  <0> d          -0.152  -0.554   2.432  0.00  0.00    -0.072 C 
ATOM     10  H6  <0> d           0.322  -0.988   3.312  0.00  0.00     0.028 H 
ATOM     11  H7  <0> d          -1.198  -0.857   2.396  0.00  0.00     0.028 H 
ATOM     12  H8  <0> d           0.358  -0.906   1.535  0.00  0.00     0.028 H 
ENDBRANCH   3   9
ENDBRANCH   1   3
BRANCH   1  13
ATOM     13  C5  <0> d          -0.013   1.086   0.008  0.00  0.00     0.029 C 
ATOM     14  H9  <0> d           0.002  -0.004   0.002  0.00  0.00     0.050 H 
ATOM     15  H10 <0> d           1.010   1.463   0.000  0.00  0.00     0.050 H 
BRANCH  13  16
ATOM     16  C6  <0> d          -0.742   1.585  -1.213  0.00  0.00     0.173 C 
ATOM     17  O1  <0> d          -1.732   2.266  -1.089  0.00  0.00    -0.648 OA
ATOM     18  O3  <0> d          -0.290   1.274  -2.438  0.00  0.00    -0.648 OA
ENDBRANCH  13  16
ENDBRANCH   1  13
BRANCH   1  19
ATOM     19  C7  <0> d          -0.642   3.082   1.337  0.00  0.00     0.177 C 
ATOM     20  O2  <0> d          -0.067   3.696   0.470  0.00  0.00    -0.648 OA
ATOM     21  O4  <0> d          -1.204   3.739   2.364  0.00  0.00    -0.648 OA
ENDBRANCH   1  19
TORSDOF 6
