REMARK  0 active torsions:
REMARK  status: ('A' for Active; 'I' for Inactive)
ROOT
ATOM      1  C1  <0> d          -0.013   1.076   0.008  0.00  0.00    -0.065 A 
ATOM      2  C2  <0> d           1.173   1.794   0.001  0.00  0.00    -0.063 A 
ATOM      3  C3  <0> d           1.106   3.179   0.009  0.00  0.00     0.028 A 
ATOM      4  C4  <0> d          -0.133   3.794   0.024  0.00  0.00     0.018 A 
ATOM      5  N1  <0> d          -1.240   3.078   0.031  0.00  0.00    -0.272 NA
ATOM      6  C5  <0> d          -1.214   1.759   0.017  0.00  0.00     0.002 A 
ATOM      7 Br1  <0> d           2.688   4.215  -0.000  0.00  0.00    -0.050 Br
ATOM      8  H1  <0> d           0.002  -0.004   0.002  0.00  0.00     0.085 H 
ATOM      9  H2  <0> d           2.127   1.287  -0.012  0.00  0.00     0.085 H 
ATOM     10  H3  <0> d          -0.195   4.872   0.030  0.00  0.00     0.116 H 
ATOM     11  H4  <0> d          -2.142   1.207   0.018  0.00  0.00     0.114 H 
ENDROOT
TORSDOF 0
