REMARK  0 active torsions:
REMARK  status: ('A' for Active; 'I' for Inactive)
ROOT
ATOM      1  C1  <0> d          -0.018   1.465   0.010  0.00  0.00    -0.061 A 
ATOM      2  C2  <0> d           1.126   2.180   0.003  0.00  0.00    -0.053 A 
ATOM      3  C3  <0> d           2.408   1.477  -0.013  0.00  0.00     0.063 A 
ATOM      4  N1  <0> d           3.663   1.855  -0.023  0.00  0.00    -0.307 N 
ATOM      5  C4  <0> d           4.454   0.733  -0.036  0.00  0.00     0.325 A 
ATOM      6  O1  <0> d           5.667   0.735  -0.048  0.00  0.00    -0.247 OA
ATOM      7  N2  <0> d           3.667  -0.393  -0.035  0.00  0.00    -0.306 N 
ATOM      8  C5  <0> d           2.409  -0.019  -0.021  0.00  0.00     0.064 A 
ATOM      9  C6  <0> d           1.172  -0.705  -0.013  0.00  0.00    -0.035 A 
ATOM     10  C7  <0> d           0.002  -0.004   0.002  0.00  0.00     0.046 A 
ATOM     11  C8  <0> d          -1.239  -0.719   0.010  0.00  0.00     0.099 C 
ATOM     12  N3  <0> d          -2.223  -1.285   0.016  0.00  0.00    -0.191 NA
ATOM     13  H1  <0> d          -0.966   1.982   0.026  0.00  0.00     0.086 H 
ATOM     14  H2  <0> d           1.095   3.260   0.009  0.00  0.00     0.087 H 
ATOM     15  H3  <0> d           1.154  -1.785  -0.019  0.00  0.00     0.089 H 
ATOM     16  H4  <0> d           3.987  -1.308  -0.043  0.00  0.00     0.170 HD
ATOM     17  H5  <0> d           3.979   2.772  -0.021  0.00  0.00     0.170 HD
ENDROOT
TORSDOF 0
