REMARK  4 active torsions:
REMARK  status: ('A' for Active; 'I' for Inactive)
REMARK    1  A    between atoms: C1_1  and  N1_2 
REMARK    2  A    between atoms: N1_2  and  C2_3 
REMARK    3  A    between atoms: N1_2  and  C3_4 
REMARK    4  A    between atoms: C6_8  and  N4_10 
ROOT
ATOM      1  C3  <0> d          -1.184  -0.710   0.009  0.00  0.00     0.149 A 
ATOM      2  C4  <0> d          -1.229  -2.001  -0.499  0.00  0.00     0.028 A 
ATOM      3  C5  <0> d          -2.446  -2.689  -0.477  0.00  0.00     0.263 A 
ATOM      4  N2  <0> d          -3.533  -2.076   0.038  0.00  0.00    -0.154 N 
ATOM      5  C6  <0> d          -3.436  -0.809   0.524  0.00  0.00     0.702 A 
ATOM      6  N3  <0> d          -2.293  -0.156   0.512  0.00  0.00    -0.047 NA
ATOM      7  O1  <0> d          -2.525  -3.826  -0.916  0.00  0.00    -0.268 OA
ATOM      8  H7  <0> d          -0.342  -2.464  -0.904  0.00  0.00     0.098 H 
ATOM      9  H10 <0> d          -4.384  -2.539   0.061  0.00  0.00     0.187 HD
ENDROOT
BRANCH   1  10
ATOM     10  N1  <0> d           0.002  -0.004   0.002  0.00  0.00    -0.374 N 
BRANCH  10  11
ATOM     11  C1  <0> d          -0.018   1.461   0.010  0.00  0.00    -0.018 C 
ATOM     12  H1  <0> d           1.005   1.838   0.002  0.00  0.00     0.056 H 
ATOM     13  H2  <0> d          -0.545   1.822  -0.873  0.00  0.00     0.056 H 
ATOM     14  H3  <0> d          -0.528   1.812   0.907  0.00  0.00     0.056 H 
ENDBRANCH  10  11
BRANCH  10  15
ATOM     15  C2  <0> d           1.281  -0.719  -0.014  0.00  0.00    -0.018 C 
ATOM     16  H4  <0> d           1.607  -0.902   1.010  0.00  0.00     0.056 H 
ATOM     17  H5  <0> d           1.158  -1.671  -0.532  0.00  0.00     0.056 H 
ATOM     18  H6  <0> d           2.027  -0.117  -0.532  0.00  0.00     0.056 H 
ENDBRANCH  10  15
ENDBRANCH   1  10
BRANCH   5  19
ATOM     19  N4  <0> d          -4.549  -0.202   1.041  0.00  0.00    -0.233 N 
ATOM     20  H8  <0> d          -5.396  -0.676   1.059  0.00  0.00     0.174 HD
ATOM     21  H9  <0> d          -4.492   0.701   1.391  0.00  0.00     0.174 HD
ENDBRANCH   5  19
TORSDOF 4
