REMARK  6 active torsions:
REMARK  status: ('A' for Active; 'I' for Inactive)
REMARK    1  A    between atoms: C1_1  and  C2_2 
REMARK    2  A    between atoms: C4_6  and  C5_8 
REMARK    3  A    between atoms: C4_6  and  C6_9 
REMARK    4  A    between atoms: C6_9  and  C7_10 
REMARK    5  A    between atoms: C6_9  and  C8_11 
REMARK    6  A    between atoms: C6_9  and  C9_12 
ROOT
ATOM      1  C2  <0> d          -0.801   1.618  -1.205  0.00  0.00     0.059 C 
ATOM      2  H1  <0> d          -0.172   2.272  -1.809  0.00  0.00     0.086 H 
ATOM      3  C3  <0> d          -0.013   1.086   0.008  0.00  0.00     0.047 C 
ATOM      4  O1  <0> d          -0.729   1.571   1.163  0.00  0.00    -0.352 OA
ATOM      5  C4  <0> d          -1.447   2.731   0.682  0.00  0.00     0.167 C 
ATOM      6  O2  <0> d          -1.901   2.360  -0.637  0.00  0.00    -0.348 OA
ATOM      7  H5  <0> d           0.002  -0.004   0.002  0.00  0.00     0.078 H 
ATOM      8  H6  <0> d           1.004   1.478   0.000  0.00  0.00     0.078 H 
ENDROOT
BRANCH   5   9
ATOM      9  C5  <0> d          -0.516   3.942   0.606  0.00  0.00    -0.025 C 
ATOM     10  H7  <0> d          -1.053   4.787   0.176  0.00  0.00     0.035 H 
ATOM     11  H8  <0> d          -0.173   4.200   1.608  0.00  0.00     0.035 H 
ATOM     12  H9  <0> d           0.343   3.701  -0.021  0.00  0.00     0.035 H 
ENDBRANCH   5   9
BRANCH   5  13
ATOM     13  C6  <0> d          -2.640   3.033   1.591  0.00  0.00     0.005 C 
BRANCH  13  14
ATOM     14  C7  <0> d          -3.527   1.791   1.699  0.00  0.00    -0.065 C 
ATOM     15  H10 <0> d          -2.950   0.968   2.120  0.00  0.00     0.028 H 
ATOM     16  H11 <0> d          -4.377   2.007   2.347  0.00  0.00     0.028 H 
ATOM     17  H12 <0> d          -3.886   1.514   0.708  0.00  0.00     0.028 H 
ENDBRANCH  13  14
BRANCH  13  18
ATOM     18  C8  <0> d          -2.136   3.423   2.982  0.00  0.00    -0.065 C 
ATOM     19  H13 <0> d          -1.504   4.308   2.905  0.00  0.00     0.028 H 
ATOM     20  H14 <0> d          -2.986   3.639   3.630  0.00  0.00     0.028 H 
ATOM     21  H15 <0> d          -1.559   2.600   3.403  0.00  0.00     0.028 H 
ENDBRANCH  13  18
BRANCH  13  22
ATOM     22  C9  <0> d          -3.451   4.189   1.001  0.00  0.00    -0.065 C 
ATOM     23  H16 <0> d          -3.810   3.911   0.009  0.00  0.00     0.028 H 
ATOM     24  H17 <0> d          -4.301   4.404   1.648  0.00  0.00     0.028 H 
ATOM     25  H18 <0> d          -2.819   5.074   0.923  0.00  0.00     0.028 H 
ENDBRANCH  13  22
ENDBRANCH   5  13
BRANCH   1  26
ATOM     26  C1  <0> d          -1.325   0.455  -2.051  0.00  0.00    -0.050 C 
ATOM     27  H2  <0> d          -1.983  -0.168  -1.444  0.00  0.00     0.031 H 
ATOM     28  H3  <0> d          -1.880   0.847  -2.903  0.00  0.00     0.031 H 
ATOM     29  H4  <0> d          -0.486  -0.142  -2.407  0.00  0.00     0.031 H 
ENDBRANCH   1  26
TORSDOF 6
