REMARK  7 active torsions:
REMARK  status: ('A' for Active; 'I' for Inactive)
REMARK    1  A    between atoms: C1_1  and  C2_2 
REMARK    2  A    between atoms: C2_2  and  O1_3 
REMARK    3  A    between atoms: O1_3  and  C3_4 
REMARK    4  A    between atoms: C3_4  and  C4_6 
REMARK    5  A    between atoms: C4_6  and  C5_8 
REMARK    6  A    between atoms: C4_6  and  C6_9 
REMARK    7  A    between atoms: C6_9  and  C7_10 
ROOT
ATOM      1  C4  <0> d          -2.182   1.345  -1.162  0.00  0.00     0.030 C 
ATOM      2  H1  <0> d          -2.291   0.261  -1.126  0.00  0.00     0.055 H 
ENDROOT
BRANCH   1   3
ATOM      3  C3  <0> d          -3.543   1.988  -1.082  0.00  0.00     0.262 C 
ATOM      4  O2  <0> d          -3.802   2.743  -0.175  0.00  0.00    -0.265 OA
BRANCH   3   5
ATOM      5  O1  <0> d          -4.466   1.723  -2.020  0.00  0.00    -0.322 OA
BRANCH   5   6
ATOM      6  C2  <0> d          -5.755   2.378  -1.880  0.00  0.00     0.025 C 
ATOM      7  H5  <0> d          -6.208   2.089  -0.932  0.00  0.00     0.074 H 
ATOM      8  H6  <0> d          -5.617   3.459  -1.902  0.00  0.00     0.074 H 
BRANCH   6   9
ATOM      9  C1  <0> d          -6.669   1.957  -3.032  0.00  0.00    -0.056 C 
ATOM     10  H2  <0> d          -6.215   2.246  -3.980  0.00  0.00     0.030 H 
ATOM     11  H3  <0> d          -6.807   0.876  -3.010  0.00  0.00     0.030 H 
ATOM     12  H4  <0> d          -7.636   2.449  -2.927  0.00  0.00     0.030 H 
ENDBRANCH   6   9
ENDBRANCH   5   6
ENDBRANCH   3   5
ENDBRANCH   1   3
BRANCH   1  13
ATOM     13  C5  <0> d          -1.504   1.746  -2.473  0.00  0.00    -0.064 C 
ATOM     14  H7  <0> d          -2.113   1.414  -3.314  0.00  0.00     0.028 H 
ATOM     15  H8  <0> d          -1.396   2.831  -2.509  0.00  0.00     0.028 H 
ATOM     16  H9  <0> d          -0.520   1.281  -2.531  0.00  0.00     0.028 H 
ENDBRANCH   1  13
BRANCH   1  17
ATOM     17  C6  <0> d          -1.328   1.812   0.018  0.00  0.00    -0.039 C 
ATOM     18  H10 <0> d          -1.853   1.605   0.951  0.00  0.00     0.040 H 
ATOM     19  H11 <0> d          -1.145   2.883  -0.066  0.00  0.00     0.040 H 
BRANCH  17  20
ATOM     20  C7  <0> d          -0.013   1.076   0.008  0.00  0.00    -0.111 C 
ATOM     21  C8  <0> d           1.113   1.746   0.001  0.00  0.00    -0.125 C 
ATOM     22  H13 <0> d           1.098   2.826   0.007  0.00  0.00     0.066 H 
ATOM     23  H14 <0> d           2.055   1.219  -0.011  0.00  0.00     0.066 H 
ATOM     24  H12 <0> d           0.002  -0.004   0.002  0.00  0.00     0.075 H 
ENDBRANCH  17  20
ENDBRANCH   1  17
TORSDOF 7
