REMARK  8 active torsions:
REMARK  status: ('A' for Active; 'I' for Inactive)
REMARK    1  A    between atoms: C1_1  and  C2_2 
REMARK    2  A    between atoms: C2_2  and  C3_4 
REMARK    3  A    between atoms: C2_2  and  O1_7 
REMARK    4  A    between atoms: C3_4  and  C4_5 
REMARK    5  A    between atoms: C3_4  and  C5_6 
REMARK    6  A    between atoms: O1_7  and  C6_8 
REMARK    7  A    between atoms: C6_8  and  C7_9 
REMARK    8  A    between atoms: C6_8  and  C8_10 
ROOT
ATOM      1  C2  <0> d           0.002  -0.004   0.002  0.00  0.00     0.038 C 
ATOM      2  H1  <0> d           0.512  -0.356  -0.895  0.00  0.00     0.083 H 
ENDROOT
BRANCH   1   3
ATOM      3  C1  <0> d          -0.019   1.526   0.010  0.00  0.00    -0.052 C 
ATOM      4  H2  <0> d           1.004   1.903   0.003  0.00  0.00     0.030 H 
ATOM      5  H3  <0> d          -0.546   1.887  -0.873  0.00  0.00     0.030 H 
ATOM      6  H4  <0> d          -0.529   1.877   0.907  0.00  0.00     0.030 H 
ENDBRANCH   1   3
BRANCH   1   7
ATOM      7  C3  <0> d          -1.433  -0.534   0.013  0.00  0.00    -0.036 C 
ATOM      8  H5  <0> d          -1.960  -0.173  -0.870  0.00  0.00     0.042 H 
BRANCH   7   9
ATOM      9  C4  <0> d          -1.413  -2.063   0.004  0.00  0.00    -0.071 C 
ATOM     10  H6  <0> d          -0.885  -2.425   0.887  0.00  0.00     0.028 H 
ATOM     11  H7  <0> d          -2.435  -2.441   0.012  0.00  0.00     0.028 H 
ATOM     12  H8  <0> d          -0.902  -2.415  -0.892  0.00  0.00     0.028 H 
ENDBRANCH   7   9
BRANCH   7  13
ATOM     13  C5  <0> d          -2.149  -0.040   1.272  0.00  0.00    -0.071 C 
ATOM     14  H9  <0> d          -2.164   1.050   1.278  0.00  0.00     0.028 H 
ATOM     15  H10 <0> d          -3.172  -0.417   1.279  0.00  0.00     0.028 H 
ATOM     16  H11 <0> d          -1.622  -0.401   2.155  0.00  0.00     0.028 H 
ENDBRANCH   7  13
ENDBRANCH   1   7
BRANCH   1  17
ATOM     17  O1  <0> d           0.693  -0.477   1.160  0.00  0.00    -0.381 OA
BRANCH  17  18
ATOM     18  C6  <0> d           2.099  -0.651   0.967  0.00  0.00     0.032 C 
ATOM     19  H12 <0> d           2.455   0.064   0.226  0.00  0.00     0.082 H 
BRANCH  18  20
ATOM     20  C7  <0> d           2.827  -0.418   2.292  0.00  0.00    -0.052 C 
ATOM     21  H13 <0> d           2.471  -1.133   3.034  0.00  0.00     0.030 H 
ATOM     22  H14 <0> d           3.899  -0.550   2.145  0.00  0.00     0.030 H 
ATOM     23  H15 <0> d           2.631   0.596   2.641  0.00  0.00     0.030 H 
ENDBRANCH  18  20
BRANCH  18  24
ATOM     24  C8  <0> d           2.374  -2.074   0.477  0.00  0.00    -0.052 C 
ATOM     25  H16 <0> d           1.855  -2.240  -0.467  0.00  0.00     0.030 H 
ATOM     26  H17 <0> d           3.446  -2.206   0.330  0.00  0.00     0.030 H 
ATOM     27  H18 <0> d           2.018  -2.789   1.218  0.00  0.00     0.030 H 
ENDBRANCH  18  24
ENDBRANCH  17  18
ENDBRANCH   1  17
TORSDOF 8
