REMARK  5 active torsions:
REMARK  status: ('A' for Active; 'I' for Inactive)
REMARK    1  A    between atoms: C1_1  and  C2_2 
REMARK    2  A    between atoms: C2_2  and  C3_3 
REMARK    3  A    between atoms: C2_2  and  C4_4 
REMARK    4  A    between atoms: C2_2  and  N1_5 
REMARK       I    between atoms: N1_5  and  C5_6 
REMARK    5  A    between atoms: C5_6  and  C6_8 
ROOT
ATOM      1  C6  <0> d          -1.330   1.944   0.019  0.00  0.00     0.088 C 
ATOM      2  C7  <0> d          -2.435   0.973   0.019  0.00  0.00     0.068 C 
ATOM      3  N2  <0> d          -3.289   0.223   0.019  0.00  0.00    -0.197 NA
ATOM      4  H11 <0> d          -1.392   2.565   0.913  0.00  0.00     0.069 H 
ATOM      5  H12 <0> d          -1.400   2.575  -0.867  0.00  0.00     0.069 H 
ENDROOT
BRANCH   1   6
ATOM      6  C5  <0> d          -0.014   1.209   0.009  0.00  0.00     0.231 C 
ATOM      7  N1  <0> d           1.143   1.898   0.001  0.00  0.00    -0.352 N 
ATOM      8  H10 <0> d           1.130   2.868   0.007  0.00  0.00     0.163 HD
ATOM      9  O1  <0> d           0.002  -0.004   0.002  0.00  0.00    -0.273 OA
BRANCH   7  10
ATOM     10  C2  <0> d           2.422   1.183  -0.015  0.00  0.00     0.022 C 
BRANCH  10  11
ATOM     11  C1  <0> d           2.503   0.311  -1.270  0.00  0.00    -0.054 C 
ATOM     12  H1  <0> d           2.428   0.942  -2.155  0.00  0.00     0.030 H 
ATOM     13  H2  <0> d           3.454  -0.221  -1.281  0.00  0.00     0.030 H 
ATOM     14  H3  <0> d           1.684  -0.408  -1.266  0.00  0.00     0.030 H 
ENDBRANCH  10  11
BRANCH  10  15
ATOM     15  C3  <0> d           3.571   2.193  -0.020  0.00  0.00    -0.054 C 
ATOM     16  H4  <0> d           3.514   2.814   0.874  0.00  0.00     0.030 H 
ATOM     17  H5  <0> d           4.522   1.661  -0.032  0.00  0.00     0.030 H 
ATOM     18  H6  <0> d           3.497   2.824  -0.906  0.00  0.00     0.030 H 
ENDBRANCH  10  15
BRANCH  10  19
ATOM     19  C4  <0> d           2.527   0.298   1.229  0.00  0.00    -0.054 C 
ATOM     20  H7  <0> d           1.708  -0.421   1.233  0.00  0.00     0.030 H 
ATOM     21  H8  <0> d           3.478  -0.234   1.217  0.00  0.00     0.030 H 
ATOM     22  H9  <0> d           2.469   0.919   2.123  0.00  0.00     0.030 H 
ENDBRANCH  10  19
ENDBRANCH   7  10
ENDBRANCH   1   6
TORSDOF 5
