REMARK  3 active torsions:
REMARK  status: ('A' for Active; 'I' for Inactive)
REMARK    1  A    between atoms: C1_1  and  N1_2 
REMARK    2  A    between atoms: C3_4  and  O1_8 
REMARK    3  A    between atoms: C4_6  and  N3_7 
ROOT
ATOM      1  N1  <0> d           3.121   2.416  -0.656  0.00  0.00    -0.192 N 
ATOM      2  C2  <0> d           1.931   1.870  -1.099  0.00  0.00     0.048 A 
ATOM      3  C3  <0> d           1.225   1.533  -0.001  0.00  0.00     0.197 A 
ATOM      4  N2  <0> d           1.948   1.863   1.083  0.00  0.00    -0.039 NA
ATOM      5  C4  <0> d           3.090   2.389   0.703  0.00  0.00     0.702 A 
ATOM      6  H4  <0> d           1.627   1.738  -2.126  0.00  0.00     0.119 H 
ENDROOT
BRANCH   1   7
ATOM      7  C1  <0> d           4.210   2.928  -1.492  0.00  0.00     0.002 C 
ATOM      8  H1  <0> d           4.049   3.987  -1.690  0.00  0.00     0.058 H 
ATOM      9  H2  <0> d           5.160   2.796  -0.973  0.00  0.00     0.058 H 
ATOM     10  H3  <0> d           4.232   2.381  -2.434  0.00  0.00     0.058 H 
ENDBRANCH   1   7
BRANCH   5  11
ATOM     11  N3  <0> d           4.091   2.843   1.545  0.00  0.00    -0.233 N 
ATOM     12  H5  <0> d           4.903   3.221   1.173  0.00  0.00     0.174 HD
ATOM     13  H6  <0> d           3.980   2.783   2.507  0.00  0.00     0.174 HD
ENDBRANCH   5  11
BRANCH   3  14
ATOM     14  O1  <0> d          -0.011   0.963   0.007  0.00  0.00    -0.343 OA
ATOM     15  H7  <0> d           0.002  -0.004   0.002  0.00  0.00     0.219 HD
ENDBRANCH   3  14
TORSDOF 3
