REMARK  3 active torsions:
REMARK  status: ('A' for Active; 'I' for Inactive)
REMARK    1  A    between atoms: C1_1  and  C2_2 
REMARK    2  A    between atoms: C2_2  and  C3_4 
REMARK    3  A    between atoms: C2_2  and  O1_9 
ROOT
ATOM      1  C2  <0> d           0.002  -0.004   0.002  0.00  0.00     0.065 C 
ATOM      2  H1  <0> d           0.529  -0.365   0.885  0.00  0.00     0.090 H 
ENDROOT
BRANCH   1   3
ATOM      3  C1  <0> d          -0.019   1.526   0.010  0.00  0.00    -0.048 C 
ATOM      4  H2  <0> d           1.004   1.903   0.003  0.00  0.00     0.031 H 
ATOM      5  H3  <0> d          -0.546   1.887  -0.873  0.00  0.00     0.031 H 
ATOM      6  H4  <0> d          -0.529   1.877   0.907  0.00  0.00     0.031 H 
ENDBRANCH   1   3
BRANCH   1   7
ATOM      7  C3  <0> d           0.707  -0.490  -1.238  0.00  0.00     0.029 A 
ATOM      8  S1  <0> d           0.099  -0.645  -2.909  0.00  0.00    -0.083 SA
ATOM      9  C5  <0> d           1.507  -1.241  -3.614  0.00  0.00     0.040 A 
ATOM     10  N1  <0> d           2.341  -1.305  -2.606  0.00  0.00    -0.265 NA
ATOM     11  H6  <0> d           1.679  -1.510  -4.645  0.00  0.00     0.126 H 
ATOM     12  C4  <0> d           1.980  -0.937  -1.393  0.00  0.00     0.018 A 
ATOM     13  H5  <0> d           2.666  -0.989  -0.560  0.00  0.00     0.116 H 
ENDBRANCH   1   7
BRANCH   1  14
ATOM     14  O1  <0> d          -1.339  -0.499   0.012  0.00  0.00    -0.391 OA
ATOM     15  H7  <0> d          -1.853  -0.225   0.784  0.00  0.00     0.210 HD
ENDBRANCH   1  14
TORSDOF 3
