REMARK  4 active torsions:
REMARK  status: ('A' for Active; 'I' for Inactive)
REMARK    1  A    between atoms: C1_1  and  C2_2 
REMARK    2  A    between atoms: C4_5  and  O1_15 
REMARK    3  A    between atoms: C8_12  and  C9_13 
REMARK    4  A    between atoms: C8_12  and  C10_14 
ROOT
ATOM      1  C2  <0> d          -0.035   3.885   0.008  0.00  0.00    -0.051 C 
ATOM      2  H1  <0> d           0.567   4.185  -0.849  0.00  0.00     0.040 H 
ATOM      3  C3  <0> d          -1.322   3.201  -0.475  0.00  0.00    -0.037 C 
ATOM      4  C4  <0> d          -0.961   1.796  -1.015  0.00  0.00     0.040 C 
ATOM      5  H2  <0> d          -0.444   1.888  -1.970  0.00  0.00     0.083 H 
ATOM      6  C5  <0> d          -0.033   1.129   0.016  0.00  0.00    -0.022 C 
ATOM      7  H3  <0> d          -0.053   0.039  -0.001  0.00  0.00     0.045 H 
ATOM      8  C6  <0> d          -0.185   1.775   1.409  0.00  0.00    -0.054 C 
ATOM      9  C7  <0> d           0.749   2.878   0.868  0.00  0.00    -0.043 C 
ATOM     10  H4  <0> d           1.420   3.335   1.595  0.00  0.00     0.041 H 
ATOM     11  C8  <0> d           1.369   1.768  -0.002  0.00  0.00    -0.038 C 
ATOM     12  H8  <0> d          -2.022   3.109   0.356  0.00  0.00     0.037 H 
ATOM     13  H9  <0> d          -1.775   3.793  -1.271  0.00  0.00     0.037 H 
ATOM     14  H10 <0> d          -1.195   2.120   1.627  0.00  0.00     0.034 H 
ATOM     15  H11 <0> d           0.250   1.187   2.217  0.00  0.00     0.034 H 
ENDROOT
BRANCH  11  16
ATOM     16  C9  <0> d           2.434   0.940   0.720  0.00  0.00    -0.069 C 
ATOM     17  H12 <0> d           2.768   0.131   0.070  0.00  0.00     0.028 H 
ATOM     18  H13 <0> d           3.282   1.578   0.970  0.00  0.00     0.028 H 
ATOM     19  H14 <0> d           2.012   0.522   1.634  0.00  0.00     0.028 H 
ENDBRANCH  11  16
BRANCH  11  20
ATOM     20  C10 <0> d           1.814   2.243  -1.386  0.00  0.00    -0.069 C 
ATOM     21  H15 <0> d           1.050   2.897  -1.809  0.00  0.00     0.028 H 
ATOM     22  H16 <0> d           2.752   2.790  -1.298  0.00  0.00     0.028 H 
ATOM     23  H17 <0> d           1.955   1.381  -2.038  0.00  0.00     0.028 H 
ENDBRANCH  11  20
BRANCH   4  24
ATOM     24  O1  <0> d          -2.143   1.009  -1.179  0.00  0.00    -0.395 OA
ATOM     25  H18 <0> d          -2.772   1.374  -1.817  0.00  0.00     0.210 HD
ENDBRANCH   4  24
BRANCH   1  26
ATOM     26  C1  <0> d          -0.388   5.116   0.847  0.00  0.00    -0.072 C 
ATOM     27  H5  <0> d           0.527   5.584   1.207  0.00  0.00     0.028 H 
ATOM     28  H6  <0> d          -0.943   5.826   0.234  0.00  0.00     0.028 H 
ATOM     29  H7  <0> d          -1.000   4.813   1.696  0.00  0.00     0.028 H 
ENDBRANCH   1  26
TORSDOF 4
