REMARK  4 active torsions:
REMARK  status: ('A' for Active; 'I' for Inactive)
REMARK    1  A    between atoms: C1_1  and  C2_2 
REMARK    2  A    between atoms: C2_2  and  O1_3 
REMARK    3  A    between atoms: O1_3  and  C3_4 
REMARK    4  A    between atoms: C4_5  and  C7_10 
ROOT
ATOM      1  C3  <0> d          -0.017   1.339  -0.001  0.00  0.00     0.075 A 
ATOM      2  C4  <0> d           0.000  -0.002  -0.084  0.00  0.00     0.036 A 
ATOM      3  C5  <0> d           1.327  -0.482  -0.054  0.00  0.00     0.250 A 
ATOM      4  O2  <0> d           1.636  -1.658  -0.113  0.00  0.00    -0.268 OA
ATOM      5  N1  <0> d           2.206   0.532   0.049  0.00  0.00    -0.351 N 
ATOM      6  C6  <0> d           1.428   1.779   0.091  0.00  0.00     0.040 A 
ATOM      7  H6  <0> d           3.172   0.455   0.087  0.00  0.00     0.163 HD
ATOM      8  H7  <0> d           1.685   2.415  -0.755  0.00  0.00     0.074 H 
ATOM      9  H8  <0> d           1.605   2.304   1.029  0.00  0.00     0.074 H 
ENDROOT
BRANCH   1  10
ATOM     10  O1  <0> d          -1.105   2.135  -0.006  0.00  0.00    -0.353 OA
BRANCH  10  11
ATOM     11  C2  <0> d          -1.379   2.884   1.207  0.00  0.00     0.022 C 
ATOM     12  H4  <0> d          -1.435   2.199   2.053  0.00  0.00     0.074 H 
ATOM     13  H5  <0> d          -0.579   3.605   1.377  0.00  0.00     0.074 H 
BRANCH  11  14
ATOM     14  C1  <0> d          -2.710   3.624   1.060  0.00  0.00    -0.056 C 
ATOM     15  H1  <0> d          -2.915   4.187   1.971  0.00  0.00     0.030 H 
ATOM     16  H2  <0> d          -2.653   4.310   0.215  0.00  0.00     0.030 H 
ATOM     17  H3  <0> d          -3.509   2.903   0.891  0.00  0.00     0.030 H 
ENDBRANCH  11  14
ENDBRANCH  10  11
ENDBRANCH   1  10
BRANCH   2  18
ATOM     18  C7  <0> d          -1.225  -0.872  -0.193  0.00  0.00    -0.044 C 
ATOM     19  H9  <0> d          -1.430  -1.083  -1.242  0.00  0.00     0.033 H 
ATOM     20  H10 <0> d          -1.055  -1.808   0.339  0.00  0.00     0.033 H 
ATOM     21  H11 <0> d          -2.078  -0.355   0.247  0.00  0.00     0.033 H 
ENDBRANCH   2  18
TORSDOF 4
