REMARK  0 active torsions:
REMARK  status: ('A' for Active; 'I' for Inactive)
ROOT
ATOM      1  C1  <0> d           1.200  -0.293  -0.943  0.00  0.00    -0.048 C 
ATOM      2  C2  <0> d           0.002  -0.004   0.002  0.00  0.00    -0.036 C 
ATOM      3  C3  <0> d          -0.019   1.543   0.011  0.00  0.00     0.091 C 
ATOM      4  H1  <0> d          -0.546   1.939  -0.858  0.00  0.00     0.087 H 
ATOM      5  C4  <0> d          -0.614   2.034   1.306  0.00  0.00     0.241 C 
ATOM      6  O1  <0> d          -1.494   1.401   1.850  0.00  0.00    -0.271 OA
ATOM      7  N1  <0> d          -0.166   3.178   1.858  0.00  0.00    -0.351 N 
ATOM      8  C5  <0> d           0.869   3.987   1.214  0.00  0.00     0.069 C 
ATOM      9  C6  <0> d           1.864   3.087   0.518  0.00  0.00     0.238 C 
ATOM     10  O2  <0> d           3.033   3.397   0.429  0.00  0.00    -0.272 OA
ATOM     11  N2  <0> d           1.409   1.928  -0.001  0.00  0.00    -0.337 N 
ATOM     12  C7  <0> d           2.186   0.851  -0.615  0.00  0.00    -0.001 C 
ATOM     13  H2  <0> d           1.645  -1.262  -0.716  0.00  0.00     0.035 H 
ATOM     14  H3  <0> d           0.888  -0.248  -1.986  0.00  0.00     0.035 H 
ATOM     15  H4  <0> d           0.188  -0.398   1.001  0.00  0.00     0.036 H 
ATOM     16  H5  <0> d          -0.925  -0.405  -0.408  0.00  0.00     0.036 H 
ATOM     17  H6  <0> d          -0.538   3.473   2.704  0.00  0.00     0.163 HD
ATOM     18  H7  <0> d           1.384   4.583   1.967  0.00  0.00     0.078 H 
ATOM     19  H8  <0> d           0.406   4.649   0.482  0.00  0.00     0.078 H 
ATOM     20  H9  <0> d           2.946   0.497   0.082  0.00  0.00     0.064 H 
ATOM     21  H10 <0> d           2.659   1.206  -1.530  0.00  0.00     0.064 H 
ENDROOT
TORSDOF 0
