REMARK  3 active torsions:
REMARK  status: ('A' for Active; 'I' for Inactive)
REMARK    1  A    between atoms: C1_1  and  O1_2 
REMARK    2  A    between atoms: O1_2  and  C2_3 
REMARK    3  A    between atoms: C5_6  and  C8_9 
REMARK       I    between atoms: C8_9  and  N1_11 
ROOT
ATOM      1  C2  <0> d           1.177   2.086   0.002  0.00  0.00     0.068 A 
ATOM      2  C3  <0> d          -0.017   1.373   0.010  0.00  0.00    -0.050 A 
ATOM      3  C4  <0> d           0.002  -0.004   0.002  0.00  0.00    -0.065 A 
ATOM      4  C5  <0> d           1.223  -0.684  -0.013  0.00  0.00     0.032 A 
ATOM      5  C6  <0> d           2.420   0.036  -0.021  0.00  0.00    -0.065 A 
ATOM      6  C7  <0> d           2.393   1.413  -0.013  0.00  0.00    -0.050 A 
ATOM      7  H4  <0> d          -0.960   1.899   0.017  0.00  0.00     0.087 H 
ATOM      8  H5  <0> d          -0.925  -0.557   0.008  0.00  0.00     0.085 H 
ATOM      9  H6  <0> d           3.365  -0.486  -0.032  0.00  0.00     0.085 H 
ATOM     10  H7  <0> d           3.317   1.971  -0.019  0.00  0.00     0.087 H 
ENDROOT
BRANCH   1  11
ATOM     11  O1  <0> d           1.154   3.443   0.009  0.00  0.00    -0.356 OA
BRANCH  11  12
ATOM     12  C1  <0> d           2.416   4.113   0.001  0.00  0.00     0.010 C 
ATOM     13  H1  <0> d           2.986   3.824   0.884  0.00  0.00     0.066 H 
ATOM     14  H2  <0> d           2.969   3.834  -0.896  0.00  0.00     0.066 H 
ATOM     15  H3  <0> d           2.255   5.191   0.008  0.00  0.00     0.066 H 
ENDBRANCH  11  12
ENDBRANCH   1  11
BRANCH   4  16
ATOM     16  C8  <0> d           1.247  -2.160  -0.021  0.00  0.00     0.249 C 
ATOM     17  O2  <0> d           0.204  -2.785  -0.014  0.00  0.00    -0.268 OA
ATOM     18  N1  <0> d           2.425  -2.814  -0.036  0.00  0.00    -0.366 N 
ATOM     19  H8  <0> d           3.257  -2.316  -0.041  0.00  0.00     0.159 HD
ATOM     20  H9  <0> d           2.442  -3.784  -0.041  0.00  0.00     0.159 HD
ENDBRANCH   4  16
TORSDOF 3
