REMARK  4 active torsions:
REMARK  status: ('A' for Active; 'I' for Inactive)
REMARK    1  A    between atoms: C1_1  and  C2_2 
REMARK    2  A    between atoms: C3_3  and  C10_11 
REMARK    3  A    between atoms: C4_4  and  C9_10 
REMARK    4  A    between atoms: C5_5  and  C8_9 
ROOT
ATOM      1  C2  <0> d          -0.137  -0.017   0.002  0.00  0.00    -0.070 A 
ATOM      2  C3  <0> d          -1.207  -0.816  -0.012  0.00  0.00    -0.053 A 
ATOM      3  C4  <0> d          -1.077  -2.265  -0.020  0.00  0.00    -0.046 A 
ATOM      4  C5  <0> d           0.121  -2.890  -0.015  0.00  0.00    -0.009 A 
ATOM      5  C6  <0> d           1.324  -2.155  -0.001  0.00  0.00     0.159 A 
ATOM      6  O1  <0> d           2.399  -2.720   0.003  0.00  0.00    -0.292 OA
ATOM      7  C7  <0> d           1.240  -0.644   0.003  0.00  0.00     0.015 A 
ATOM      8  H4  <0> d           1.775  -0.275  -0.873  0.00  0.00     0.051 H 
ATOM      9  H5  <0> d           1.769  -0.286   0.886  0.00  0.00     0.051 H 
ENDROOT
BRANCH   1  10
ATOM     10  C1  <0> d          -0.297   1.481   0.011  0.00  0.00    -0.054 C 
ATOM     11  H1  <0> d           0.686   1.952   0.018  0.00  0.00     0.033 H 
ATOM     12  H2  <0> d          -0.844   1.793  -0.878  0.00  0.00     0.033 H 
ATOM     13  H3  <0> d          -0.850   1.782   0.902  0.00  0.00     0.033 H 
ENDBRANCH   1  10
BRANCH   2  14
ATOM     14  C10 <0> d          -2.583  -0.201  -0.018  0.00  0.00    -0.051 C 
ATOM     15  H12 <0> d          -2.907  -0.046  -1.048  0.00  0.00     0.033 H 
ATOM     16  H13 <0> d          -3.282  -0.869   0.485  0.00  0.00     0.033 H 
ATOM     17  H14 <0> d          -2.556   0.756   0.502  0.00  0.00     0.033 H 
ENDBRANCH   2  14
BRANCH   3  18
ATOM     18  C9  <0> d          -2.329  -3.103  -0.035  0.00  0.00    -0.050 C 
ATOM     19  H9  <0> d          -2.676  -3.219  -1.062  0.00  0.00     0.033 H 
ATOM     20  H10 <0> d          -2.115  -4.083   0.390  0.00  0.00     0.033 H 
ATOM     21  H11 <0> d          -3.102  -2.611   0.556  0.00  0.00     0.033 H 
ENDBRANCH   3  18
BRANCH   4  22
ATOM     22  C8  <0> d           0.172  -4.396  -0.024  0.00  0.00    -0.047 C 
ATOM     23  H6  <0> d          -0.247  -4.769  -0.959  0.00  0.00     0.033 H 
ATOM     24  H7  <0> d           1.207  -4.726   0.066  0.00  0.00     0.033 H 
ATOM     25  H8  <0> d          -0.407  -4.785   0.814  0.00  0.00     0.033 H 
ENDBRANCH   4  22
TORSDOF 4
