REMARK  3 active torsions:
REMARK  status: ('A' for Active; 'I' for Inactive)
REMARK    1  A    between atoms: C4_4  and  C7_7 
REMARK    2  A    between atoms: C8_8  and  C9_9 
REMARK    3  A    between atoms: C9_9  and  O1_10 
ROOT
ATOM      1  C1  <0> d          -0.019   1.526   0.010  0.00  0.00    -0.065 C 
ATOM      2  C2  <0> d           1.417   2.055  -0.000  0.00  0.00    -0.064 C 
ATOM      3  C3  <0> d           2.133   1.562  -1.259  0.00  0.00    -0.059 C 
ATOM      4  C4  <0> d           2.154   0.032  -1.268  0.00  0.00    -0.038 C 
ATOM      5  C5  <0> d           0.718  -0.497  -1.257  0.00  0.00    -0.059 C 
ATOM      6  C6  <0> d           0.002  -0.004   0.002  0.00  0.00    -0.064 C 
ATOM      7  H1  <0> d          -0.529   1.877   0.907  0.00  0.00     0.033 H 
ATOM      8  H2  <0> d          -0.546   1.887  -0.873  0.00  0.00     0.033 H 
ATOM      9  H3  <0> d           1.402   3.145   0.006  0.00  0.00     0.033 H 
ATOM     10  H4  <0> d           1.944   1.694   0.883  0.00  0.00     0.033 H 
ATOM     11  H5  <0> d           1.606   1.923  -2.142  0.00  0.00     0.034 H 
ATOM     12  H6  <0> d           3.155   1.939  -1.267  0.00  0.00     0.034 H 
ATOM     13  H7  <0> d           2.681  -0.329  -0.385  0.00  0.00     0.046 H 
ATOM     14  H8  <0> d           0.191  -0.136  -2.140  0.00  0.00     0.034 H 
ATOM     15  H9  <0> d           0.733  -1.587  -1.263  0.00  0.00     0.034 H 
ATOM     16  H10 <0> d           0.529  -0.365   0.885  0.00  0.00     0.033 H 
ATOM     17  H11 <0> d          -1.020  -0.381   0.010  0.00  0.00     0.033 H 
ENDROOT
BRANCH   4  18
ATOM     18  C7  <0> d           2.859  -0.454  -2.507  0.00  0.00    -0.101 C 
ATOM     19  C8  <0> d           3.935  -1.193  -2.402  0.00  0.00    -0.084 C 
ATOM     20  H13 <0> d           4.317  -1.454  -1.426  0.00  0.00     0.079 H 
ATOM     21  H12 <0> d           2.477  -0.193  -3.483  0.00  0.00     0.077 H 
BRANCH  19  22
ATOM     22  C9  <0> d           4.641  -1.679  -3.641  0.00  0.00     0.032 C 
ATOM     23  H14 <0> d           4.429  -2.738  -3.788  0.00  0.00     0.080 H 
ATOM     24  H15 <0> d           4.288  -1.115  -4.505  0.00  0.00     0.080 H 
BRANCH  22  25
ATOM     25  O1  <0> d           6.049  -1.491  -3.493  0.00  0.00    -0.397 OA
ATOM     26  H16 <0> d           6.568  -1.782  -4.255  0.00  0.00     0.209 HD
ENDBRANCH  22  25
ENDBRANCH  19  22
ENDBRANCH   4  18
TORSDOF 3
