REMARK  7 active torsions:
REMARK  status: ('A' for Active; 'I' for Inactive)
REMARK    1  A    between atoms: C1_1  and  C2_2 
REMARK    2  A    between atoms: C2_2  and  C3_3 
REMARK    3  A    between atoms: C3_3  and  C4_4 
REMARK    4  A    between atoms: C3_3  and  C6_6 
REMARK    5  A    between atoms: C3_3  and  O1_9 
REMARK    6  A    between atoms: C4_4  and  C5_5 
REMARK    7  A    between atoms: C6_6  and  C7_7 
ROOT
ATOM      1  C3  <0> d          -3.405   1.435   1.401  0.00  0.00     0.060 C 
ENDROOT
BRANCH   1   2
ATOM      2  C2  <0> d          -3.797   2.839   0.935  0.00  0.00    -0.040 C 
ATOM      3  H4  <0> d          -4.345   2.770  -0.004  0.00  0.00     0.036 H 
ATOM      4  H5  <0> d          -4.427   3.309   1.690  0.00  0.00     0.036 H 
BRANCH   2   5
ATOM      5  C1  <0> d          -2.535   3.679   0.730  0.00  0.00    -0.074 C 
ATOM      6  H1  <0> d          -2.816   4.707   0.501  0.00  0.00     0.027 H 
ATOM      7  H2  <0> d          -1.934   3.660   1.639  0.00  0.00     0.027 H 
ATOM      8  H3  <0> d          -1.956   3.267  -0.097  0.00  0.00     0.027 H 
ENDBRANCH   2   5
ENDBRANCH   1   2
BRANCH   1   9
ATOM      9  C4  <0> d          -4.666   0.585   1.575  0.00  0.00    -0.040 C 
ATOM     10  H6  <0> d          -5.146   0.444   0.607  0.00  0.00     0.036 H 
ATOM     11  H7  <0> d          -4.395  -0.386   1.991  0.00  0.00     0.036 H 
BRANCH   9  12
ATOM     12  C5  <0> d          -5.632   1.295   2.525  0.00  0.00    -0.074 C 
ATOM     13  H8  <0> d          -5.153   1.436   3.493  0.00  0.00     0.027 H 
ATOM     14  H9  <0> d          -5.903   2.265   2.109  0.00  0.00     0.027 H 
ATOM     15  H10 <0> d          -6.530   0.690   2.649  0.00  0.00     0.027 H 
ENDBRANCH   9  12
ENDBRANCH   1   9
BRANCH   1  16
ATOM     16  C6  <0> d          -2.494   0.787   0.357  0.00  0.00    -0.022 C 
ATOM     17  H11 <0> d          -1.580   1.374   0.258  0.00  0.00     0.043 H 
ATOM     18  H12 <0> d          -3.008   0.752  -0.603  0.00  0.00     0.043 H 
BRANCH  16  19
ATOM     19  C7  <0> d          -2.147  -0.613   0.792  0.00  0.00    -0.109 C 
ATOM     20  C8  <0> d          -2.377  -1.624  -0.008  0.00  0.00    -0.125 C 
ATOM     21  H14 <0> d          -2.815  -1.454  -0.981  0.00  0.00     0.066 H 
ATOM     22  H15 <0> d          -2.124  -2.627   0.302  0.00  0.00     0.066 H 
ATOM     23  H13 <0> d          -1.708  -0.783   1.765  0.00  0.00     0.075 H 
ENDBRANCH  16  19
ENDBRANCH   1  16
BRANCH   1  24
ATOM     24  O1  <0> d          -2.714   1.522   2.648  0.00  0.00    -0.390 OA
ATOM     25  H16 <0> d          -2.435   0.667   3.004  0.00  0.00     0.210 HD
ENDBRANCH   1  24
TORSDOF 7
