REMARK  3 active torsions:
REMARK  status: ('A' for Active; 'I' for Inactive)
REMARK    1  A    between atoms: C1_1  and  C2_2 
REMARK    2  A    between atoms: C2_2  and  C6_8 
REMARK    3  A    between atoms: C4_4  and  C5_6 
ROOT
ATOM      1  C2  <0> d          -0.735   1.514   1.319  0.00  0.00     0.059 A 
ATOM      2  C3  <0> d           0.002   2.840   1.521  0.00  0.00    -0.034 A 
ATOM      3  C4  <0> d          -0.069   1.823   2.661  0.00  0.00     0.048 A 
ATOM      4  H1  <0> d           0.843   1.278   2.907  0.00  0.00     0.058 H 
ATOM      5  H5  <0> d           0.960   2.966   1.016  0.00  0.00     0.036 H 
ATOM      6  H6  <0> d          -0.603   3.743   1.613  0.00  0.00     0.036 H 
ENDROOT
BRANCH   1   7
ATOM      7  C1  <0> d          -0.070   0.466   0.424  0.00  0.00    -0.059 C 
ATOM      8  H2  <0> d          -0.028  -0.487   0.951  0.00  0.00     0.029 H 
ATOM      9  H3  <0> d           0.942   0.788   0.177  0.00  0.00     0.029 H 
ATOM     10  H4  <0> d          -0.649   0.350  -0.492  0.00  0.00     0.029 H 
ENDBRANCH   1   7
BRANCH   1  11
ATOM     11  C6  <0> d          -2.240   1.556   1.263  0.00  0.00     0.182 C 
ATOM     12  O2  <0> d          -2.889   1.243   2.233  0.00  0.00    -0.647 OA
ATOM     13  O4  <0> d          -2.860   1.939   0.136  0.00  0.00    -0.647 OA
ENDBRANCH   1  11
BRANCH   3  14
ATOM     14  C5  <0> d          -0.968   2.145   3.827  0.00  0.00     0.178 C 
ATOM     15  O1  <0> d          -1.312   3.286   4.027  0.00  0.00    -0.648 OA
ATOM     16  O3  <0> d          -1.387   1.164   4.642  0.00  0.00    -0.648 OA
ENDBRANCH   3  14
TORSDOF 3
