REMARK  2 active torsions:
REMARK  status: ('A' for Active; 'I' for Inactive)
REMARK    1  A    between atoms: C3_5  and  C4_6 
REMARK    2  A    between atoms: C4_6  and  O1_7 
ROOT
ATOM      1  C1  <0> d          -0.017   1.375   0.010  0.00  0.00    -0.049 A 
ATOM      2  C2  <0> d           1.200   1.978   0.001  0.00  0.00    -0.025 A 
ATOM      3  S1  <0> d           2.264   0.680  -0.016  0.00  0.00    -0.001 SA
ATOM      4  N1  <0> d           1.174  -0.588  -0.012  0.00  0.00    -0.214 NA
ATOM      5  C3  <0> d           0.002  -0.004   0.002  0.00  0.00     0.067 A 
ATOM      6  H1  <0> d          -0.938   1.939   0.026  0.00  0.00     0.087 H 
ATOM      7  H2  <0> d           1.428   3.034   0.004  0.00  0.00     0.097 H 
ENDROOT
BRANCH   5   8
ATOM      8  C4  <0> d          -1.274  -0.806   0.010  0.00  0.00     0.057 C 
ATOM      9  H3  <0> d          -1.317  -1.429  -0.883  0.00  0.00     0.083 H 
ATOM     10  H4  <0> d          -1.300  -1.439   0.897  0.00  0.00     0.083 H 
BRANCH   8  11
ATOM     11  O1  <0> d          -2.394   0.082   0.025  0.00  0.00    -0.395 OA
ATOM     12  H5  <0> d          -3.251  -0.366   0.031  0.00  0.00     0.209 HD
ENDBRANCH   8  11
ENDBRANCH   5   8
TORSDOF 2
