REMARK  3 active torsions:
REMARK  status: ('A' for Active; 'I' for Inactive)
REMARK    1  A    between atoms: C1_1  and  C2_2 
REMARK    2  A    between atoms: C6_7  and  C8_9 
REMARK    3  A    between atoms: C6_7  and  C9_10 
ROOT
ATOM      1  C2  <0> d           0.002  -0.004   0.002  0.00  0.00    -0.080 C 
ATOM      2  C3  <0> d           0.005  -0.629  -1.169  0.00  0.00    -0.037 C 
ATOM      3  C4  <0> d           0.015  -2.094  -1.234  0.00  0.00     0.150 C 
ATOM      4  O1  <0> d          -0.188  -2.678  -2.278  0.00  0.00    -0.293 OA
ATOM      5  C5  <0> d           0.287  -2.855   0.048  0.00  0.00     0.001 C 
ATOM      6  C6  <0> d          -0.495  -2.156   1.169  0.00  0.00    -0.037 C 
ATOM      7  C7  <0> d           0.024  -0.725   1.317  0.00  0.00    -0.038 C 
ATOM      8  H4  <0> d          -0.001  -0.053  -2.083  0.00  0.00     0.089 H 
ATOM      9  H5  <0> d          -0.051  -3.886  -0.054  0.00  0.00     0.045 H 
ATOM     10  H6  <0> d           1.354  -2.834   0.272  0.00  0.00     0.045 H 
ATOM     11  H7  <0> d           1.047  -0.749   1.694  0.00  0.00     0.040 H 
ATOM     12  H8  <0> d          -0.605  -0.190   2.029  0.00  0.00     0.040 H 
ENDROOT
BRANCH   6  13
ATOM     13  C8  <0> d          -1.984  -2.131   0.815  0.00  0.00    -0.069 C 
ATOM     14  H9  <0> d          -2.347  -3.153   0.701  0.00  0.00     0.028 H 
ATOM     15  H10 <0> d          -2.538  -1.635   1.611  0.00  0.00     0.028 H 
ATOM     16  H11 <0> d          -2.126  -1.589  -0.120  0.00  0.00     0.028 H 
ENDBRANCH   6  13
BRANCH   6  17
ATOM     17  C9  <0> d          -0.292  -2.912   2.483  0.00  0.00    -0.069 C 
ATOM     18  H12 <0> d           0.768  -2.924   2.735  0.00  0.00     0.028 H 
ATOM     19  H13 <0> d          -0.849  -2.415   3.278  0.00  0.00     0.028 H 
ATOM     20  H14 <0> d          -0.652  -3.935   2.373  0.00  0.00     0.028 H 
ENDBRANCH   6  17
BRANCH   1  21
ATOM     21  C1  <0> d          -0.018   1.503   0.010  0.00  0.00    -0.054 C 
ATOM     22  H1  <0> d           1.004   1.880   0.003  0.00  0.00     0.033 H 
ATOM     23  H2  <0> d          -0.545   1.864  -0.873  0.00  0.00     0.033 H 
ATOM     24  H3  <0> d          -0.529   1.854   0.907  0.00  0.00     0.033 H 
ENDBRANCH   1  21
TORSDOF 3
