REMARK  1 active torsions:
REMARK  status: ('A' for Active; 'I' for Inactive)
REMARK    1  A    between atoms: C3_3  and  N4_10 
ROOT
ATOM      1  C1  <0> d           0.002  -0.004   0.002  0.00  0.00    -0.064 A 
ATOM      2  C2  <0> d          -0.017   1.398   0.010  0.00  0.00    -0.052 A 
ATOM      3  C3  <0> d           1.164   2.089   0.002  0.00  0.00     0.074 A 
ATOM      4  C4  <0> d           2.381   1.371  -0.013  0.00  0.00     0.178 A 
ATOM      5  N1  <0> d           3.653   1.750  -0.023  0.00  0.00    -0.218 NA
ATOM      6  C5  <0> d           4.437   0.682  -0.036  0.00  0.00     0.108 A 
ATOM      7  N2  <0> d           3.700  -0.405  -0.035  0.00  0.00    -0.159 NA
ATOM      8  N3  <0> d           2.360   0.006  -0.020  0.00  0.00    -0.224 N 
ATOM      9  C6  <0> d           1.178  -0.670  -0.013  0.00  0.00     0.006 A 
ATOM     10  H1  <0> d          -0.927  -0.554   0.008  0.00  0.00     0.085 H 
ATOM     11  H2  <0> d          -0.957   1.929   0.017  0.00  0.00     0.087 H 
ATOM     12  H3  <0> d           5.517   0.702  -0.045  0.00  0.00     0.149 H 
ATOM     13  H4  <0> d           1.181  -1.750  -0.019  0.00  0.00     0.114 H 
ENDROOT
BRANCH   3  14
ATOM     14  N4  <0> d           1.166   3.485   0.010  0.00  0.00    -0.396 N 
ATOM     15  H5  <0> d           0.327   3.971   0.020  0.00  0.00     0.156 HD
ATOM     16  H6  <0> d           2.007   3.969   0.004  0.00  0.00     0.156 HD
ENDBRANCH   3  14
TORSDOF 1
