REMARK  5 active torsions:
REMARK  status: ('A' for Active; 'I' for Inactive)
REMARK    1  A    between atoms: C1_1  and  C2_2 
REMARK    2  A    between atoms: C2_2  and  C3_3 
REMARK    3  A    between atoms: C3_3  and  C4_4 
REMARK    4  A    between atoms: C4_4  and  C7_8 
REMARK    5  A    between atoms: C5_5  and  C6_6 
ROOT
ATOM      1  C3  <0> d           2.454   5.161   0.373  0.00  0.00    -0.045 C 
ATOM      2  H6  <0> d           3.360   5.585  -0.061  0.00  0.00     0.039 H 
ATOM      3  H7  <0> d           1.581   5.637  -0.073  0.00  0.00     0.039 H 
ENDROOT
BRANCH   1   4
ATOM      4  C2  <0> d           2.451   5.401   1.884  0.00  0.00    -0.065 C 
ATOM      5  H4  <0> d           1.546   4.977   2.317  0.00  0.00     0.032 H 
ATOM      6  H5  <0> d           3.325   4.925   2.329  0.00  0.00     0.032 H 
BRANCH   4   7
ATOM      7  C1  <0> d           2.493   6.905   2.161  0.00  0.00    -0.076 C 
ATOM      8  H1  <0> d           2.491   7.076   3.238  0.00  0.00     0.027 H 
ATOM      9  H2  <0> d           3.399   7.329   1.728  0.00  0.00     0.027 H 
ATOM     10  H3  <0> d           1.620   7.381   1.716  0.00  0.00     0.027 H 
ENDBRANCH   4   7
ENDBRANCH   1   4
BRANCH   1  11
ATOM     11  C4  <0> d           2.413   3.679   0.099  0.00  0.00    -0.077 C 
ATOM     12  C5  <0> d           1.248   3.077  -0.128  0.00  0.00    -0.008 C 
ATOM     13  H8  <0> d           0.344   3.662  -0.206  0.00  0.00     0.094 H 
BRANCH  12  14
ATOM     14  C6  <0> d           1.192   1.615  -0.271  0.00  0.00     0.198 C 
ATOM     15  O1  <0> d           2.219   0.966  -0.278  0.00  0.00    -0.644 OA
ATOM     16  O2  <0> d           0.002   0.995  -0.395  0.00  0.00    -0.644 OA
ENDBRANCH  12  14
BRANCH  11  17
ATOM     17  C7  <0> d           3.690   2.880   0.083  0.00  0.00    -0.054 C 
ATOM     18  H9  <0> d           3.803   2.394  -0.886  0.00  0.00     0.033 H 
ATOM     19  H10 <0> d           4.537   3.544   0.257  0.00  0.00     0.033 H 
ATOM     20  H11 <0> d           3.655   2.123   0.867  0.00  0.00     0.033 H 
ENDBRANCH  11  17
ENDBRANCH   1  11
TORSDOF 5
