REMARK  1 active torsions:
REMARK  status: ('A' for Active; 'I' for Inactive)
REMARK    1  A    between atoms: C6_6  and  N1_7 
ROOT
ATOM      1  C1  <0> d          -0.017   1.388   0.010  0.00  0.00    -0.057 A 
ATOM      2  C2  <0> d           1.162   2.097   0.002  0.00  0.00    -0.065 A 
ATOM      3  C3  <0> d           2.385   1.418  -0.013  0.00  0.00     0.040 A 
ATOM      4  C4  <0> d           2.396   0.019  -0.021  0.00  0.00    -0.023 A 
ATOM      5  C5  <0> d           1.218  -0.685  -0.013  0.00  0.00    -0.049 A 
ATOM      6  C6  <0> d           0.002  -0.004   0.002  0.00  0.00     0.026 A 
ATOM      7  C7  <0> d           3.846  -0.395  -0.037  0.00  0.00     0.020 A 
ATOM      8  N2  <0> d           4.627   0.847  -0.037  0.00  0.00    -0.353 N 
ATOM      9  C8  <0> d           3.779   1.891  -0.024  0.00  0.00     0.252 A 
ATOM     10  O1  <0> d           4.117   3.059  -0.021  0.00  0.00    -0.268 OA
ATOM     11  H1  <0> d          -0.960   1.913   0.026  0.00  0.00     0.086 H 
ATOM     12  H2  <0> d           1.144   3.177   0.008  0.00  0.00     0.085 H 
ATOM     13  H3  <0> d           1.233  -1.765  -0.019  0.00  0.00     0.087 H 
ATOM     14  H6  <0> d           4.078  -0.983   0.852  0.00  0.00     0.071 H 
ATOM     15  H7  <0> d           4.061  -0.973  -0.935  0.00  0.00     0.071 H 
ATOM     16  H8  <0> d           5.595   0.906  -0.046  0.00  0.00     0.163 HD
ENDROOT
BRANCH   6  17
ATOM     17  N1  <0> d          -1.193  -0.715   0.010  0.00  0.00    -0.399 N 
ATOM     18  H4  <0> d          -2.039  -0.242   0.021  0.00  0.00     0.156 HD
ATOM     19  H5  <0> d          -1.180  -1.685   0.005  0.00  0.00     0.156 HD
ENDBRANCH   6  17
TORSDOF 1
