REMARK  3 active torsions:
REMARK  status: ('A' for Active; 'I' for Inactive)
REMARK    1  A    between atoms: C1_1  and  S1_2 
REMARK    2  A    between atoms: S1_2  and  C2_3 
REMARK    3  A    between atoms: C5_6  and  O1_9 
ROOT
ATOM      1  C2  <0> d           1.177   2.087   0.002  0.00  0.00    -0.000 A 
ATOM      2  C3  <0> d          -0.017   1.377   0.010  0.00  0.00    -0.064 A 
ATOM      3  C4  <0> d           0.002  -0.004   0.002  0.00  0.00    -0.050 A 
ATOM      4  C5  <0> d           1.212  -0.682  -0.013  0.00  0.00     0.065 A 
ATOM      5  C6  <0> d           2.405   0.027  -0.020  0.00  0.00    -0.050 A 
ATOM      6  C7  <0> d           2.389   1.407  -0.013  0.00  0.00    -0.064 A 
ATOM      7  H4  <0> d          -0.959   1.904   0.017  0.00  0.00     0.085 H 
ATOM      8  H5  <0> d          -0.926  -0.556   0.008  0.00  0.00     0.087 H 
ATOM      9  H6  <0> d           3.347  -0.502  -0.031  0.00  0.00     0.087 H 
ATOM     10  H7  <0> d           3.317   1.959  -0.018  0.00  0.00     0.085 H 
ENDROOT
BRANCH   1  11
ATOM     11  S1  <0> d           1.155   3.849   0.012  0.00  0.00    -0.134 SA
BRANCH  11  12
ATOM     12  C1  <0> d           2.909   4.310  -0.002  0.00  0.00    -0.030 C 
ATOM     13  H1  <0> d           3.400   3.901   0.881  0.00  0.00     0.042 H 
ATOM     14  H2  <0> d           3.382   3.911  -0.899  0.00  0.00     0.042 H 
ATOM     15  H3  <0> d           2.999   5.396   0.003  0.00  0.00     0.042 H 
ENDBRANCH  11  12
ENDBRANCH   1  11
BRANCH   4  16
ATOM     16  O1  <0> d           1.230  -2.042  -0.021  0.00  0.00    -0.361 OA
ATOM     17  H8  <0> d           1.226  -2.430  -0.906  0.00  0.00     0.217 HD
ENDBRANCH   4  16
TORSDOF 3
