REMARK  1 active torsions:
REMARK  status: ('A' for Active; 'I' for Inactive)
REMARK    1  A    between atoms: N2_9  and  C8_10 
ROOT
ATOM      1  C8  <0> d           3.578   3.921  -0.011  0.00  0.00     0.079 C 
ATOM      2  C9  <0> d           4.032   3.734  -1.399  0.00  0.00     0.079 C 
ATOM      3  N3  <0> d           4.383   3.590  -2.469  0.00  0.00    -0.196 NA
ATOM      4  H6  <0> d           4.081   4.785   0.423  0.00  0.00     0.087 H 
ATOM      5  H7  <0> d           3.816   3.031   0.572  0.00  0.00     0.087 H 
ENDROOT
BRANCH   1   6
ATOM      6  N2  <0> d           2.130   4.141   0.003  0.00  0.00    -0.326 N 
ATOM      7  C4  <0> d           1.154   3.165   0.008  0.00  0.00     0.065 A 
ATOM      8  C3  <0> d           1.175   1.777   0.000  0.00  0.00    -0.055 A 
ATOM      9  C5  <0> d          -0.075   3.845   0.022  0.00  0.00     0.085 A 
ATOM     10  C2  <0> d          -0.013   1.076   0.008  0.00  0.00    -0.081 A 
ATOM     11  H3  <0> d           2.116   1.248  -0.011  0.00  0.00     0.087 H 
ATOM     12  C1  <0> d          -1.226   1.748   0.017  0.00  0.00    -0.081 A 
ATOM     13  H2  <0> d           0.002  -0.004   0.002  0.00  0.00     0.083 H 
ATOM     14  C6  <0> d          -1.266   3.114   0.030  0.00  0.00    -0.053 A 
ATOM     15  H1  <0> d          -2.149   1.187   0.019  0.00  0.00     0.083 H 
ATOM     16  H4  <0> d          -2.216   3.627   0.042  0.00  0.00     0.087 H 
ATOM     17  N1  <0> d           0.208   5.173   0.026  0.00  0.00    -0.242 NA
ATOM     18  C7  <0> d           1.497   5.345   0.015  0.00  0.00     0.068 A 
ATOM     19  H5  <0> d           1.994   6.305   0.015  0.00  0.00     0.143 H 
ENDBRANCH   1   6
TORSDOF 1
