REMARK  2 active torsions:
REMARK  status: ('A' for Active; 'I' for Inactive)
REMARK    1  A    between atoms: C1_1  and  C2_2 
REMARK    2  A    between atoms: C5_8  and  N3_10 
ROOT
ATOM      1  C2  <0> d           0.002  -0.004   0.002  0.00  0.00     0.105 A 
ATOM      2  N1  <0> d          -1.166  -0.676   0.004  0.00  0.00    -0.312 N 
ATOM      3  H1  <0> d          -2.004  -0.188   0.011  0.00  0.00     0.170 HD
ATOM      4  C3  <0> d          -1.175  -2.026  -0.004  0.00  0.00     0.250 A 
ATOM      5  O1  <0> d          -2.229  -2.641  -0.003  0.00  0.00    -0.268 OA
ATOM      6  C4  <0> d           0.050  -2.708  -0.013  0.00  0.00     0.026 A 
ATOM      7  C5  <0> d           1.218  -1.964  -0.015  0.00  0.00     0.128 A 
ATOM      8  N2  <0> d           1.150  -0.624  -0.012  0.00  0.00    -0.219 NA
ATOM      9  H5  <0> d           0.081  -3.787  -0.019  0.00  0.00     0.098 H 
ENDROOT
BRANCH   1  10
ATOM     10  C1  <0> d          -0.018   1.503   0.010  0.00  0.00    -0.021 C 
ATOM     11  H2  <0> d           1.004   1.880   0.003  0.00  0.00     0.037 H 
ATOM     12  H3  <0> d          -0.545   1.864  -0.873  0.00  0.00     0.037 H 
ATOM     13  H4  <0> d          -0.529   1.854   0.907  0.00  0.00     0.037 H 
ENDBRANCH   1  10
BRANCH   7  14
ATOM     14  N3  <0> d           2.444  -2.598  -0.023  0.00  0.00    -0.384 N 
ATOM     15  H6  <0> d           2.490  -3.567  -0.029  0.00  0.00     0.157 HD
ATOM     16  H7  <0> d           3.261  -2.074  -0.024  0.00  0.00     0.157 HD
ENDBRANCH   7  14
TORSDOF 2
