REMARK  0 active torsions:
REMARK  status: ('A' for Active; 'I' for Inactive)
ROOT
ATOM      1  C1  <0> d          -4.649   3.567  -0.640  0.00  0.00    -0.065 C 
ATOM      2  C2  <0> d          -3.402   4.450  -0.715  0.00  0.00    -0.062 C 
ATOM      3  C3  <0> d          -2.263   3.667  -1.375  0.00  0.00    -0.036 C 
ATOM      4  C4  <0> d          -1.969   2.412  -0.560  0.00  0.00     0.061 C 
ATOM      5  C5  <0> d          -3.210   1.532  -0.458  0.00  0.00    -0.036 C 
ATOM      6  C6  <0> d          -4.345   2.322   0.198  0.00  0.00    -0.062 C 
ATOM      7  C7  <0> d          -0.812   1.623  -1.201  0.00  0.00    -0.034 C 
ATOM      8  C8  <0> d          -0.013   1.086   0.008  0.00  0.00    -0.043 C 
ATOM      9  C9  <0> d          -0.788   1.610   1.237  0.00  0.00     0.021 C 
ATOM     10  O1  <0> d          -1.505   2.771   0.754  0.00  0.00    -0.380 OA
ATOM     11  H1  <0> d          -5.462   4.126  -0.177  0.00  0.00     0.033 H 
ATOM     12  H2  <0> d          -4.942   3.265  -1.645  0.00  0.00     0.033 H 
ATOM     13  H3  <0> d          -3.104   4.746   0.291  0.00  0.00     0.033 H 
ATOM     14  H4  <0> d          -3.621   5.339  -1.306  0.00  0.00     0.033 H 
ATOM     15  H5  <0> d          -1.370   4.291  -1.416  0.00  0.00     0.037 H 
ATOM     16  H6  <0> d          -2.555   3.384  -2.386  0.00  0.00     0.037 H 
ATOM     17  H7  <0> d          -3.515   1.218  -1.456  0.00  0.00     0.037 H 
ATOM     18  H8  <0> d          -2.983   0.653   0.145  0.00  0.00     0.037 H 
ATOM     19  H9  <0> d          -4.046   2.624   1.201  0.00  0.00     0.033 H 
ATOM     20  H10 <0> d          -5.237   1.698   0.256  0.00  0.00     0.033 H 
ATOM     21  H11 <0> d          -0.190   2.282  -1.808  0.00  0.00     0.037 H 
ATOM     22  H12 <0> d          -1.197   0.799  -1.802  0.00  0.00     0.037 H 
ATOM     23  H13 <0> d           0.002  -0.004   0.002  0.00  0.00     0.036 H 
ATOM     24  H14 <0> d           1.003   1.481   0.000  0.00  0.00     0.036 H 
ATOM     25  H15 <0> d          -1.488   0.854   1.595  0.00  0.00     0.074 H 
ATOM     26  H16 <0> d          -0.096   1.892   2.030  0.00  0.00     0.074 H 
ENDROOT
TORSDOF 0
