REMARK  0 active torsions:
REMARK  status: ('A' for Active; 'I' for Inactive)
ROOT
ATOM      1  C1  <0> d          -0.019   1.524   0.010  0.00  0.00    -0.065 C 
ATOM      2  C2  <0> d           1.428   2.033  -0.001  0.00  0.00    -0.065 C 
ATOM      3  C3  <0> d           2.003   1.835  -1.403  0.00  0.00    -0.061 C 
ATOM      4  C4  <0> d           1.867   0.384  -1.835  0.00  0.00    -0.050 A 
ATOM      5  H1  <0> d           2.023   0.210  -2.900  0.00  0.00     0.040 H 
ATOM      6  C5  <0> d           2.326  -0.731  -0.904  0.00  0.00    -0.058 A 
ATOM      7  C6  <0> d           0.849  -0.520  -1.157  0.00  0.00    -0.050 A 
ATOM      8  H2  <0> d           0.338  -1.253  -1.781  0.00  0.00     0.040 H 
ATOM      9  C7  <0> d           0.002  -0.004   0.002  0.00  0.00    -0.061 C 
ATOM     10  H3  <0> d          -0.524   1.879   0.909  0.00  0.00     0.033 H 
ATOM     11  H4  <0> d          -0.541   1.888  -0.874  0.00  0.00     0.033 H 
ATOM     12  H5  <0> d           1.445   3.092   0.256  0.00  0.00     0.033 H 
ATOM     13  H6  <0> d           2.019   1.469   0.720  0.00  0.00     0.033 H 
ATOM     14  H7  <0> d           1.465   2.472  -2.106  0.00  0.00     0.033 H 
ATOM     15  H8  <0> d           3.057   2.113  -1.402  0.00  0.00     0.033 H 
ATOM     16  H9  <0> d           2.799  -1.603  -1.357  0.00  0.00     0.034 H 
ATOM     17  H10 <0> d           2.708  -0.443   0.075  0.00  0.00     0.034 H 
ATOM     18  H11 <0> d           0.439  -0.365   0.933  0.00  0.00     0.033 H 
ATOM     19  H12 <0> d          -1.018  -0.379  -0.085  0.00  0.00     0.033 H 
ENDROOT
TORSDOF 0
