REMARK  3 active torsions:
REMARK  status: ('A' for Active; 'I' for Inactive)
REMARK    1  A    between atoms: C1_1  and  O1_2 
REMARK    2  A    between atoms: O1_2  and  C2_3 
REMARK    3  A    between atoms: C2_3  and  C3_5 
ROOT
ATOM      1  C3  <0> d          -1.244  -2.135   0.003  0.00  0.00     0.095 C 
ATOM      2  C4  <0> d          -2.650  -2.572   0.013  0.00  0.00     0.069 C 
ATOM      3  N1  <0> d          -3.735  -2.909   0.022  0.00  0.00    -0.197 NA
ATOM      4  H4  <0> d          -0.753  -2.514  -0.894  0.00  0.00     0.070 H 
ATOM      5  H5  <0> d          -0.736  -2.523   0.886  0.00  0.00     0.070 H 
ENDROOT
BRANCH   1   6
ATOM      6  C2  <0> d          -1.185  -0.630   0.010  0.00  0.00     0.271 C 
ATOM      7  O2  <0> d          -2.208   0.015   0.023  0.00  0.00    -0.264 OA
BRANCH   6   8
ATOM      8  O1  <0> d           0.002  -0.004   0.002  0.00  0.00    -0.326 OA
BRANCH   8   9
ATOM      9  C1  <0> d          -0.017   1.425   0.010  0.00  0.00     0.013 C 
ATOM     10  H1  <0> d           1.005   1.802   0.002  0.00  0.00     0.067 H 
ATOM     11  H2  <0> d          -0.544   1.786  -0.873  0.00  0.00     0.067 H 
ATOM     12  H3  <0> d          -0.527   1.776   0.907  0.00  0.00     0.067 H 
ENDBRANCH   8   9
ENDBRANCH   6   8
ENDBRANCH   1   6
TORSDOF 3
