REMARK  1 active torsions:
REMARK  status: ('A' for Active; 'I' for Inactive)
REMARK    1  A    between atoms: C1_1  and  C2_2 
ROOT
ATOM      1  C2  <0> d          -1.198   1.746   0.017  0.00  0.00    -0.061 A 
ATOM      2  C3  <0> d          -1.236   3.139   0.030  0.00  0.00    -0.076 A 
ATOM      3  C4  <0> d          -0.089   3.873   0.023  0.00  0.00    -0.070 A 
ATOM      4  C5  <0> d           1.152   3.218   0.008  0.00  0.00    -0.008 A 
ATOM      5  C6  <0> d           2.368   3.921  -0.000  0.00  0.00     0.013 A 
ATOM      6  N1  <0> d           3.503   3.264  -0.015  0.00  0.00    -0.272 NA
ATOM      7  C7  <0> d           3.566   1.939  -0.022  0.00  0.00     0.003 A 
ATOM      8  C8  <0> d           2.445   1.166  -0.015  0.00  0.00    -0.055 A 
ATOM      9  C9  <0> d           1.189   1.799   0.000  0.00  0.00    -0.023 A 
ATOM     10  C10 <0> d          -0.013   1.076   0.008  0.00  0.00    -0.066 A 
ATOM     11  H4  <0> d          -2.190   3.645   0.042  0.00  0.00     0.084 H 
ATOM     12  H5  <0> d          -0.134   4.953   0.028  0.00  0.00     0.084 H 
ATOM     13  H6  <0> d           2.368   5.001   0.005  0.00  0.00     0.116 H 
ATOM     14  H7  <0> d           4.534   1.460  -0.034  0.00  0.00     0.114 H 
ATOM     15  H8  <0> d           2.519   0.088  -0.021  0.00  0.00     0.087 H 
ATOM     16  H9  <0> d           0.002  -0.004   0.002  0.00  0.00     0.085 H 
ENDROOT
BRANCH   1  17
ATOM     17  C1  <0> d          -2.490   0.969   0.019  0.00  0.00    -0.051 C 
ATOM     18  H1  <0> d          -2.796   0.776   1.047  0.00  0.00     0.033 H 
ATOM     19  H2  <0> d          -3.262   1.548  -0.488  0.00  0.00     0.033 H 
ATOM     20  H3  <0> d          -2.345   0.022  -0.501  0.00  0.00     0.033 H 
ENDBRANCH   1  17
TORSDOF 1
