REMARK  4 active torsions:
REMARK  status: ('A' for Active; 'I' for Inactive)
REMARK    1  A    between atoms: C1_1  and  C2_2 
REMARK    2  A    between atoms: C2_2  and  C3_3 
REMARK    3  A    between atoms: C2_2  and  C4_4 
REMARK    4  A    between atoms: C4_4  and  C5_5 
ROOT
ATOM      1  C2  <0> d           0.002  -0.004   0.002  0.00  0.00    -0.055 C 
ATOM      2  H5  <0> d          -1.020  -0.381   0.010  0.00  0.00     0.039 H 
ENDROOT
BRANCH   1   3
ATOM      3  C1  <0> d          -0.019   1.526   0.010  0.00  0.00    -0.073 C 
ATOM      4  H2  <0> d           1.004   1.903   0.003  0.00  0.00     0.028 H 
ATOM      5  H3  <0> d          -0.546   1.887  -0.873  0.00  0.00     0.028 H 
ATOM      6  H4  <0> d          -0.529   1.877   0.907  0.00  0.00     0.028 H 
ENDBRANCH   1   3
BRANCH   1   7
ATOM      7  C3  <0> d           0.718  -0.497  -1.257  0.00  0.00    -0.073 C 
ATOM      8  H6  <0> d           1.741  -0.120  -1.264  0.00  0.00     0.028 H 
ATOM      9  H7  <0> d           0.733  -1.587  -1.263  0.00  0.00     0.028 H 
ATOM     10  H8  <0> d           0.191  -0.136  -2.140  0.00  0.00     0.028 H 
ENDBRANCH   1   7
BRANCH   1  11
ATOM     11  C4  <0> d           0.742  -0.511   1.242  0.00  0.00    -0.004 C 
ATOM     12  H9  <0> d           0.835  -1.596   1.191  0.00  0.00     0.045 H 
ATOM     13  H10 <0> d           1.735  -0.063   1.280  0.00  0.00     0.045 H 
BRANCH  11  14
ATOM     14  C5  <0> d          -0.030  -0.130   2.478  0.00  0.00     0.149 A 
ATOM     15  N3  <0> d          -0.975  -0.868   3.059  0.00  0.00    -0.202 NA
ATOM     16  C6  <0> d          -1.440  -0.244   4.113  0.00  0.00     0.219 A 
ATOM     17  N2  <0> d          -0.792   0.930   4.222  0.00  0.00    -0.249 N 
ATOM     18 Cl1  <0> d          -2.679  -0.828   5.180  0.00  0.00    -0.042 Cl
ATOM     19  N1  <0> d           0.116   0.981   3.151  0.00  0.00    -0.157 NA
ATOM     20  H1  <0> d          -0.926   1.607   4.903  0.00  0.00     0.191 HD
ENDBRANCH  11  14
ENDBRANCH   1  11
TORSDOF 4
