REMARK  4 active torsions:
REMARK  status: ('A' for Active; 'I' for Inactive)
REMARK    1  A    between atoms: C1_1  and  C2_2 
REMARK    2  A    between atoms: C2_2  and  C3_4 
REMARK    3  A    between atoms: C2_2  and  C5_8 
REMARK    4  A    between atoms: C3_4  and  C4_5 
ROOT
ATOM      1  C2  <0> d          -2.179   0.893  -1.445  0.00  0.00    -0.045 C 
ATOM      2  H1  <0> d          -2.673   0.247  -0.704  0.00  0.00     0.040 H 
ENDROOT
BRANCH   1   3
ATOM      3  C1  <0> d          -1.476   0.025  -2.490  0.00  0.00    -0.072 C 
ATOM      4  H2  <0> d          -0.723  -0.606  -1.996  0.00  0.00     0.028 H 
ATOM      5  H3  <0> d          -0.983   0.672  -3.232  0.00  0.00     0.028 H 
ATOM      6  H4  <0> d          -2.216  -0.613  -2.995  0.00  0.00     0.028 H 
ENDBRANCH   1   3
BRANCH   1   7
ATOM      7  C3  <0> d          -3.227   1.772  -2.132  0.00  0.00     0.019 C 
ATOM      8  H5  <0> d          -3.669   2.459  -1.396  0.00  0.00     0.049 H 
ATOM      9  H6  <0> d          -2.748   2.353  -2.935  0.00  0.00     0.049 H 
BRANCH   7  10
ATOM     10  C4  <0> d          -4.307   0.900  -2.720  0.00  0.00     0.172 C 
ATOM     11  O1  <0> d          -4.245  -0.300  -2.600  0.00  0.00    -0.648 OA
ATOM     12  O2  <0> d          -5.337   1.458  -3.375  0.00  0.00    -0.648 OA
ENDBRANCH   7  10
ENDBRANCH   1   7
BRANCH   1  13
ATOM     13  C5  <0> d          -1.150   1.781  -0.743  0.00  0.00    -0.051 A 
ATOM     14  C7  <0> d          -1.136   1.773   0.788  0.00  0.00    -0.061 A 
ATOM     15  C6  <0> d          -0.013   1.086   0.008  0.00  0.00    -0.061 A 
ATOM     16  H10 <0> d          -1.106   2.808   1.160  0.00  0.00     0.033 H 
ATOM     17  H11 <0> d          -2.043   1.275   1.161  0.00  0.00     0.033 H 
ATOM     18  H8  <0> d           0.008   0.020  -0.264  0.00  0.00     0.033 H 
ATOM     19  H9  <0> d           0.946   1.552  -0.264  0.00  0.00     0.033 H 
ATOM     20  H7  <0> d          -1.210   2.561  -1.516  0.00  0.00     0.040 H 
ENDBRANCH   1  13
TORSDOF 4
