REMARK  5 active torsions:
REMARK  status: ('A' for Active; 'I' for Inactive)
REMARK    1  A    between atoms: C1_1  and  C2_2 
REMARK    2  A    between atoms: C2_2  and  C3_3 
REMARK    3  A    between atoms: C2_2  and  C4_4 
REMARK    4  A    between atoms: C7_7  and  O1_11 
REMARK    5  A    between atoms: C9_9  and  N1_10 
ROOT
ATOM      1  C4  <0> d           3.751   2.666  -0.009  0.00  0.00    -0.028 A 
ATOM      2  C5  <0> d           3.131   2.367   1.189  0.00  0.00    -0.072 A 
ATOM      3  C6  <0> d           1.862   1.821   1.196  0.00  0.00    -0.050 A 
ATOM      4  C7  <0> d           1.210   1.560  -0.002  0.00  0.00     0.067 A 
ATOM      5  C8  <0> d           1.829   1.858  -1.206  0.00  0.00    -0.025 A 
ATOM      6  C9  <0> d           3.102   2.413  -1.210  0.00  0.00     0.035 A 
ATOM      7  H8  <0> d           3.638   2.565   2.122  0.00  0.00     0.084 H 
ATOM      8  H9  <0> d           1.379   1.592   2.134  0.00  0.00     0.087 H 
ATOM      9  H10 <0> d           1.321   1.661  -2.138  0.00  0.00     0.091 H 
ENDROOT
BRANCH   1  10
ATOM     10  C2  <0> d           5.133   3.267  -0.012  0.00  0.00    -0.033 C 
ATOM     11  H4  <0> d           5.420   3.514  -1.035  0.00  0.00     0.046 H 
BRANCH  10  12
ATOM     12  C1  <0> d           5.138   4.538   0.839  0.00  0.00    -0.069 C 
ATOM     13  H1  <0> d           4.429   5.256   0.426  0.00  0.00     0.028 H 
ATOM     14  H2  <0> d           4.852   4.292   1.862  0.00  0.00     0.028 H 
ATOM     15  H3  <0> d           6.138   4.973   0.837  0.00  0.00     0.028 H 
ENDBRANCH  10  12
BRANCH  10  16
ATOM     16  C3  <0> d           6.129   2.261   0.568  0.00  0.00    -0.069 C 
ATOM     17  H5  <0> d           6.125   1.355  -0.039  0.00  0.00     0.028 H 
ATOM     18  H6  <0> d           7.128   2.695   0.565  0.00  0.00     0.028 H 
ATOM     19  H7  <0> d           5.842   2.014   1.590  0.00  0.00     0.028 H 
ENDBRANCH  10  16
ENDBRANCH   1  10
BRANCH   6  20
ATOM     20  N1  <0> d           3.728   2.714  -2.422  0.00  0.00    -0.399 N 
ATOM     21  H11 <0> d           3.316   2.452  -3.260  0.00  0.00     0.156 HD
ATOM     22  H12 <0> d           4.576   3.186  -2.425  0.00  0.00     0.156 HD
ENDBRANCH   6  20
BRANCH   4  23
ATOM     23  O1  <0> d          -0.035   1.017   0.006  0.00  0.00    -0.361 OA
ATOM     24  H13 <0> d          -0.043   0.050  -0.011  0.00  0.00     0.217 HD
ENDBRANCH   4  23
TORSDOF 5
