REMARK  1 active torsions:
REMARK  status: ('A' for Active; 'I' for Inactive)
REMARK    1  A    between atoms: C1_1  and  C2_2 
ROOT
ATOM      1  C2  <0> d          -0.718   1.572   1.248  0.00  0.00     0.121 A 
ATOM      2  N1  <0> d          -2.021   1.772   1.204  0.00  0.00    -0.244 NA
ATOM      3  C3  <0> d          -2.680   2.193   2.269  0.00  0.00     0.026 A 
ATOM      4  C4  <0> d          -1.972   2.437   3.451  0.00  0.00     0.079 A 
ATOM      5  C5  <0> d          -0.589   2.215   3.450  0.00  0.00     0.026 A 
ATOM      6  N2  <0> d          -0.012   1.788   2.340  0.00  0.00    -0.244 NA
ATOM      7  C6  <0> d          -2.642   2.898   4.630  0.00  0.00     0.102 C 
ATOM      8  N3  <0> d          -3.174   3.265   5.564  0.00  0.00    -0.191 NA
ATOM      9  H4  <0> d          -3.748   2.351   2.226  0.00  0.00     0.117 H 
ATOM     10  H5  <0> d          -0.004   2.390   4.341  0.00  0.00     0.117 H 
ENDROOT
BRANCH   1  11
ATOM     11  C1  <0> d          -0.013   1.086   0.008  0.00  0.00    -0.020 C 
ATOM     12  H1  <0> d           0.002  -0.004   0.002  0.00  0.00     0.037 H 
ATOM     13  H2  <0> d           1.010   1.463   0.000  0.00  0.00     0.037 H 
ATOM     14  H3  <0> d          -0.540   1.447  -0.875  0.00  0.00     0.037 H 
ENDBRANCH   1  11
TORSDOF 1
