REMARK  3 active torsions:
REMARK  status: ('A' for Active; 'I' for Inactive)
REMARK    1  A    between atoms: C1_1  and  C2_2 
REMARK    2  A    between atoms: C5_5  and  N1_10 
REMARK    3  A    between atoms: C7_7  and  O1_8 
ROOT
ATOM      1  C2  <0> d           1.862   1.822   1.196  0.00  0.00    -0.027 A 
ATOM      2  C3  <0> d           3.120   2.396   1.188  0.00  0.00    -0.072 A 
ATOM      3  C4  <0> d           3.740   2.694  -0.009  0.00  0.00    -0.055 A 
ATOM      4  C5  <0> d           3.102   2.412  -1.212  0.00  0.00     0.050 A 
ATOM      5  C6  <0> d           1.841   1.830  -1.207  0.00  0.00     0.093 A 
ATOM      6  C7  <0> d           1.223   1.532  -0.001  0.00  0.00     0.095 A 
ATOM      7 Cl1  <0> d           1.041   1.476  -2.706  0.00  0.00    -0.079 Cl
ATOM      8  H4  <0> d           3.617   2.617   2.122  0.00  0.00     0.084 H 
ATOM      9  H5  <0> d           4.720   3.147  -0.012  0.00  0.00     0.087 H 
ENDROOT
BRANCH   1  10
ATOM     10  C1  <0> d           1.187   1.505   2.505  0.00  0.00    -0.049 C 
ATOM     11  H1  <0> d           1.455   0.496   2.817  0.00  0.00     0.033 H 
ATOM     12  H2  <0> d           1.512   2.218   3.263  0.00  0.00     0.033 H 
ATOM     13  H3  <0> d           0.106   1.573   2.382  0.00  0.00     0.033 H 
ENDBRANCH   1  10
BRANCH   6  14
ATOM     14  O1  <0> d          -0.011   0.963   0.007  0.00  0.00    -0.358 OA
ATOM     15  H6  <0> d           0.002  -0.004   0.002  0.00  0.00     0.217 HD
ENDBRANCH   6  14
BRANCH   4  16
ATOM     16  N1  <0> d           3.729   2.713  -2.424  0.00  0.00    -0.398 N 
ATOM     17  H7  <0> d           3.284   2.515  -3.262  0.00  0.00     0.156 HD
ATOM     18  H8  <0> d           4.610   3.119  -2.426  0.00  0.00     0.156 HD
ENDBRANCH   4  16
TORSDOF 3
