REMARK  5 active torsions:
REMARK  status: ('A' for Active; 'I' for Inactive)
REMARK    1  A    between atoms: C1_1  and  O1_2 
REMARK    2  A    between atoms: O1_2  and  C2_3 
REMARK    3  A    between atoms: C2_3  and  C3_5 
REMARK    4  A    between atoms: N2_8  and  C6_10 
REMARK    5  A    between atoms: C6_10  and  O3_11 
ROOT
ATOM      1  C3  <0> d          -1.137   1.878   0.017  0.00  0.00     0.075 A 
ATOM      2  C4  <0> d          -0.691   3.220   0.025  0.00  0.00     0.039 A 
ATOM      3  N1  <0> d           0.613   3.212   0.013  0.00  0.00    -0.182 NA
ATOM      4  N2  <0> d           1.058   1.885   0.002  0.00  0.00    -0.257 N 
ATOM      5  C5  <0> d          -0.013   1.076   0.008  0.00  0.00     0.018 A 
ATOM      6  H4  <0> d          -1.321   4.097   0.034  0.00  0.00     0.119 H 
ATOM      7  H5  <0> d           0.002  -0.004   0.002  0.00  0.00     0.116 H 
ENDROOT
BRANCH   1   8
ATOM      8  C2  <0> d          -2.537   1.422   0.020  0.00  0.00     0.295 C 
ATOM      9  O2  <0> d          -2.789   0.233   0.015  0.00  0.00    -0.259 OA
BRANCH   8  10
ATOM     10  O1  <0> d          -3.539   2.322   0.029  0.00  0.00    -0.322 OA
BRANCH  10  11
ATOM     11  C1  <0> d          -4.894   1.801   0.032  0.00  0.00     0.013 C 
ATOM     12  H1  <0> d          -5.603   2.629   0.040  0.00  0.00     0.067 H 
ATOM     13  H2  <0> d          -5.053   1.196  -0.861  0.00  0.00     0.067 H 
ATOM     14  H3  <0> d          -5.045   1.186   0.919  0.00  0.00     0.067 H 
ENDBRANCH  10  11
ENDBRANCH   8  10
ENDBRANCH   1   8
BRANCH   4  15
ATOM     15  C6  <0> d           2.458   1.452  -0.013  0.00  0.00     0.096 C 
ATOM     16  H6  <0> d           2.949   1.840  -0.905  0.00  0.00     0.109 H 
ATOM     17  H7  <0> d           2.965   1.831   0.874  0.00  0.00     0.109 H 
BRANCH  15  18
ATOM     18  O3  <0> d           2.515   0.024  -0.020  0.00  0.00    -0.380 OA
ATOM     19  H8  <0> d           3.413  -0.333  -0.030  0.00  0.00     0.211 HD
ENDBRANCH  15  18
ENDBRANCH   4  15
TORSDOF 5
