REMARK  3 active torsions:
REMARK  status: ('A' for Active; 'I' for Inactive)
REMARK    1  A    between atoms: C1_1  and  O1_2 
REMARK    2  A    between atoms: O1_2  and  C2_3 
REMARK    3  A    between atoms: C7_8  and  C8_9 
ROOT
ATOM      1  C8  <0> d          -1.989   2.447   3.520  0.00  0.00     0.041 C 
ATOM      2  C9  <0> d          -3.173   1.583   3.388  0.00  0.00     0.063 C 
ATOM      3  N1  <0> d          -4.087   0.916   3.285  0.00  0.00    -0.197 NA
ATOM      4  H8  <0> d          -2.063   3.026   4.441  0.00  0.00     0.062 H 
ATOM      5  H9  <0> d          -1.937   3.125   2.668  0.00  0.00     0.062 H 
ENDROOT
BRANCH   1   6
ATOM      6  C7  <0> d          -0.747   1.594   3.561  0.00  0.00    -0.012 A 
ATOM      7  C2  <0> d          -0.149   1.182   2.380  0.00  0.00     0.075 A 
ATOM      8  C3  <0> d           0.991   0.392   2.421  0.00  0.00    -0.050 A 
ATOM      9  C4  <0> d           1.534   0.027   3.637  0.00  0.00    -0.080 A 
ATOM     10  H4  <0> d           1.456   0.066   1.502  0.00  0.00     0.087 H 
ATOM     11  C5  <0> d           0.936   0.440   4.814  0.00  0.00    -0.082 A 
ATOM     12  H5  <0> d           2.423  -0.584   3.670  0.00  0.00     0.083 H 
ATOM     13  C6  <0> d          -0.203   1.222   4.776  0.00  0.00    -0.073 A 
ATOM     14  H6  <0> d           1.359   0.150   5.764  0.00  0.00     0.083 H 
ATOM     15  H7  <0> d          -0.669   1.543   5.696  0.00  0.00     0.084 H 
BRANCH   7  16
ATOM     16  O1  <0> d          -0.682   1.547   1.184  0.00  0.00    -0.355 OA
BRANCH  16  17
ATOM     17  C1  <0> d          -0.013   1.086   0.008  0.00  0.00     0.010 C 
ATOM     18  H1  <0> d           0.002  -0.004   0.002  0.00  0.00     0.066 H 
ATOM     19  H2  <0> d           1.010   1.463   0.000  0.00  0.00     0.066 H 
ATOM     20  H3  <0> d          -0.540   1.447  -0.875  0.00  0.00     0.066 H 
ENDBRANCH  16  17
ENDBRANCH   7  16
ENDBRANCH   1   6
TORSDOF 3
