REMARK  8 active torsions:
REMARK  status: ('A' for Active; 'I' for Inactive)
REMARK    1  A    between atoms: C1_1  and  C2_2 
REMARK    2  A    between atoms: C2_2  and  C3_3 
REMARK    3  A    between atoms: C2_2  and  C4_4 
REMARK    4  A    between atoms: C4_4  and  C5_5 
REMARK    5  A    between atoms: C5_5  and  C6_6 
REMARK    6  A    between atoms: C6_6  and  C7_7 
REMARK    7  A    between atoms: C7_7  and  C8_8 
REMARK    8  A    between atoms: C8_8  and  O1_9 
ROOT
ATOM      1  C5  <0> d           2.393   5.250   0.007  0.00  0.00    -0.065 C 
ATOM      2  H10 <0> d           1.839   5.569  -0.876  0.00  0.00     0.033 H 
ATOM      3  H11 <0> d           1.856   5.559   0.904  0.00  0.00     0.033 H 
ENDROOT
BRANCH   1   4
ATOM      4  C4  <0> d           3.782   5.891  -0.002  0.00  0.00    -0.062 C 
ATOM      5  H8  <0> d           4.335   5.572   0.881  0.00  0.00     0.033 H 
ATOM      6  H9  <0> d           4.318   5.582  -0.899  0.00  0.00     0.033 H 
BRANCH   4   7
ATOM      7  C2  <0> d           3.640   7.415   0.007  0.00  0.00    -0.061 C 
ATOM      8  H4  <0> d           3.012   7.726  -0.827  0.00  0.00     0.038 H 
BRANCH   7   9
ATOM      9  C1  <0> d           2.998   7.859   1.323  0.00  0.00    -0.073 C 
ATOM     10  H1  <0> d           2.898   8.944   1.330  0.00  0.00     0.028 H 
ATOM     11  H2  <0> d           2.014   7.402   1.420  0.00  0.00     0.028 H 
ATOM     12  H3  <0> d           3.627   7.547   2.157  0.00  0.00     0.028 H 
ENDBRANCH   7   9
BRANCH   7  13
ATOM     13  C3  <0> d           5.022   8.056  -0.128  0.00  0.00    -0.073 C 
ATOM     14  H5  <0> d           5.480   7.739  -1.066  0.00  0.00     0.028 H 
ATOM     15  H6  <0> d           4.922   9.141  -0.122  0.00  0.00     0.028 H 
ATOM     16  H7  <0> d           5.651   7.744   0.706  0.00  0.00     0.028 H 
ENDBRANCH   7  13
ENDBRANCH   4   7
ENDBRANCH   1   4
BRANCH   1  17
ATOM     17  C6  <0> d           2.534   3.726  -0.002  0.00  0.00    -0.063 C 
ATOM     18  H12 <0> d           3.088   3.407   0.881  0.00  0.00     0.033 H 
ATOM     19  H13 <0> d           3.071   3.417  -0.899  0.00  0.00     0.033 H 
BRANCH  17  20
ATOM     20  C7  <0> d           1.145   3.085   0.008  0.00  0.00    -0.045 C 
ATOM     21  H14 <0> d           0.591   3.404  -0.875  0.00  0.00     0.036 H 
ATOM     22  H15 <0> d           0.608   3.395   0.904  0.00  0.00     0.036 H 
BRANCH  20  23
ATOM     23  C8  <0> d           1.286   1.562  -0.002  0.00  0.00     0.017 C 
ATOM     24  H16 <0> d           1.840   1.243   0.881  0.00  0.00     0.073 H 
ATOM     25  H17 <0> d           1.823   1.252  -0.899  0.00  0.00     0.073 H 
BRANCH  23  26
ATOM     26  O1  <0> d          -0.011   0.963   0.007  0.00  0.00    -0.401 OA
ATOM     27  H18 <0> d           0.002  -0.004   0.002  0.00  0.00     0.209 HD
ENDBRANCH  23  26
ENDBRANCH  20  23
ENDBRANCH  17  20
ENDBRANCH   1  17
TORSDOF 8
