REMARK  4 active torsions:
REMARK  status: ('A' for Active; 'I' for Inactive)
REMARK    1  A    between atoms: C1_1  and  C2_2 
REMARK    2  A    between atoms: C2_2  and  O2_10 
REMARK    3  A    between atoms: C3_3  and  C6_8 
REMARK    4  A    between atoms: C3_3  and  C7_9 
ROOT
ATOM      1  C2  <0> d           0.002  -0.004   0.002  0.00  0.00     0.137 C 
ATOM      2  C3  <0> d           0.776  -0.521  -1.231  0.00  0.00     0.010 C 
ATOM      3  C4  <0> d           1.472  -1.779  -0.661  0.00  0.00     0.020 C 
ATOM      4  C5  <0> d           1.567  -1.510   0.825  0.00  0.00     0.220 C 
ATOM      5  O1  <0> d           2.287  -2.110   1.595  0.00  0.00    -0.274 OA
ATOM      6  N1  <0> d           0.739  -0.508   1.167  0.00  0.00    -0.329 N 
ATOM      7  H4  <0> d           0.868  -2.667  -0.849  0.00  0.00     0.048 H 
ATOM      8  H5  <0> d           2.466  -1.894  -1.093  0.00  0.00     0.048 H 
ATOM      9  H6  <0> d           0.640  -0.163   2.068  0.00  0.00     0.165 HD
ENDROOT
BRANCH   2  10
ATOM     10  C6  <0> d          -0.183  -0.892  -2.364  0.00  0.00    -0.065 C 
ATOM     11  H7  <0> d          -0.757  -0.013  -2.655  0.00  0.00     0.028 H 
ATOM     12  H8  <0> d           0.388  -1.253  -3.219  0.00  0.00     0.028 H 
ATOM     13  H9  <0> d          -0.862  -1.674  -2.024  0.00  0.00     0.028 H 
ENDBRANCH   2  10
BRANCH   2  14
ATOM     14  C7  <0> d           1.806   0.507  -1.702  0.00  0.00    -0.065 C 
ATOM     15  H10 <0> d           2.517   0.704  -0.899  0.00  0.00     0.028 H 
ATOM     16  H11 <0> d           2.337   0.118  -2.571  0.00  0.00     0.028 H 
ATOM     17  H12 <0> d           1.297   1.433  -1.972  0.00  0.00     0.028 H 
ENDBRANCH   2  14
BRANCH   1  18
ATOM     18  C1  <0> d          -0.019   1.526   0.010  0.00  0.00    -0.030 C 
ATOM     19  H1  <0> d           1.004   1.903   0.003  0.00  0.00     0.034 H 
ATOM     20  H2  <0> d          -0.546   1.887  -0.873  0.00  0.00     0.034 H 
ATOM     21  H3  <0> d          -0.529   1.877   0.907  0.00  0.00     0.034 H 
ENDBRANCH   1  18
BRANCH   1  22
ATOM     22  O2  <0> d          -1.332  -0.516   0.001  0.00  0.00    -0.370 OA
ATOM     23  H13 <0> d          -1.860  -0.240   0.763  0.00  0.00     0.212 HD
ENDBRANCH   1  22
TORSDOF 4
