REMARK  2 active torsions:
REMARK  status: ('A' for Active; 'I' for Inactive)
REMARK    1  A    between atoms: C1_1  and  C2_2 
REMARK    2  A    between atoms: C4_5  and  O3_11 
ROOT
ATOM      1  C2  <0> d          -0.019   1.526   0.010  0.00  0.00     0.047 C 
ATOM      2  H1  <0> d           1.004   1.904   0.003  0.00  0.00     0.083 H 
ATOM      3  C3  <0> d          -0.762   2.034  -1.228  0.00  0.00    -0.016 C 
ATOM      4  C4  <0> d          -0.828   3.564  -1.188  0.00  0.00     0.046 C 
ATOM      5  H2  <0> d           0.183   3.972  -1.177  0.00  0.00     0.083 H 
ATOM      6  C5  <0> d          -1.571   3.999   0.081  0.00  0.00     0.040 C 
ATOM      7  C6  <0> d          -0.920   3.326   1.269  0.00  0.00     0.261 C 
ATOM      8  O1  <0> d          -0.604   3.962   2.247  0.00  0.00    -0.265 OA
ATOM      9  O2  <0> d          -0.702   1.996   1.206  0.00  0.00    -0.316 OA
ATOM     10  H6  <0> d          -0.232   1.715  -2.126  0.00  0.00     0.040 H 
ATOM     11  H7  <0> d          -1.773   1.627  -1.238  0.00  0.00     0.040 H 
ATOM     12  H8  <0> d          -2.616   3.698   0.016  0.00  0.00     0.051 H 
ATOM     13  H9  <0> d          -1.507   5.082   0.191  0.00  0.00     0.051 H 
ENDROOT
BRANCH   1  14
ATOM     14  C1  <0> d           0.002  -0.004   0.002  0.00  0.00    -0.051 C 
ATOM     15  H3  <0> d          -1.020  -0.381   0.010  0.00  0.00     0.030 H 
ATOM     16  H4  <0> d           0.512  -0.356  -0.895  0.00  0.00     0.030 H 
ATOM     17  H5  <0> d           0.529  -0.365   0.885  0.00  0.00     0.030 H 
ENDBRANCH   1  14
BRANCH   4  18
ATOM     18  O3  <0> d          -1.525   4.045  -2.339  0.00  0.00    -0.395 OA
ATOM     19  H10 <0> d          -1.609   5.008  -2.374  0.00  0.00     0.210 HD
ENDBRANCH   4  18
TORSDOF 2
