REMARK  5 active torsions:
REMARK  status: ('A' for Active; 'I' for Inactive)
REMARK    1  A    between atoms: C4_4  and  C6_6 
REMARK    2  A    between atoms: C6_6  and  O1_7 
REMARK    3  A    between atoms: O1_7  and  C7_8 
REMARK    4  A    between atoms: C7_8  and  C8_9 
REMARK    5  A    between atoms: C8_9  and  O2_10 
ROOT
ATOM      1  C1  <0> d          -0.019   1.534   0.011  0.00  0.00    -0.065 C 
ATOM      2  C2  <0> d           1.453   1.995  -0.001  0.00  0.00    -0.065 C 
ATOM      3  C3  <0> d           2.232   0.792   0.586  0.00  0.00    -0.060 C 
ATOM      4  C4  <0> d           1.486  -0.425  -0.014  0.00  0.00    -0.033 C 
ATOM      5  C5  <0> d           0.002  -0.004   0.002  0.00  0.00    -0.060 C 
ATOM      6  H1  <0> d          -0.516   1.896   0.910  0.00  0.00     0.033 H 
ATOM      7  H2  <0> d          -0.533   1.906  -0.876  0.00  0.00     0.033 H 
ATOM      8  H3  <0> d           1.781   2.201  -1.020  0.00  0.00     0.033 H 
ATOM      9  H4  <0> d           1.582   2.877   0.627  0.00  0.00     0.033 H 
ATOM     10  H5  <0> d           3.272   0.808   0.259  0.00  0.00     0.033 H 
ATOM     11  H6  <0> d           2.169   0.786   1.675  0.00  0.00     0.033 H 
ATOM     12  H7  <0> d           1.819  -0.610  -1.036  0.00  0.00     0.043 H 
ATOM     13  H8  <0> d          -0.485  -0.389   0.898  0.00  0.00     0.033 H 
ATOM     14  H9  <0> d          -0.502  -0.379  -0.888  0.00  0.00     0.033 H 
ENDROOT
BRANCH   4  15
ATOM     15  C6  <0> d           1.701  -1.666   0.854  0.00  0.00     0.023 C 
ATOM     16  H10 <0> d           2.769  -1.842   0.979  0.00  0.00     0.074 H 
ATOM     17  H11 <0> d           1.242  -1.511   1.830  0.00  0.00     0.074 H 
BRANCH  15  18
ATOM     18  O1  <0> d           1.102  -2.799   0.221  0.00  0.00    -0.389 OA
BRANCH  18  19
ATOM     19  C7  <0> d           1.246  -4.017   0.953  0.00  0.00     0.039 C 
ATOM     20  H12 <0> d           2.305  -4.242   1.080  0.00  0.00     0.077 H 
ATOM     21  H13 <0> d           0.777  -3.911   1.932  0.00  0.00     0.077 H 
BRANCH  19  22
ATOM     22  C8  <0> d           0.571  -5.156   0.186  0.00  0.00     0.036 C 
ATOM     23  H14 <0> d           0.603  -6.067   0.785  0.00  0.00     0.077 H 
ATOM     24  H15 <0> d          -0.466  -4.892  -0.018  0.00  0.00     0.077 H 
BRANCH  22  25
ATOM     25  O2  <0> d           1.260  -5.373  -1.047  0.00  0.00    -0.399 OA
ATOM     26  H16 <0> d           0.885  -6.083  -1.587  0.00  0.00     0.209 HD
ENDBRANCH  22  25
ENDBRANCH  19  22
ENDBRANCH  18  19
ENDBRANCH  15  18
ENDBRANCH   4  15
TORSDOF 5
