REMARK  1 active torsions:
REMARK  status: ('A' for Active; 'I' for Inactive)
REMARK    1  A    between atoms: C4_5  and  C8_12 
ROOT
ATOM      1  C1  <0> d           0.002  -0.004   0.002  0.00  0.00    -0.051 C 
ATOM      2  C2  <0> d          -0.019   1.566   0.011  0.00  0.00    -0.046 C 
ATOM      3  H1  <0> d          -0.612   2.047  -0.768  0.00  0.00     0.040 H 
ATOM      4  C3  <0> d           1.510   1.874  -0.002  0.00  0.00    -0.048 C 
ATOM      5  C4  <0> d           2.140   0.734   0.830  0.00  0.00     0.041 C 
ATOM      6  H2  <0> d           2.839   0.160   0.221  0.00  0.00     0.057 H 
ATOM      7  C5  <0> d           0.933  -0.155   1.256  0.00  0.00     0.017 C 
ATOM      8  H3  <0> d           1.089  -1.126   1.440  0.00  0.00     0.053 H 
ATOM      9  C6  <0> d           0.162   0.678   2.290  0.00  0.00     0.132 C 
ATOM     10  O1  <0> d           0.078   0.477   3.478  0.00  0.00    -0.298 OA
ATOM     11  C7  <0> d          -0.453   1.829   1.486  0.00  0.00    -0.006 C 
ATOM     12  H4  <0> d          -0.988  -0.428   0.172  0.00  0.00     0.034 H 
ATOM     13  H5  <0> d           0.464  -0.403  -0.901  0.00  0.00     0.034 H 
ATOM     14  H6  <0> d           1.893   1.857  -1.023  0.00  0.00     0.035 H 
ATOM     15  H7  <0> d           1.708   2.839   0.464  0.00  0.00     0.035 H 
ATOM     16  H8  <0> d          -0.114   2.723   1.778  0.00  0.00     0.044 H 
ATOM     17  H9  <0> d          -1.539   1.800   1.572  0.00  0.00     0.044 H 
ENDROOT
BRANCH   5  18
ATOM     18  C8  <0> d           2.838   1.290   2.044  0.00  0.00     0.177 C 
ATOM     19  O2  <0> d           2.434   1.020   3.150  0.00  0.00    -0.648 OA
ATOM     20  O3  <0> d           3.910   2.085   1.897  0.00  0.00    -0.648 OA
ENDBRANCH   5  18
TORSDOF 1
