REMARK  0 active torsions:
REMARK  status: ('A' for Active; 'I' for Inactive)
ROOT
ATOM      1  C1  <0> d           1.193   2.068   0.002  0.00  0.00    -0.064 A 
ATOM      2  C2  <0> d          -0.017   1.396   0.010  0.00  0.00    -0.058 A 
ATOM      3  C3  <0> d           0.002  -0.004   0.002  0.00  0.00     0.085 A 
ATOM      4  C4  <0> d           1.236  -0.662  -0.013  0.00  0.00     0.146 A 
ATOM      5  N1  <0> d           2.360   0.025  -0.020  0.00  0.00    -0.247 NA
ATOM      6  C5  <0> d           2.371   1.344  -0.013  0.00  0.00     0.004 A 
ATOM      7 Cl1  <0> d           1.286  -2.397  -0.023  0.00  0.00    -0.061 Cl
ATOM      8  C6  <0> d          -1.221  -0.749   0.010  0.00  0.00     0.102 C 
ATOM      9  N2  <0> d          -2.191  -1.340   0.017  0.00  0.00    -0.191 NA
ATOM     10  H1  <0> d           1.216   3.148   0.007  0.00  0.00     0.085 H 
ATOM     11  H2  <0> d          -0.952   1.937   0.017  0.00  0.00     0.086 H 
ATOM     12  H3  <0> d           3.315   1.868  -0.019  0.00  0.00     0.114 H 
ENDROOT
TORSDOF 0
