REMARK  4 active torsions:
REMARK  status: ('A' for Active; 'I' for Inactive)
REMARK    1  A    between atoms: C1_1  and  C2_2 
REMARK    2  A    between atoms: C2_2  and  C3_3 
REMARK    3  A    between atoms: C2_2  and  C4_4 
REMARK    4  A    between atoms: C2_2  and  C8_9 
ROOT
ATOM      1  C2  <0> d           0.002  -0.004   0.002  0.00  0.00     0.090 C 
ENDROOT
BRANCH   1   2
ATOM      2  C1  <0> d          -0.019   1.526   0.010  0.00  0.00    -0.054 C 
ATOM      3  H1  <0> d           1.004   1.903   0.003  0.00  0.00     0.029 H 
ATOM      4  H2  <0> d          -0.546   1.887  -0.873  0.00  0.00     0.029 H 
ATOM      5  H3  <0> d          -0.529   1.877   0.907  0.00  0.00     0.029 H 
ENDBRANCH   1   2
BRANCH   1   6
ATOM      6  C3  <0> d           0.742  -0.511   1.242  0.00  0.00    -0.054 C 
ATOM      7  H4  <0> d           0.232  -0.159   2.138  0.00  0.00     0.029 H 
ATOM      8  H5  <0> d           0.757  -1.601   1.236  0.00  0.00     0.029 H 
ATOM      9  H6  <0> d           1.765  -0.134   1.234  0.00  0.00     0.029 H 
ENDBRANCH   1   6
BRANCH   1  10
ATOM     10  C4  <0> d          -1.412  -0.526   0.013  0.00  0.00     0.071 A 
ATOM     11  O1  <0> d          -2.526   0.225   0.028  0.00  0.00    -0.326 OA
ATOM     12  C7  <0> d          -3.604  -0.576   0.030  0.00  0.00     0.019 A 
ATOM     13  C6  <0> d          -3.186  -1.854   0.026  0.00  0.00    -0.059 A 
ATOM     14  H9  <0> d          -4.633  -0.248   0.038  0.00  0.00     0.123 H 
ATOM     15  C5  <0> d          -1.772  -1.822   0.015  0.00  0.00    -0.051 A 
ATOM     16  H8  <0> d          -3.809  -2.736   0.029  0.00  0.00     0.086 H 
ATOM     17  H7  <0> d          -1.109  -2.674   0.008  0.00  0.00     0.087 H 
ENDBRANCH   1  10
BRANCH   1  18
ATOM     18  C8  <0> d           0.707  -0.490  -1.238  0.00  0.00     0.188 C 
ATOM     19  O2  <0> d           1.314  -1.547  -1.219  0.00  0.00    -0.647 OA
ATOM     20  O3  <0> d           0.671   0.174  -2.260  0.00  0.00    -0.647 OA
ENDBRANCH   1  18
TORSDOF 4
