REMARK  5 active torsions:
REMARK  status: ('A' for Active; 'I' for Inactive)
REMARK    1  A    between atoms: C1_1  and  C2_2 
REMARK    2  A    between atoms: C2_2  and  C3_3 
REMARK    3  A    between atoms: C2_2  and  C4_4 
REMARK    4  A    between atoms: C4_4  and  C5_5 
REMARK    5  A    between atoms: C5_5  and  C6_6 
ROOT
ATOM      1  C5  <0> d          -0.866   3.543   1.217  0.00  0.00    -0.053 C 
ATOM      2  H11 <0> d           0.126   3.991   1.164  0.00  0.00     0.034 H 
ATOM      3  H12 <0> d          -1.441   3.828   0.337  0.00  0.00     0.034 H 
ENDROOT
BRANCH   1   4
ATOM      4  C4  <0> d          -0.735   2.019   1.269  0.00  0.00    -0.062 C 
ATOM      5  H9  <0> d          -1.727   1.571   1.322  0.00  0.00     0.033 H 
ATOM      6  H10 <0> d          -0.160   1.734   2.150  0.00  0.00     0.033 H 
BRANCH   4   7
ATOM      7  C2  <0> d          -0.019   1.526   0.010  0.00  0.00    -0.061 C 
ATOM      8  H5  <0> d          -0.546   1.887  -0.873  0.00  0.00     0.038 H 
BRANCH   7   9
ATOM      9  C1  <0> d           0.002  -0.004   0.002  0.00  0.00    -0.073 C 
ATOM     10  H2  <0> d           0.529  -0.365   0.885  0.00  0.00     0.028 H 
ATOM     11  H3  <0> d          -1.020  -0.381   0.010  0.00  0.00     0.028 H 
ATOM     12  H4  <0> d           0.512  -0.356  -0.895  0.00  0.00     0.028 H 
ENDBRANCH   7   9
BRANCH   7  13
ATOM     13  C3  <0> d           1.417   2.055  -0.000  0.00  0.00    -0.073 C 
ATOM     14  H6  <0> d           1.927   1.704  -0.897  0.00  0.00     0.028 H 
ATOM     15  H7  <0> d           1.402   3.145   0.006  0.00  0.00     0.028 H 
ATOM     16  H8  <0> d           1.944   1.694   0.883  0.00  0.00     0.028 H 
ENDBRANCH   7  13
ENDBRANCH   4   7
ENDBRANCH   1   4
BRANCH   1  17
ATOM     17  C6  <0> d          -1.582   4.036   2.476  0.00  0.00     0.032 C 
ATOM     18  H1  <0> d          -2.535   3.520   2.597  0.00  0.00     0.055 H 
ATOM     19  C9  <0> d          -0.711   3.824   3.695  0.00  0.00     0.263 C 
ATOM     20  O1  <0> d          -0.400   5.012   4.240  0.00  0.00    -0.321 OA
ATOM     21  O2  <0> d          -0.350   2.750   4.113  0.00  0.00    -0.265 OA
ATOM     22  C8  <0> d          -1.362   6.021   3.814  0.00  0.00     0.030 C 
ATOM     23  C7  <0> d          -1.803   5.564   2.405  0.00  0.00    -0.033 C 
ATOM     24  H15 <0> d          -0.888   7.002   3.765  0.00  0.00     0.075 H 
ATOM     25  H16 <0> d          -2.215   6.044   4.492  0.00  0.00     0.075 H 
ATOM     26  H13 <0> d          -1.173   6.012   1.637  0.00  0.00     0.037 H 
ATOM     27  H14 <0> d          -2.853   5.796   2.233  0.00  0.00     0.037 H 
ENDBRANCH   1  17
TORSDOF 5
