REMARK  4 active torsions:
REMARK  status: ('A' for Active; 'I' for Inactive)
REMARK    1  A    between atoms: C1_1  and  C2_2 
REMARK    2  A    between atoms: C2_2  and  C3_3 
REMARK    3  A    between atoms: C3_3  and  O1_4 
REMARK    4  A    between atoms: O1_4  and  C4_5 
ROOT
ATOM      1  C4  <0> d          -0.068  -3.333  -1.135  0.00  0.00     0.070 A 
ATOM      2  C5  <0> d          -0.162  -3.986   0.087  0.00  0.00    -0.051 A 
ATOM      3  C6  <0> d          -0.249  -5.364   0.128  0.00  0.00    -0.080 A 
ATOM      4  C7  <0> d          -0.243  -6.093  -1.048  0.00  0.00    -0.083 A 
ATOM      5  C8  <0> d          -0.149  -5.446  -2.267  0.00  0.00    -0.080 A 
ATOM      6  C9  <0> d          -0.067  -4.069  -2.314  0.00  0.00    -0.051 A 
ATOM      7  H4  <0> d          -0.167  -3.418   1.006  0.00  0.00     0.087 H 
ATOM      8  H5  <0> d          -0.323  -5.872   1.077  0.00  0.00     0.083 H 
ATOM      9  H6  <0> d          -0.311  -7.171  -1.014  0.00  0.00     0.083 H 
ATOM     10  H7  <0> d          -0.144  -6.019  -3.182  0.00  0.00     0.083 H 
ATOM     11  H8  <0> d           0.002  -3.564  -3.267  0.00  0.00     0.087 H 
ENDROOT
BRANCH   1  12
ATOM     12  O1  <0> d           0.018  -1.980  -1.178  0.00  0.00    -0.331 OA
BRANCH  12  13
ATOM     13  C3  <0> d          -0.011  -1.381  -2.388  0.00  0.00     0.127 C 
ATOM     14  H3  <0> d          -0.018  -1.979  -3.287  0.00  0.00     0.108 H 
BRANCH  13  15
ATOM     15  C2  <0> d          -0.031  -0.076  -2.471  0.00  0.00    -0.147 C 
BRANCH  15  16
ATOM     16  C1  <0> d          -0.051   1.228  -2.554  0.00  0.00    -0.009 C 
ATOM     17  H1  <0> d          -0.994   1.753  -2.573  0.00  0.00     0.051 H 
ATOM     18  H2  <0> d           0.876   1.780  -2.600  0.00  0.00     0.051 H 
ENDBRANCH  15  16
ENDBRANCH  13  15
ENDBRANCH  12  13
ENDBRANCH   1  12
TORSDOF 4
