REMARK  2 active torsions:
REMARK  status: ('A' for Active; 'I' for Inactive)
REMARK    1  A    between atoms: C1_1  and  C2_2 
REMARK    2  A    between atoms: C7_7  and  C8_8 
ROOT
ATOM      1  C8  <0> d           0.025  -0.004   2.452  0.00  0.00    -0.077 C 
ATOM      2  C9  <0> d           0.027   0.575   3.474  0.00  0.00    -0.149 C 
ATOM      3  H7  <0> d           0.029   1.092   4.387  0.00  0.00     0.166 H 
ENDROOT
BRANCH   1   4
ATOM      4  C7  <0> d           0.023  -0.709   1.206  0.00  0.00     0.025 A 
ATOM      5  C2  <0> d           0.002  -0.004   0.002  0.00  0.00    -0.043 A 
ATOM      6  C3  <0> d           0.006  -0.689  -1.196  0.00  0.00    -0.073 A 
ATOM      7  C4  <0> d           0.025  -2.071  -1.207  0.00  0.00    -0.045 A 
ATOM      8  H4  <0> d          -0.006  -0.143  -2.128  0.00  0.00     0.084 H 
ATOM      9  C5  <0> d           0.040  -2.779  -0.015  0.00  0.00     0.117 A 
ATOM     10  H5  <0> d           0.027  -2.602  -2.147  0.00  0.00     0.088 H 
ATOM     11  C6  <0> d           0.036  -2.104   1.191  0.00  0.00    -0.027 A 
ATOM     12  F1  <0> d           0.058  -4.129  -0.033  0.00  0.00    -0.206 F 
ATOM     13  H6  <0> d           0.048  -2.655   2.119  0.00  0.00     0.090 H 
BRANCH   5  14
ATOM     14  C1  <0> d          -0.018   1.503   0.010  0.00  0.00    -0.050 C 
ATOM     15  H1  <0> d           1.004   1.880   0.003  0.00  0.00     0.033 H 
ATOM     16  H2  <0> d          -0.545   1.864  -0.873  0.00  0.00     0.033 H 
ATOM     17  H3  <0> d          -0.529   1.854   0.907  0.00  0.00     0.033 H 
ENDBRANCH   5  14
ENDBRANCH   1   4
TORSDOF 2
