REMARK  3 active torsions:
REMARK  status: ('A' for Active; 'I' for Inactive)
REMARK    1  A    between atoms: C1_1  and  N1_2 
REMARK    2  A    between atoms: N1_2  and  C2_3 
REMARK    3  A    between atoms: C6_7  and  C8_9 
ROOT
ATOM      1  C2  <0> d           3.661   2.004  -0.023  0.00  0.00     0.028 A 
ATOM      2  C3  <0> d           3.633   3.394  -0.015  0.00  0.00    -0.058 A 
ATOM      3  C4  <0> d           2.426   4.067   0.000  0.00  0.00    -0.080 A 
ATOM      4  C5  <0> d           1.239   3.363   0.003  0.00  0.00    -0.066 A 
ATOM      5  C6  <0> d           1.255   1.967   0.001  0.00  0.00     0.043 A 
ATOM      6  C7  <0> d           2.474   1.288  -0.015  0.00  0.00    -0.041 A 
ATOM      7  H5  <0> d           4.559   3.951  -0.022  0.00  0.00     0.086 H 
ATOM      8  H6  <0> d           2.411   5.146   0.006  0.00  0.00     0.083 H 
ATOM      9  H7  <0> d           0.297   3.892   0.010  0.00  0.00     0.085 H 
ATOM     10  H8  <0> d           2.493   0.208  -0.020  0.00  0.00     0.088 H 
ENDROOT
BRANCH   1  11
ATOM     11  N1  <0> d           4.884   1.330  -0.038  0.00  0.00    -0.394 N 
ATOM     12  H4  <0> d           4.903   0.360  -0.044  0.00  0.00     0.159 HD
BRANCH  11  13
ATOM     13  C1  <0> d           6.138   2.087  -0.047  0.00  0.00    -0.021 C 
ATOM     14  H1  <0> d           6.175   2.720  -0.934  0.00  0.00     0.056 H 
ATOM     15  H2  <0> d           6.192   2.710   0.846  0.00  0.00     0.056 H 
ATOM     16  H3  <0> d           6.980   1.395  -0.059  0.00  0.00     0.056 H 
ENDBRANCH  11  13
ENDBRANCH   1  11
BRANCH   5  17
ATOM     17  C8  <0> d          -0.014   1.210   0.009  0.00  0.00     0.209 C 
ATOM     18  O1  <0> d           0.002  -0.004   0.002  0.00  0.00    -0.644 OA
ATOM     19  O2  <0> d          -1.190   1.868   0.018  0.00  0.00    -0.644 OA
ENDBRANCH   5  17
TORSDOF 3
