REMARK  4 active torsions:
REMARK  status: ('A' for Active; 'I' for Inactive)
REMARK    1  A    between atoms: C4_4  and  O2_10 
REMARK    2  A    between atoms: C5_5  and  C7_7 
REMARK    3  A    between atoms: C7_7  and  C8_8 
REMARK    4  A    between atoms: C8_8  and  O1_9 
ROOT
ATOM      1  C1  <0> d           0.040  -2.770  -0.013  0.00  0.00    -0.082 A 
ATOM      2  C2  <0> d           0.018  -2.074  -1.208  0.00  0.00    -0.080 A 
ATOM      3  C3  <0> d          -0.006  -0.693  -1.203  0.00  0.00    -0.051 A 
ATOM      4  C4  <0> d           0.002  -0.004   0.002  0.00  0.00     0.072 A 
ATOM      5  C5  <0> d           0.023  -0.705   1.199  0.00  0.00    -0.023 A 
ATOM      6  C6  <0> d           0.042  -2.087   1.188  0.00  0.00    -0.074 A 
ATOM      7  H1  <0> d           0.054  -3.850  -0.019  0.00  0.00     0.083 H 
ATOM      8  H2  <0> d           0.017  -2.610  -2.145  0.00  0.00     0.083 H 
ATOM      9  H3  <0> d          -0.027  -0.149  -2.136  0.00  0.00     0.087 H 
ATOM     10  H4  <0> d           0.058  -2.633   2.120  0.00  0.00     0.084 H 
ENDROOT
BRANCH   5  11
ATOM     11  C7  <0> d           0.025   0.039   2.509  0.00  0.00    -0.019 C 
ATOM     12  H5  <0> d           0.475  -0.585   3.281  0.00  0.00     0.043 H 
ATOM     13  H6  <0> d           0.600   0.959   2.404  0.00  0.00     0.043 H 
BRANCH  11  14
ATOM     14  C8  <0> d          -1.414   0.381   2.904  0.00  0.00     0.021 C 
ATOM     15  H7  <0> d          -1.864   1.005   2.132  0.00  0.00     0.074 H 
ATOM     16  H8  <0> d          -1.989  -0.539   3.009  0.00  0.00     0.074 H 
BRANCH  14  17
ATOM     17  O1  <0> d          -1.412   1.087   4.146  0.00  0.00    -0.401 OA
ATOM     18  H9  <0> d          -2.293   1.335   4.458  0.00  0.00     0.209 HD
ENDBRANCH  14  17
ENDBRANCH  11  14
ENDBRANCH   5  11
BRANCH   4  19
ATOM     19  O2  <0> d          -0.016   1.355   0.009  0.00  0.00    -0.360 OA
ATOM     20  H10 <0> d           0.862   1.760   0.003  0.00  0.00     0.217 HD
ENDBRANCH   4  19
TORSDOF 4
