REMARK  0 active torsions:
REMARK  status: ('A' for Active; 'I' for Inactive)
ROOT
ATOM      1  C1  <0> d          -0.018   1.459   0.010  0.00  0.00    -0.066 A 
ATOM      2  C2  <0> d           1.166   2.119   0.002  0.00  0.00    -0.017 A 
ATOM      3  C3  <0> d           2.383   1.398  -0.014  0.00  0.00     0.245 A 
ATOM      4  N1  <0> d           2.409   0.053  -0.021  0.00  0.00    -0.322 N 
ATOM      5  C4  <0> d           1.240  -0.675  -0.014  0.00  0.00     0.063 A 
ATOM      6  C5  <0> d           0.002  -0.004   0.002  0.00  0.00    -0.006 A 
ATOM      7  C6  <0> d          -1.173  -0.764   0.009  0.00  0.00    -0.054 A 
ATOM      8  C7  <0> d          -1.069  -2.129  -0.000  0.00  0.00     0.003 A 
ATOM      9  N2  <0> d           0.107  -2.730  -0.015  0.00  0.00    -0.271 NA
ATOM     10  C8  <0> d           1.244  -2.066  -0.022  0.00  0.00     0.028 A 
ATOM     11  O1  <0> d           3.435   2.012  -0.021  0.00  0.00    -0.268 OA
ATOM     12  H1  <0> d          -0.953   2.000   0.026  0.00  0.00     0.085 H 
ATOM     13  H2  <0> d           1.181   3.199   0.008  0.00  0.00     0.092 H 
ATOM     14  H3  <0> d          -2.140  -0.284   0.021  0.00  0.00     0.087 H 
ATOM     15  H4  <0> d          -1.969  -2.727   0.005  0.00  0.00     0.114 H 
ATOM     16  H5  <0> d           2.181  -2.603  -0.035  0.00  0.00     0.118 H 
ATOM     17  H6  <0> d           3.262  -0.409  -0.032  0.00  0.00     0.169 HD
ENDROOT
TORSDOF 0
