REMARK  3 active torsions:
REMARK  status: ('A' for Active; 'I' for Inactive)
REMARK    1  A    between atoms: C1_1  and  C2_2 
REMARK    2  A    between atoms: C2_2  and  C5_7 
REMARK    3  A    between atoms: C3_3  and  C4_4 
REMARK       I    between atoms: C4_4  and  N1_6 
ROOT
ATOM      1  C2  <0> d          -1.173   1.725   0.017  0.00  0.00    -0.082 C 
ATOM      2  C3  <0> d          -0.013   1.076   0.008  0.00  0.00    -0.016 C 
ATOM      3  H4  <0> d           0.002  -0.004   0.002  0.00  0.00     0.092 H 
ENDROOT
BRANCH   1   4
ATOM      4  C1  <0> d          -2.468   0.954   0.019  0.00  0.00    -0.055 C 
ATOM      5  H1  <0> d          -2.775   0.762   1.047  0.00  0.00     0.033 H 
ATOM      6  H2  <0> d          -3.238   1.535  -0.488  0.00  0.00     0.033 H 
ATOM      7  H3  <0> d          -2.327   0.006  -0.501  0.00  0.00     0.033 H 
ENDBRANCH   1   4
BRANCH   1   8
ATOM      8  C5  <0> d          -1.194   3.232   0.025  0.00  0.00    -0.055 C 
ATOM      9  H7  <0> d          -0.689   3.607  -0.865  0.00  0.00     0.033 H 
ATOM     10  H8  <0> d          -2.226   3.581   0.032  0.00  0.00     0.033 H 
ATOM     11  H9  <0> d          -0.681   3.597   0.915  0.00  0.00     0.033 H 
ENDBRANCH   1   8
BRANCH   2  12
ATOM     12  C4  <0> d           1.251   1.829  -0.000  0.00  0.00     0.239 C 
ATOM     13  O1  <0> d           1.235   3.045   0.007  0.00  0.00    -0.269 OA
ATOM     14  N1  <0> d           2.427   1.171  -0.015  0.00  0.00    -0.367 N 
ATOM     15  H5  <0> d           2.441   0.201  -0.020  0.00  0.00     0.159 HD
ATOM     16  H6  <0> d           3.261   1.667  -0.020  0.00  0.00     0.159 HD
ENDBRANCH   2  12
TORSDOF 3
