REMARK  5 active torsions:
REMARK  status: ('A' for Active; 'I' for Inactive)
REMARK    1  A    between atoms: C1_1  and  C2_2 
REMARK    2  A    between atoms: C2_2  and  C3_3 
REMARK    3  A    between atoms: C4_6  and  S1_9 
REMARK    4  A    between atoms: N3_7  and  C5_8 
REMARK    5  A    between atoms: S1_9  and  C6_10 
ROOT
ATOM      1  C3  <0> d           0.707  -0.490  -1.238  0.00  0.00     0.130 A 
ATOM      2  N1  <0> d           0.156  -0.743  -2.391  0.00  0.00    -0.134 NA
ATOM      3  N2  <0> d           1.047  -1.139  -3.229  0.00  0.00    -0.123 NA
ATOM      4  C4  <0> d           2.225  -1.160  -2.650  0.00  0.00     0.190 A 
ATOM      5  N3  <0> d           2.046  -0.741  -1.363  0.00  0.00    -0.316 N 
ENDROOT
BRANCH   1   6
ATOM      6  C2  <0> d           0.002  -0.004   0.002  0.00  0.00    -0.011 C 
ATOM      7  H4  <0> d           0.529  -0.365   0.885  0.00  0.00     0.044 H 
ATOM      8  H5  <0> d          -1.020  -0.381   0.010  0.00  0.00     0.044 H 
BRANCH   6   9
ATOM      9  C1  <0> d          -0.019   1.526   0.010  0.00  0.00    -0.070 C 
ATOM     10  H1  <0> d           1.004   1.903   0.003  0.00  0.00     0.028 H 
ATOM     11  H2  <0> d          -0.546   1.887  -0.873  0.00  0.00     0.028 H 
ATOM     12  H3  <0> d          -0.529   1.877   0.907  0.00  0.00     0.028 H 
ENDBRANCH   6   9
ENDBRANCH   1   6
BRANCH   5  13
ATOM     13  C5  <0> d           3.074  -0.595  -0.329  0.00  0.00    -0.011 C 
ATOM     14  H6  <0> d           3.173  -1.532   0.219  0.00  0.00     0.057 H 
ATOM     15  H7  <0> d           4.026  -0.345  -0.797  0.00  0.00     0.057 H 
ATOM     16  H8  <0> d           2.787   0.200   0.359  0.00  0.00     0.057 H 
ENDBRANCH   5  13
BRANCH   4  17
ATOM     17  S1  <0> d           3.750  -1.632  -3.396  0.00  0.00    -0.095 SA
BRANCH  17  18
ATOM     18  C6  <0> d           3.292  -2.063  -5.097  0.00  0.00    -0.027 C 
ATOM     19  H9  <0> d           2.571  -2.881  -5.083  0.00  0.00     0.042 H 
ATOM     20  H10 <0> d           2.848  -1.195  -5.585  0.00  0.00     0.042 H 
ATOM     21  H11 <0> d           4.181  -2.373  -5.646  0.00  0.00     0.042 H 
ENDBRANCH  17  18
ENDBRANCH   4  17
TORSDOF 5
