REMARK  2 active torsions:
REMARK  status: ('A' for Active; 'I' for Inactive)
REMARK    1  A    between atoms: C5_5  and  C7_7 
REMARK    2  A    between atoms: C7_7  and  N2_11 
ROOT
ATOM      1  C7  <0> d           2.453   3.935  -0.001  0.00  0.00     0.240 C 
ATOM      2  H1  <0> d           2.393   4.807   0.666  0.00  0.00     0.119 H 
ATOM      3  C8  <0> d           2.738   4.400  -1.368  0.00  0.00     0.100 C 
ATOM      4  N1  <0> d           2.958   4.758  -2.424  0.00  0.00    -0.195 NA
ENDROOT
BRANCH   1   5
ATOM      5  C5  <0> d           1.158   3.165   0.007  0.00  0.00     0.027 A 
ATOM      6  C4  <0> d          -0.050   3.841   0.022  0.00  0.00     0.125 A 
ATOM      7  C3  <0> d          -1.240   3.132   0.030  0.00  0.00    -0.045 A 
ATOM      8  F1  <0> d          -0.068   5.192   0.030  0.00  0.00    -0.205 F 
ATOM      9  C2  <0> d          -1.220   1.750   0.017  0.00  0.00    -0.080 A 
ATOM     10  H4  <0> d          -2.182   3.658   0.042  0.00  0.00     0.088 H 
ATOM     11  C1  <0> d          -0.013   1.076   0.008  0.00  0.00    -0.082 A 
ATOM     12  H3  <0> d          -2.147   1.197   0.019  0.00  0.00     0.083 H 
ATOM     13  C6  <0> d           1.175   1.783   0.000  0.00  0.00    -0.071 A 
ATOM     14  H2  <0> d           0.002  -0.004   0.002  0.00  0.00     0.083 H 
ATOM     15  H5  <0> d           2.117   1.255  -0.011  0.00  0.00     0.084 H 
ENDBRANCH   1   5
BRANCH   1  16
ATOM     16  N2  <0> d           3.544   3.064   0.458  0.00  0.00     0.100 N 
ATOM     17  H6  <0> d           4.489   3.627   0.451  0.00  0.00     0.315 HD
ATOM     18  H7  <0> d           3.330   2.717   1.479  0.00  0.00     0.315 HD
ENDBRANCH   1  16
TORSDOF 2
