REMARK  2 active torsions:
REMARK  status: ('A' for Active; 'I' for Inactive)
REMARK    1  A    between atoms: C1_1  and  C2_2 
REMARK    2  A    between atoms: C4_4  and  O1_9 
ROOT
ATOM      1  C2  <0> d           1.383   2.062  -0.000  0.00  0.00    -0.085 C 
ATOM      2  C3  <0> d           2.429   1.362   0.302  0.00  0.00    -0.074 C 
ATOM      3  C4  <0> d           2.388  -0.085   0.695  0.00  0.00     0.052 C 
ATOM      4  H1  <0> d           3.059  -0.248   1.538  0.00  0.00     0.089 H 
ATOM      5  C5  <0> d           0.965  -0.482   1.096  0.00  0.00    -0.038 C 
ATOM      6  C6  <0> d           0.002  -0.004   0.002  0.00  0.00    -0.059 C 
ATOM      7  C7  <0> d          -0.019   1.526   0.010  0.00  0.00    -0.045 C 
ATOM      8  H5  <0> d           3.392   1.851   0.269  0.00  0.00     0.081 H 
ATOM      9  H6  <0> d           0.707  -0.011   2.044  0.00  0.00     0.037 H 
ATOM     10  H7  <0> d           0.901  -1.566   1.193  0.00  0.00     0.037 H 
ATOM     11  H8  <0> d          -0.999  -0.385   0.203  0.00  0.00     0.033 H 
ATOM     12  H9  <0> d           0.345  -0.360  -0.969  0.00  0.00     0.033 H 
ATOM     13  H10 <0> d          -0.549   1.885  -0.871  0.00  0.00     0.039 H 
ATOM     14  H11 <0> d          -0.532   1.875   0.906  0.00  0.00     0.039 H 
ENDROOT
BRANCH   1  15
ATOM     15  C1  <0> d           1.585   3.504  -0.387  0.00  0.00    -0.055 C 
ATOM     16  H2  <0> d           1.535   4.130   0.504  0.00  0.00     0.033 H 
ATOM     17  H3  <0> d           2.561   3.621  -0.858  0.00  0.00     0.033 H 
ATOM     18  H4  <0> d           0.805   3.806  -1.087  0.00  0.00     0.033 H 
ENDBRANCH   1  15
BRANCH   3  19
ATOM     19  O1  <0> d           2.811  -0.888  -0.409  0.00  0.00    -0.392 OA
ATOM     20  H12 <0> d           3.706  -0.692  -0.718  0.00  0.00     0.210 HD
ENDBRANCH   3  19
TORSDOF 2
