REMARK  7 active torsions:
REMARK  status: ('A' for Active; 'I' for Inactive)
REMARK    1  A    between atoms: C1_1  and  C2_2 
REMARK    2  A    between atoms: C2_2  and  O1_3 
REMARK    3  A    between atoms: O1_3  and  C3_4 
REMARK    4  A    between atoms: C3_4  and  C4_6 
REMARK    5  A    between atoms: C3_4  and  O2_7 
REMARK    6  A    between atoms: O2_7  and  C5_8 
REMARK    7  A    between atoms: C5_8  and  C6_10 
ROOT
ATOM      1  C3  <0> d          -0.832   1.690   1.179  0.00  0.00     0.136 C 
ATOM      2  H1  <0> d          -0.264   1.268   2.009  0.00  0.00     0.129 H 
ENDROOT
BRANCH   1   3
ATOM      3  O1  <0> d          -2.230   1.532   1.429  0.00  0.00    -0.362 OA
BRANCH   3   4
ATOM      4  C2  <0> d          -2.629   1.895   2.752  0.00  0.00     0.019 C 
ATOM      5  H5  <0> d          -2.005   1.371   3.476  0.00  0.00     0.073 H 
ATOM      6  H6  <0> d          -2.514   2.971   2.884  0.00  0.00     0.073 H 
BRANCH   4   7
ATOM      7  C1  <0> d          -4.094   1.509   2.966  0.00  0.00    -0.056 C 
ATOM      8  H2  <0> d          -4.717   2.033   2.242  0.00  0.00     0.030 H 
ATOM      9  H3  <0> d          -4.209   0.433   2.835  0.00  0.00     0.030 H 
ATOM     10  H4  <0> d          -4.398   1.786   3.976  0.00  0.00     0.030 H 
ENDBRANCH   4   7
ENDBRANCH   3   4
ENDBRANCH   1   3
BRANCH   1  11
ATOM     11  C4  <0> d          -0.459   0.964  -0.115  0.00  0.00    -0.031 C 
ATOM     12  H7  <0> d          -0.692  -0.096  -0.017  0.00  0.00     0.034 H 
ATOM     13  H8  <0> d           0.608   1.085  -0.305  0.00  0.00     0.034 H 
ATOM     14  H9  <0> d          -1.026   1.386  -0.945  0.00  0.00     0.034 H 
ENDBRANCH   1  11
BRANCH   1  15
ATOM     15  O2  <0> d          -0.520   3.103   1.048  0.00  0.00    -0.290 OA
BRANCH  15  16
ATOM     16  C5  <0> d          -0.427   3.814   2.183  0.00  0.00     0.257 C 
ATOM     17  O3  <0> d          -0.500   3.256   3.253  0.00  0.00    -0.266 OA
BRANCH  16  18
ATOM     18  C6  <0> d          -0.233   5.307   2.123  0.00  0.00     0.004 C 
ATOM     19  H10 <0> d          -0.191   5.626   1.081  0.00  0.00     0.041 H 
ATOM     20  H11 <0> d          -1.065   5.802   2.622  0.00  0.00     0.041 H 
ATOM     21  H12 <0> d           0.700   5.572   2.622  0.00  0.00     0.041 H 
ENDBRANCH  16  18
ENDBRANCH  15  16
ENDBRANCH   1  15
TORSDOF 7
