REMARK  5 active torsions:
REMARK  status: ('A' for Active; 'I' for Inactive)
REMARK    1  A    between atoms: C1_1  and  C2_2 
REMARK    2  A    between atoms: C2_2  and  C3_3 
REMARK    3  A    between atoms: C2_2  and  O1_4 
REMARK    4  A    between atoms: O1_4  and  C4_5 
REMARK    5  A    between atoms: C9_10  and  O2_11 
ROOT
ATOM      1  C4  <0> d           0.002  -0.004   0.002  0.00  0.00     0.102 A 
ATOM      2  C5  <0> d           1.201  -0.659  -0.232  0.00  0.00    -0.048 A 
ATOM      3  C6  <0> d           2.386   0.052  -0.239  0.00  0.00    -0.080 A 
ATOM      4  C7  <0> d           2.380   1.416  -0.014  0.00  0.00    -0.080 A 
ATOM      5  C8  <0> d           1.188   2.075   0.220  0.00  0.00    -0.048 A 
ATOM      6  C9  <0> d          -0.004   1.369   0.229  0.00  0.00     0.099 A 
ATOM      7  H8  <0> d           1.208  -1.724  -0.408  0.00  0.00     0.087 H 
ATOM      8  H9  <0> d           3.320  -0.460  -0.421  0.00  0.00     0.083 H 
ATOM      9  H10 <0> d           3.308   1.967  -0.021  0.00  0.00     0.083 H 
ATOM     10  H11 <0> d           1.185   3.141   0.396  0.00  0.00     0.087 H 
ENDROOT
BRANCH   1  11
ATOM     11  O1  <0> d          -1.165  -0.702   0.009  0.00  0.00    -0.344 OA
BRANCH  11  12
ATOM     12  C2  <0> d          -1.073  -2.122  -0.111  0.00  0.00     0.038 C 
ATOM     13  H4  <0> d          -0.179  -2.473   0.404  0.00  0.00     0.082 H 
BRANCH  12  14
ATOM     14  C1  <0> d          -2.310  -2.769   0.516  0.00  0.00    -0.052 C 
ATOM     15  H1  <0> d          -3.204  -2.418   0.001  0.00  0.00     0.030 H 
ATOM     16  H2  <0> d          -2.239  -3.853   0.425  0.00  0.00     0.030 H 
ATOM     17  H3  <0> d          -2.367  -2.496   1.570  0.00  0.00     0.030 H 
ENDBRANCH  12  14
BRANCH  12  18
ATOM     18  C3  <0> d          -0.992  -2.505  -1.590  0.00  0.00    -0.052 C 
ATOM     19  H5  <0> d          -1.887  -2.155  -2.106  0.00  0.00     0.030 H 
ATOM     20  H6  <0> d          -0.111  -2.045  -2.037  0.00  0.00     0.030 H 
ATOM     21  H7  <0> d          -0.922  -3.589  -1.682  0.00  0.00     0.030 H 
ENDBRANCH  12  18
ENDBRANCH  11  12
ENDBRANCH   1  11
BRANCH   6  22
ATOM     22  O2  <0> d          -1.179   2.017   0.453  0.00  0.00    -0.358 OA
ATOM     23  H12 <0> d          -1.432   2.062   1.385  0.00  0.00     0.217 HD
ENDBRANCH   6  22
TORSDOF 5
