REMARK  2 active torsions:
REMARK  status: ('A' for Active; 'I' for Inactive)
REMARK    1  A    between atoms: C1_1  and  N1_2 
REMARK    2  A    between atoms: N2_7  and  C6_10 
ROOT
ATOM      1  N1  <0> d           2.335   1.391  -0.012  0.00  0.00    -0.311 N 
ATOM      2  C2  <0> d           1.154   2.086   0.002  0.00  0.00     0.026 A 
ATOM      3  C3  <0> d          -0.017   1.413   0.010  0.00  0.00     0.200 A 
ATOM      4  C4  <0> d           0.002  -0.004   0.002  0.00  0.00     0.291 A 
ATOM      5  O1  <0> d          -1.041  -0.633   0.008  0.00  0.00    -0.264 OA
ATOM      6  N2  <0> d           1.186  -0.650  -0.013  0.00  0.00    -0.268 N 
ATOM      7  C5  <0> d           2.338   0.045  -0.020  0.00  0.00     0.330 A 
ATOM      8  O2  <0> d           3.398  -0.552  -0.032  0.00  0.00    -0.246 OA
ATOM      9  F1  <0> d          -1.191   2.082   0.019  0.00  0.00    -0.199 F 
ATOM     10  H4  <0> d           1.160   3.166   0.008  0.00  0.00     0.116 H 
ENDROOT
BRANCH   1  11
ATOM     11  C1  <0> d           3.606   2.119  -0.020  0.00  0.00    -0.010 C 
ATOM     12  H1  <0> d           3.912   2.305  -1.050  0.00  0.00     0.057 H 
ATOM     13  H2  <0> d           3.484   3.069   0.500  0.00  0.00     0.057 H 
ATOM     14  H3  <0> d           4.369   1.525   0.484  0.00  0.00     0.057 H 
ENDBRANCH   1  11
BRANCH   6  15
ATOM     15  C6  <0> d           1.217  -2.114  -0.021  0.00  0.00    -0.007 C 
ATOM     16  H5  <0> d           0.198  -2.500  -0.013  0.00  0.00     0.057 H 
ATOM     17  H6  <0> d           1.730  -2.462  -0.918  0.00  0.00     0.057 H 
ATOM     18  H7  <0> d           1.747  -2.471   0.862  0.00  0.00     0.057 H 
ENDBRANCH   6  15
TORSDOF 2
