REMARK  3 active torsions:
REMARK  status: ('A' for Active; 'I' for Inactive)
REMARK    1  A    between atoms: C2_2  and  C4_7 
REMARK    2  A    between atoms: C4_7  and  C5_8 
REMARK    3  A    between atoms: C5_8  and  O1_9 
ROOT
ATOM      1  C1  <0> d           2.119   0.681  -0.015  0.00  0.00     0.003 A 
ATOM      2  C2  <0> d           1.337  -0.423  -0.013  0.00  0.00    -0.020 A 
ATOM      3  C3  <0> d           0.002  -0.004   0.002  0.00  0.00     0.029 A 
ATOM      4  N1  <0> d          -0.016   1.304   0.009  0.00  0.00    -0.187 NA
ATOM      5  N2  <0> d           1.309   1.760  -0.001  0.00  0.00    -0.289 N 
ATOM      6  H1  <0> d           1.602   2.716   0.001  0.00  0.00     0.188 HD
ATOM      7  H2  <0> d           3.199   0.696  -0.025  0.00  0.00     0.114 H 
ATOM      8  H3  <0> d          -0.864  -0.649   0.006  0.00  0.00     0.118 H 
ENDROOT
BRANCH   2   9
ATOM      9  C4  <0> d           1.817  -1.851  -0.025  0.00  0.00    -0.019 C 
ATOM     10  H4  <0> d           2.782  -1.914   0.480  0.00  0.00     0.043 H 
ATOM     11  H5  <0> d           1.095  -2.482   0.492  0.00  0.00     0.043 H 
BRANCH   9  12
ATOM     12  C5  <0> d           1.967  -2.327  -1.471  0.00  0.00     0.021 C 
ATOM     13  H6  <0> d           1.003  -2.264  -1.976  0.00  0.00     0.074 H 
ATOM     14  H7  <0> d           2.690  -1.696  -1.988  0.00  0.00     0.074 H 
BRANCH  12  15
ATOM     15  O1  <0> d           2.423  -3.681  -1.482  0.00  0.00    -0.401 OA
ATOM     16  H8  <0> d           2.541  -4.049  -2.369  0.00  0.00     0.209 HD
ENDBRANCH  12  15
ENDBRANCH   9  12
ENDBRANCH   2   9
TORSDOF 3
