REMARK  4 active torsions:
REMARK  status: ('A' for Active; 'I' for Inactive)
REMARK    1  A    between atoms: C2_2  and  C3_3 
REMARK    2  A    between atoms: C3_3  and  S1_4 
REMARK    3  A    between atoms: S1_4  and  C4_5 
REMARK    4  A    between atoms: C5_7  and  N4_11 
ROOT
ATOM      1  C1  <0> d           1.949   4.858   0.009  0.00  0.00    -0.153 C 
ATOM      2  C2  <0> d           1.853   3.688   0.004  0.00  0.00    -0.107 C 
ATOM      3  H2  <0> d           2.039   5.954   0.015  0.00  0.00     0.166 H 
ENDROOT
BRANCH   2   4
ATOM      4  C3  <0> d           1.732   2.220  -0.003  0.00  0.00     0.038 C 
ATOM      5  H3  <0> d           2.210   1.817  -0.908  0.00  0.00     0.068 H 
ATOM      6  H4  <0> d           2.228   1.808   0.889  0.00  0.00     0.068 H 
BRANCH   4   7
ATOM      7  S1  <0> d          -0.022   1.758   0.012  0.00  0.00    -0.076 SA
BRANCH   7   8
ATOM      8  C4  <0> d           0.002  -0.004   0.002  0.00  0.00     0.226 A 
ATOM      9  N3  <0> d           1.079  -0.752  -0.012  0.00  0.00    -0.132 NA
ATOM     10  N2  <0> d           0.650  -2.088  -0.015  0.00  0.00    -0.105 N 
ATOM     11  C5  <0> d          -0.699  -2.057  -0.002  0.00  0.00     0.716 A 
ATOM     12  H1  <0> d           1.178  -3.054  -0.025  0.00  0.00     0.208 HD
ATOM     13  N1  <0> d          -1.076  -0.796   0.013  0.00  0.00    -0.035 NA
BRANCH  11  14
ATOM     14  N4  <0> d          -1.537  -3.157   0.000  0.00  0.00    -0.231 N 
ATOM     15  H5  <0> d          -1.114  -4.172  -0.013  0.00  0.00     0.174 HD
ATOM     16  H6  <0> d          -2.628  -3.016   0.016  0.00  0.00     0.174 HD
ENDBRANCH  11  14
ENDBRANCH   7   8
ENDBRANCH   4   7
ENDBRANCH   2   4
TORSDOF 4
