REMARK  1 active torsions:
REMARK  status: ('A' for Active; 'I' for Inactive)
REMARK    1  A    between atoms: N2_4  and  C3_6 
ROOT
ATOM      1  C3  <0> d          -0.013   1.086   0.008  0.00  0.00     0.096 C 
ATOM      2  C4  <0> d          -0.725   1.573  -1.185  0.00  0.00     0.081 C 
ATOM      3  N4  <0> d          -1.274   1.950  -2.105  0.00  0.00    -0.195 NA
ATOM      4  H3  <0> d           0.002  -0.004   0.002  0.00  0.00     0.090 H 
ATOM      5  H4  <0> d           1.010   1.463   0.000  0.00  0.00     0.090 H 
ENDROOT
BRANCH   1   6
ATOM      6  N2  <0> d          -0.698   1.558   1.213  0.00  0.00    -0.249 N 
ATOM      7  C2  <0> d          -1.156   0.804   2.228  0.00  0.00     0.085 A 
ATOM      8  N1  <0> d          -1.704   1.600   3.110  0.00  0.00    -0.234 NA
ATOM      9  H2  <0> d          -1.084  -0.271   2.302  0.00  0.00     0.146 H 
ATOM     10  C1  <0> d          -1.616   2.863   2.696  0.00  0.00     0.107 A 
ATOM     11  N3  <0> d          -1.003   2.889   1.541  0.00  0.00    -0.164 NA
ATOM     12  H1  <0> d          -1.986   3.726   3.229  0.00  0.00     0.149 H 
ENDBRANCH   1   6
TORSDOF 1
