REMARK  6 active torsions:
REMARK  status: ('A' for Active; 'I' for Inactive)
REMARK    1  A    between atoms: C1_1  and  C2_2 
REMARK    2  A    between atoms: C2_2  and  C3_4 
REMARK    3  A    between atoms: C2_2  and  C4_6 
REMARK    4  A    between atoms: C4_6  and  C5_7 
REMARK    5  A    between atoms: C4_6  and  C6_8 
REMARK    6  A    between atoms: C4_6  and  C7_9 
ROOT
ATOM      1  C4  <0> d           2.696   3.548  -0.005  0.00  0.00    -0.038 C 
ENDROOT
BRANCH   1   2
ATOM      2  C2  <0> d           1.235   3.094   0.007  0.00  0.00     0.033 C 
ATOM      3  H1  <0> d           0.744   3.473   0.904  0.00  0.00     0.057 H 
BRANCH   2   4
ATOM      4  C1  <0> d           0.522   3.639  -1.233  0.00  0.00    -0.063 C 
ATOM      5  H2  <0> d           0.564   4.728  -1.227  0.00  0.00     0.028 H 
ATOM      6  H3  <0> d           1.013   3.260  -2.130  0.00  0.00     0.028 H 
ATOM      7  H4  <0> d          -0.519   3.315  -1.224  0.00  0.00     0.028 H 
ENDBRANCH   2   4
BRANCH   2   8
ATOM      8  C3  <0> d           1.177   1.588  -0.001  0.00  0.00     0.177 C 
ATOM      9  O1  <0> d           2.199   0.944  -0.014  0.00  0.00    -0.648 OA
ATOM     10  O2  <0> d          -0.011   0.963   0.007  0.00  0.00    -0.648 OA
ENDBRANCH   2   8
ENDBRANCH   1   2
BRANCH   1  11
ATOM     11  C5  <0> d           3.385   3.017  -1.263  0.00  0.00    -0.069 C 
ATOM     12  H5  <0> d           2.877   3.405  -2.147  0.00  0.00     0.028 H 
ATOM     13  H6  <0> d           4.426   3.340  -1.272  0.00  0.00     0.028 H 
ATOM     14  H7  <0> d           3.343   1.928  -1.269  0.00  0.00     0.028 H 
ENDBRANCH   1  11
BRANCH   1  15
ATOM     15  C6  <0> d           2.755   5.077   0.003  0.00  0.00    -0.069 C 
ATOM     16  H8  <0> d           2.265   5.455   0.900  0.00  0.00     0.028 H 
ATOM     17  H9  <0> d           3.796   5.400  -0.005  0.00  0.00     0.028 H 
ATOM     18  H10 <0> d           2.248   5.465  -0.880  0.00  0.00     0.028 H 
ENDBRANCH   1  15
BRANCH   1  19
ATOM     19  C7  <0> d           3.409   3.004   1.235  0.00  0.00    -0.069 C 
ATOM     20  H11 <0> d           3.367   1.915   1.230  0.00  0.00     0.028 H 
ATOM     21  H12 <0> d           4.450   3.327   1.227  0.00  0.00     0.028 H 
ATOM     22  H13 <0> d           2.918   3.382   2.132  0.00  0.00     0.028 H 
ENDBRANCH   1  19
TORSDOF 6
