REMARK  0 active torsions:
REMARK  status: ('A' for Active; 'I' for Inactive)
ROOT
ATOM      1  C1  <0> d          -0.019   1.538   0.011  0.00  0.00    -0.060 C 
ATOM      2  C2  <0> d           1.477   1.938  -0.002  0.00  0.00    -0.060 C 
ATOM      3  C3  <0> d           2.123   0.872   0.918  0.00  0.00    -0.013 C 
ATOM      4  C4  <0> d           1.365  -0.430   0.578  0.00  0.00     0.164 C 
ATOM      5  C5  <0> d           0.002  -0.004   0.002  0.00  0.00    -0.013 C 
ATOM      6  O1  <0> d           1.161  -1.176   1.771  0.00  0.00    -0.351 OA
ATOM      7  C6  <0> d           2.350  -1.492   2.500  0.00  0.00     0.038 C 
ATOM      8  C7  <0> d           2.942  -2.763   1.931  0.00  0.00    -0.082 C 
ATOM      9  C8  <0> d           3.455  -2.747   0.731  0.00  0.00    -0.082 C 
ATOM     10  C9  <0> d           3.443  -1.459  -0.063  0.00  0.00     0.038 C 
ATOM     11  O2  <0> d           2.092  -1.148  -0.410  0.00  0.00    -0.351 OA
ATOM     12  H1  <0> d          -0.505   1.908   0.913  0.00  0.00     0.033 H 
ATOM     13  H2  <0> d          -0.522   1.918  -0.878  0.00  0.00     0.033 H 
ATOM     14  H3  <0> d           1.886   1.876  -1.010  0.00  0.00     0.033 H 
ATOM     15  H4  <0> d           1.614   2.937   0.411  0.00  0.00     0.033 H 
ATOM     16  H5  <0> d           3.184   0.765   0.692  0.00  0.00     0.041 H 
ATOM     17  H6  <0> d           1.979   1.134   1.966  0.00  0.00     0.041 H 
ATOM     18  H7  <0> d          -0.804  -0.392   0.625  0.00  0.00     0.041 H 
ATOM     19  H8  <0> d          -0.104  -0.373  -1.018  0.00  0.00     0.041 H 
ATOM     20  H9  <0> d           3.067  -0.677   2.400  0.00  0.00     0.080 H 
ATOM     21  H10 <0> d           2.105  -1.641   3.551  0.00  0.00     0.080 H 
ATOM     22  H11 <0> d           2.942  -3.673   2.513  0.00  0.00     0.079 H 
ATOM     23  H12 <0> d           3.883  -3.644   0.309  0.00  0.00     0.079 H 
ATOM     24  H13 <0> d           3.860  -0.653   0.542  0.00  0.00     0.080 H 
ATOM     25  H14 <0> d           4.035  -1.582  -0.970  0.00  0.00     0.080 H 
ENDROOT
TORSDOF 0
