REMARK  5 active torsions:
REMARK  status: ('A' for Active; 'I' for Inactive)
REMARK    1  A    between atoms: C1_1  and  N1_2 
REMARK    2  A    between atoms: N1_2  and  C2_3 
REMARK       I    between atoms: N1_2  and  C4_7 
REMARK    3  A    between atoms: C2_3  and  C3_4 
REMARK    4  A    between atoms: C4_7  and  O4_9 
REMARK    5  A    between atoms: O4_9  and  C5_10 
ROOT
ATOM      1  N1  <0> d           0.002  -0.004   0.002  0.00  0.00    -0.322 N 
ATOM      2  C4  <0> d          -0.016   1.344   0.009  0.00  0.00     0.362 C 
ATOM      3  O3  <0> d           1.028   1.965   0.003  0.00  0.00    -0.238 OA
ENDROOT
BRANCH   1   4
ATOM      4  C1  <0> d          -1.256  -0.754   0.010  0.00  0.00    -0.013 C 
ATOM      5  H1  <0> d          -2.102  -0.050   0.022  0.00  0.00     0.056 H 
ATOM      6  H2  <0> d          -1.298  -1.392   0.905  0.00  0.00     0.056 H 
ATOM      7  H3  <0> d          -1.315  -1.382  -0.891  0.00  0.00     0.056 H 
ENDBRANCH   1   4
BRANCH   1   8
ATOM      8  C2  <0> d           1.281  -0.719  -0.014  0.00  0.00     0.079 C 
ATOM      9  H4  <0> d           1.157  -1.679  -0.537  0.00  0.00     0.081 H 
ATOM     10  H5  <0> d           2.034  -0.112  -0.536  0.00  0.00     0.081 H 
BRANCH   8  11
ATOM     11  C3  <0> d           1.732  -0.972   1.401  0.00  0.00     0.191 C 
ATOM     12  O1  <0> d           1.056  -0.594   2.328  0.00  0.00    -0.647 OA
ATOM     13  O2  <0> d           2.886  -1.618   1.632  0.00  0.00    -0.647 OA
ENDBRANCH   8  11
ENDBRANCH   1   8
BRANCH   2  14
ATOM     14  O4  <0> d          -1.191   2.001   0.019  0.00  0.00    -0.309 OA
BRANCH  14  15
ATOM     15  C5  <0> d          -1.135   3.452   0.026  0.00  0.00     0.015 C 
ATOM     16  H6  <0> d          -2.157   3.858   0.033  0.00  0.00     0.067 H 
ATOM     17  H7  <0> d          -0.607   3.803  -0.873  0.00  0.00     0.067 H 
ATOM     18  H8  <0> d          -0.598   3.793   0.924  0.00  0.00     0.067 H 
ENDBRANCH  14  15
ENDBRANCH   2  14
TORSDOF 5
