REMARK  1 active torsions:
REMARK  status: ('A' for Active; 'I' for Inactive)
REMARK    1  A    between atoms: C1_1  and  O4_10 
ROOT
ATOM      1  C1  <0> d           2.348   0.045  -0.020  0.00  0.00     0.175 A 
ATOM      2  C2  <0> d           1.152  -0.670  -0.013  0.00  0.00     0.220 A 
ATOM      3  N1  <0> d           0.002  -0.004   0.002  0.00  0.00    -0.296 N 
ATOM      4  C3  <0> d          -0.016   1.318   0.009  0.00  0.00     0.260 A 
ATOM      5  N2  <0> d           1.098   2.031   0.003  0.00  0.00    -0.296 N 
ATOM      6  C4  <0> d           2.287   1.436  -0.012  0.00  0.00     0.220 A 
ATOM      7  O1  <0> d           3.425   2.175  -0.019  0.00  0.00    -0.169 OA
ATOM      8  O2  <0> d          -1.209   1.961   0.018  0.00  0.00    -0.151 OA
ATOM      9  O3  <0> d           1.162  -2.026  -0.020  0.00  0.00    -0.169 OA
ATOM     10  H2  <0> d          -0.951  -0.553   0.008  0.00  0.00     0.171 HD
ATOM     11  H3  <0> d           1.049   3.130   0.009  0.00  0.00     0.171 HD
ENDROOT
BRANCH   1  12
ATOM     12  O4  <0> d           3.547  -0.601  -0.036  0.00  0.00    -0.353 OA
ATOM     13  H1  <0> d           3.579  -1.701  -0.042  0.00  0.00     0.218 HD
ENDBRANCH   1  12
TORSDOF 1
