REMARK  2 active torsions:
REMARK  status: ('A' for Active; 'I' for Inactive)
REMARK    1  A    between atoms: C1_1  and  N1_2 
REMARK       I    between atoms: N1_2  and  C2_3 
REMARK    2  A    between atoms: C2_3  and  C3_5 
ROOT
ATOM      1  C3  <0> d          -1.304   1.933   0.019  0.00  0.00     0.032 A 
ATOM      2  C4  <0> d          -1.325   3.329   0.032  0.00  0.00    -0.065 A 
ATOM      3  C5  <0> d          -2.531   3.997   0.035  0.00  0.00    -0.045 A 
ATOM      4  C6  <0> d          -3.721   3.285   0.037  0.00  0.00     0.116 A 
ATOM      5  C7  <0> d          -3.705   1.898   0.030  0.00  0.00    -0.045 A 
ATOM      6  C8  <0> d          -2.505   1.220   0.021  0.00  0.00    -0.065 A 
ATOM      7  F1  <0> d          -4.900   3.944   0.046  0.00  0.00    -0.206 F 
ATOM      8  H5  <0> d          -0.399   3.884   0.035  0.00  0.00     0.085 H 
ATOM      9  H6  <0> d          -2.549   5.077   0.040  0.00  0.00     0.088 H 
ATOM     10  H7  <0> d          -4.635   1.349   0.031  0.00  0.00     0.088 H 
ATOM     11  H8  <0> d          -2.494   0.141   0.014  0.00  0.00     0.085 H 
ENDROOT
BRANCH   1  12
ATOM     12  C2  <0> d          -0.014   1.212   0.009  0.00  0.00     0.251 C 
ATOM     13  N1  <0> d           1.143   1.901   0.001  0.00  0.00    -0.361 N 
ATOM     14  H4  <0> d           1.130   2.871   0.007  0.00  0.00     0.162 HD
ATOM     15  O1  <0> d           0.002  -0.004   0.002  0.00  0.00    -0.268 OA
BRANCH  13  16
ATOM     16  C1  <0> d           2.422   1.186  -0.015  0.00  0.00    -0.018 C 
ATOM     17  H1  <0> d           3.241   1.905  -0.019  0.00  0.00     0.056 H 
ATOM     18  H2  <0> d           2.497   0.555   0.871  0.00  0.00     0.056 H 
ATOM     19  H3  <0> d           2.480   0.565  -0.909  0.00  0.00     0.056 H 
ENDBRANCH  13  16
ENDBRANCH   1  12
TORSDOF 2
