REMARK  3 active torsions:
REMARK  status: ('A' for Active; 'I' for Inactive)
REMARK    1  A    between atoms: C1_1  and  C2_2 
REMARK    2  A    between atoms: C2_2  and  C3_3 
REMARK    3  A    between atoms: C3_3  and  C4_4 
ROOT
ATOM      1  C4  <0> d           0.739  -2.004  -1.265  0.00  0.00     0.125 A 
ATOM      2  N1  <0> d           1.755  -2.632  -0.706  0.00  0.00    -0.244 NA
ATOM      3  C5  <0> d           1.811  -3.952  -0.686  0.00  0.00     0.026 A 
ATOM      4  C6  <0> d           0.775  -4.683  -1.281  0.00  0.00     0.079 A 
ATOM      5  C7  <0> d          -0.280  -3.974  -1.867  0.00  0.00     0.026 A 
ATOM      6  N2  <0> d          -0.257  -2.653  -1.836  0.00  0.00    -0.244 NA
ATOM      7  C8  <0> d           0.795  -6.115  -1.288  0.00  0.00     0.102 C 
ATOM      8  N3  <0> d           0.810  -7.250  -1.295  0.00  0.00    -0.191 NA
ATOM      9  H8  <0> d           2.644  -4.459  -0.222  0.00  0.00     0.117 H 
ATOM     10  H9  <0> d          -1.099  -4.498  -2.337  0.00  0.00     0.117 H 
ENDROOT
BRANCH   1  11
ATOM     11  C3  <0> d           0.718  -0.497  -1.257  0.00  0.00    -0.009 C 
ATOM     12  H6  <0> d           0.191  -0.136  -2.140  0.00  0.00     0.044 H 
ATOM     13  H7  <0> d           1.741  -0.120  -1.264  0.00  0.00     0.044 H 
BRANCH  11  14
ATOM     14  C2  <0> d           0.002  -0.004   0.002  0.00  0.00    -0.062 C 
ATOM     15  H4  <0> d           0.529  -0.365   0.885  0.00  0.00     0.033 H 
ATOM     16  H5  <0> d          -1.020  -0.381   0.010  0.00  0.00     0.033 H 
BRANCH  14  17
ATOM     17  C1  <0> d          -0.019   1.526   0.010  0.00  0.00    -0.076 C 
ATOM     18  H1  <0> d           1.004   1.903   0.003  0.00  0.00     0.027 H 
ATOM     19  H2  <0> d          -0.546   1.887  -0.873  0.00  0.00     0.027 H 
ATOM     20  H3  <0> d          -0.529   1.877   0.907  0.00  0.00     0.027 H 
ENDBRANCH  14  17
ENDBRANCH  11  14
ENDBRANCH   1  11
TORSDOF 3
