REMARK  3 active torsions:
REMARK  status: ('A' for Active; 'I' for Inactive)
REMARK    1  A    between atoms: C1_1  and  C2_2 
REMARK    2  A    between atoms: C5_5  and  C9_9 
REMARK    3  A    between atoms: C7_7  and  C8_8 
ROOT
ATOM      1  C9  <0> d          -0.013   1.086   0.008  0.00  0.00     0.038 C 
ATOM      2  C10 <0> d          -0.725   1.573  -1.185  0.00  0.00     0.063 C 
ATOM      3  N1  <0> d          -1.274   1.950  -2.105  0.00  0.00    -0.197 NA
ATOM      4  H10 <0> d           0.002  -0.004   0.002  0.00  0.00     0.062 H 
ATOM      5  H11 <0> d           1.010   1.463   0.000  0.00  0.00     0.062 H 
ENDROOT
BRANCH   1   6
ATOM      6  C5  <0> d          -0.718   1.572   1.248  0.00  0.00    -0.045 A 
ATOM      7  C4  <0> d          -0.360   2.779   1.819  0.00  0.00    -0.075 A 
ATOM      8  C3  <0> d          -1.010   3.227   2.953  0.00  0.00    -0.076 A 
ATOM      9  H5  <0> d           0.425   3.374   1.376  0.00  0.00     0.084 H 
ATOM     10  C2  <0> d          -2.012   2.463   3.523  0.00  0.00    -0.056 A 
ATOM     11  H4  <0> d          -0.734   4.173   3.396  0.00  0.00     0.084 H 
ATOM     12  C7  <0> d          -2.366   1.254   2.955  0.00  0.00    -0.056 A 
ATOM     13  C6  <0> d          -1.719   0.808   1.818  0.00  0.00    -0.070 A 
ATOM     14  H6  <0> d          -1.996  -0.137   1.374  0.00  0.00     0.085 H 
BRANCH  10  15
ATOM     15  C1  <0> d          -2.718   2.950   4.762  0.00  0.00    -0.051 C 
ATOM     16  H1  <0> d          -2.191   2.588   5.646  0.00  0.00     0.033 H 
ATOM     17  H2  <0> d          -2.732   4.039   4.768  0.00  0.00     0.033 H 
ATOM     18  H3  <0> d          -3.740   2.572   4.770  0.00  0.00     0.033 H 
ENDBRANCH  10  15
BRANCH  12  19
ATOM     19  C8  <0> d          -3.458   0.421   3.577  0.00  0.00    -0.051 C 
ATOM     20  H7  <0> d          -3.024  -0.258   4.310  0.00  0.00     0.033 H 
ATOM     21  H8  <0> d          -4.178   1.075   4.068  0.00  0.00     0.033 H 
ATOM     22  H9  <0> d          -3.961  -0.156   2.800  0.00  0.00     0.033 H 
ENDBRANCH  12  19
ENDBRANCH   1   6
TORSDOF 3
