REMARK  5 active torsions:
REMARK  status: ('A' for Active; 'I' for Inactive)
REMARK    1  A    between atoms: C1_1  and  C2_2 
REMARK    2  A    between atoms: C2_2  and  C3_3 
REMARK    3  A    between atoms: C2_2  and  C4_4 
REMARK    4  A    between atoms: C4_4  and  C5_6 
REMARK    5  A    between atoms: C4_4  and  O1_13 
ROOT
ATOM      1  C5  <0> d          -0.761   1.597  -1.225  0.00  0.00    -0.013 C 
ATOM      2  H2  <0> d          -0.616   2.673  -1.315  0.00  0.00     0.050 H 
ATOM      3  C6  <0> d          -0.013   1.086   0.008  0.00  0.00    -0.056 C 
ATOM      4  C7  <0> d          -0.739   1.585   1.264  0.00  0.00    -0.061 C 
ATOM      5  C8  <0> d          -2.106   0.891   1.334  0.00  0.00    -0.050 C 
ATOM      6  C9  <0> d          -2.813   0.999   0.015  0.00  0.00    -0.106 C 
ATOM      7  C10 <0> d          -2.227   1.302  -1.099  0.00  0.00    -0.100 C 
ATOM      8  H10 <0> d           0.002  -0.004   0.002  0.00  0.00     0.034 H 
ATOM      9  H11 <0> d           1.009   1.466   0.000  0.00  0.00     0.034 H 
ATOM     10  H12 <0> d          -0.152   1.340   2.148  0.00  0.00     0.033 H 
ATOM     11  H13 <0> d          -0.880   2.664   1.201  0.00  0.00     0.033 H 
ATOM     12  H14 <0> d          -2.711   1.364   2.108  0.00  0.00     0.038 H 
ATOM     13  H15 <0> d          -1.961  -0.161   1.581  0.00  0.00     0.038 H 
ATOM     14  H16 <0> d          -3.876   0.812  -0.006  0.00  0.00     0.076 H 
ATOM     15  H17 <0> d          -2.831   1.344  -1.993  0.00  0.00     0.077 H 
ENDROOT
BRANCH   1  16
ATOM     16  C4  <0> d          -0.210   0.907  -2.475  0.00  0.00     0.045 C 
ATOM     17  H1  <0> d          -0.348  -0.171  -2.385  0.00  0.00     0.084 H 
BRANCH  16  18
ATOM     18  C2  <0> d          -0.957   1.416  -3.709  0.00  0.00    -0.036 C 
ATOM     19  H6  <0> d          -2.029   1.273  -3.570  0.00  0.00     0.042 H 
BRANCH  18  20
ATOM     20  C1  <0> d          -0.662   2.905  -3.905  0.00  0.00    -0.071 C 
ATOM     21  H3  <0> d          -1.194   3.267  -4.785  0.00  0.00     0.028 H 
ATOM     22  H4  <0> d          -0.992   3.459  -3.027  0.00  0.00     0.028 H 
ATOM     23  H5  <0> d           0.409   3.048  -4.044  0.00  0.00     0.028 H 
ENDBRANCH  18  20
BRANCH  18  24
ATOM     24  C3  <0> d          -0.494   0.638  -4.942  0.00  0.00    -0.071 C 
ATOM     25  H7  <0> d          -0.704  -0.423  -4.802  0.00  0.00     0.028 H 
ATOM     26  H8  <0> d          -1.026   1.000  -5.822  0.00  0.00     0.028 H 
ATOM     27  H9  <0> d           0.577   0.781  -5.081  0.00  0.00     0.028 H 
ENDBRANCH  18  24
ENDBRANCH  16  18
BRANCH  16  28
ATOM     28  O1  <0> d           1.182   1.200  -2.606  0.00  0.00    -0.395 OA
ATOM     29  H18 <0> d           1.379   2.143  -2.690  0.00  0.00     0.210 HD
ENDBRANCH  16  28
ENDBRANCH   1  16
TORSDOF 5
