REMARK  1 active torsions:
REMARK  status: ('A' for Active; 'I' for Inactive)
REMARK    1  A    between atoms: C7_9  and  N2_11 
ROOT
ATOM      1  C1  <0> d          -0.018   1.457   0.010  0.00  0.00    -0.054 A 
ATOM      2  C2  <0> d           1.262   1.868   0.000  0.00  0.00    -0.022 A 
ATOM      3  N1  <0> d           2.098   0.786  -0.014  0.00  0.00    -0.365 N 
ATOM      4  H1  <0> d           3.067   0.830  -0.023  0.00  0.00     0.165 HD
ATOM      5  C3  <0> d           1.358  -0.377  -0.013  0.00  0.00     0.046 A 
ATOM      6  C4  <0> d           0.002  -0.004   0.002  0.00  0.00     0.013 A 
ATOM      7  C5  <0> d          -1.000  -0.996   0.007  0.00  0.00     0.059 A 
ATOM      8  C6  <0> d          -0.633  -2.339  -0.003  0.00  0.00    -0.037 A 
ATOM      9  C7  <0> d           0.710  -2.695  -0.018  0.00  0.00     0.029 A 
ATOM     10  C8  <0> d           1.700  -1.724  -0.023  0.00  0.00    -0.031 A 
ATOM     11  C9  <0> d          -2.383  -0.625   0.021  0.00  0.00     0.100 C 
ATOM     12  N3  <0> d          -3.480  -0.331   0.033  0.00  0.00    -0.191 NA
ATOM     13  H2  <0> d          -0.895   2.087   0.018  0.00  0.00     0.087 H 
ATOM     14  H3  <0> d           1.583   2.899   0.003  0.00  0.00     0.111 H 
ATOM     15  H4  <0> d          -1.393  -3.106   0.001  0.00  0.00     0.089 H 
ATOM     16  H5  <0> d           2.740  -2.015  -0.035  0.00  0.00     0.090 H 
ENDROOT
BRANCH   9  17
ATOM     17  N2  <0> d           1.068  -4.046  -0.027  0.00  0.00    -0.399 N 
ATOM     18  H6  <0> d           2.004  -4.301  -0.037  0.00  0.00     0.156 HD
ATOM     19  H7  <0> d           0.380  -4.730  -0.024  0.00  0.00     0.156 HD
ENDBRANCH   9  17
TORSDOF 1
