REMARK  7 active torsions:
REMARK  status: ('A' for Active; 'I' for Inactive)
REMARK    1  A    between atoms: C1_1  and  C2_2 
REMARK    2  A    between atoms: C2_2  and  C3_3 
REMARK    3  A    between atoms: C3_3  and  C4_4 
REMARK    4  A    between atoms: C4_4  and  C5_6 
REMARK    5  A    between atoms: C5_6  and  C6_7 
REMARK    6  A    between atoms: C6_7  and  C7_8 
REMARK    7  A    between atoms: C6_7  and  C8_9 
ROOT
ATOM      1  C5  <0> d           1.280   1.975   0.000  0.00  0.00    -0.007 C 
ATOM      2  H8  <0> d           1.318   2.554  -0.813  0.00  0.00     0.044 H 
ATOM      3  H9  <0> d           1.338   2.597   0.893  0.00  0.00     0.044 H 
ENDROOT
BRANCH   1   4
ATOM      4  C4  <0> d          -0.014   1.203   0.009  0.00  0.00     0.127 C 
ATOM      5  O1  <0> d           0.002  -0.004   0.002  0.00  0.00    -0.298 OA
BRANCH   4   6
ATOM      6  C3  <0> d          -1.329   1.939   0.019  0.00  0.00    -0.010 C 
ATOM      7  H6  <0> d          -1.386   2.509   0.839  0.00  0.00     0.044 H 
ATOM      8  H7  <0> d          -1.400   2.570  -0.867  0.00  0.00     0.044 H 
BRANCH   6   9
ATOM      9  C2  <0> d          -2.479   0.929   0.019  0.00  0.00    -0.062 C 
ATOM     10  H4  <0> d          -2.417   0.308  -0.875  0.00  0.00     0.033 H 
ATOM     11  H5  <0> d          -2.408   0.298   0.905  0.00  0.00     0.033 H 
BRANCH   9  12
ATOM     12  C1  <0> d          -3.814   1.676   0.029  0.00  0.00    -0.076 C 
ATOM     13  H1  <0> d          -3.876   2.297   0.923  0.00  0.00     0.027 H 
ATOM     14  H2  <0> d          -3.885   2.307  -0.857  0.00  0.00     0.027 H 
ATOM     15  H3  <0> d          -4.633   0.957   0.029  0.00  0.00     0.027 H 
ENDBRANCH   9  12
ENDBRANCH   6   9
ENDBRANCH   4   6
ENDBRANCH   1   4
BRANCH   1  16
ATOM     16  C6  <0> d           2.457   0.996  -0.016  0.00  0.00    -0.055 C 
ATOM     17  H10 <0> d           2.367   0.306   0.823  0.00  0.00     0.039 H 
BRANCH  16  18
ATOM     18  C7  <0> d           2.446   0.208  -1.328  0.00  0.00    -0.073 C 
ATOM     19  H11 <0> d           3.284  -0.488  -1.339  0.00  0.00     0.028 H 
ATOM     20  H12 <0> d           1.512  -0.346  -1.411  0.00  0.00     0.028 H 
ATOM     21  H13 <0> d           2.536   0.898  -2.167  0.00  0.00     0.028 H 
ENDBRANCH  16  18
BRANCH  16  22
ATOM     22  C8  <0> d           3.769   1.774   0.101  0.00  0.00    -0.073 C 
ATOM     23  H14 <0> d           3.776   2.336   1.036  0.00  0.00     0.028 H 
ATOM     24  H15 <0> d           4.607   1.077   0.090  0.00  0.00     0.028 H 
ATOM     25  H16 <0> d           3.858   2.464  -0.738  0.00  0.00     0.028 H 
ENDBRANCH  16  22
ENDBRANCH   1  16
TORSDOF 7
