REMARK  6 active torsions:
REMARK  status: ('A' for Active; 'I' for Inactive)
REMARK    1  A    between atoms: C1_1  and  O1_2 
REMARK    2  A    between atoms: O1_2  and  C2_3 
REMARK    3  A    between atoms: C2_3  and  C3_5 
REMARK    4  A    between atoms: C5_8  and  C6_10 
REMARK    5  A    between atoms: C6_10  and  O4_12 
REMARK    6  A    between atoms: O4_12  and  C7_13 
ROOT
ATOM      1  C3  <0> d           0.657  -2.104  -1.120  0.00  0.00     0.043 A 
ATOM      2  H1  <0> d           0.762  -2.619  -0.165  0.00  0.00     0.056 H 
ATOM      3  C4  <0> d          -0.175  -2.789  -2.205  0.00  0.00    -0.040 A 
ATOM      4  C5  <0> d           1.349  -2.722  -2.336  0.00  0.00     0.043 A 
ATOM      5  H2  <0> d           1.761  -2.041  -3.081  0.00  0.00     0.056 H 
ATOM      6  H6  <0> d          -0.617  -3.755  -1.965  0.00  0.00     0.035 H 
ATOM      7  H7  <0> d          -0.765  -2.152  -2.864  0.00  0.00     0.035 H 
ENDROOT
BRANCH   1   8
ATOM      8  C2  <0> d           0.598  -0.600  -1.043  0.00  0.00     0.263 C 
ATOM      9  O2  <0> d           1.088   0.070  -1.921  0.00  0.00    -0.265 OA
BRANCH   8  10
ATOM     10  O1  <0> d           0.002  -0.004   0.002  0.00  0.00    -0.326 OA
BRANCH  10  11
ATOM     11  C1  <0> d          -0.017   1.425   0.010  0.00  0.00     0.013 C 
ATOM     12  H3  <0> d           1.005   1.802   0.002  0.00  0.00     0.067 H 
ATOM     13  H4  <0> d          -0.544   1.786  -0.873  0.00  0.00     0.067 H 
ATOM     14  H5  <0> d          -0.527   1.776   0.907  0.00  0.00     0.067 H 
ENDBRANCH  10  11
ENDBRANCH   8  10
ENDBRANCH   1   8
BRANCH   4  15
ATOM     15  C6  <0> d           2.122  -3.998  -2.124  0.00  0.00     0.263 C 
ATOM     16  O3  <0> d           2.178  -4.494  -1.023  0.00  0.00    -0.265 OA
BRANCH  15  17
ATOM     17  O4  <0> d           2.748  -4.584  -3.156  0.00  0.00    -0.326 OA
BRANCH  17  18
ATOM     18  C7  <0> d           3.462  -5.791  -2.882  0.00  0.00     0.013 C 
ATOM     19  H8  <0> d           4.238  -5.594  -2.143  0.00  0.00     0.067 H 
ATOM     20  H9  <0> d           2.772  -6.541  -2.494  0.00  0.00     0.067 H 
ATOM     21  H10 <0> d           3.920  -6.159  -3.801  0.00  0.00     0.067 H 
ENDBRANCH  17  18
ENDBRANCH  15  17
ENDBRANCH   4  15
TORSDOF 6
