REMARK  4 active torsions:
REMARK  status: ('A' for Active; 'I' for Inactive)
REMARK    1  A    between atoms: C1_1  and  C2_2 
REMARK    2  A    between atoms: C3_3  and  N2_10 
REMARK    3  A    between atoms: C6_6  and  O1_8 
REMARK    4  A    between atoms: O1_8  and  C7_9 
ROOT
ATOM      1  C2  <0> d           1.134  -0.682  -0.012  0.00  0.00     0.059 A 
ATOM      2  C3  <0> d           2.355  -0.024  -0.021  0.00  0.00     0.050 A 
ATOM      3  C4  <0> d           2.374   1.369  -0.013  0.00  0.00    -0.052 A 
ATOM      4  C5  <0> d           1.167   2.045   0.002  0.00  0.00    -0.030 A 
ATOM      5  C6  <0> d          -0.016   1.318   0.009  0.00  0.00     0.164 A 
ATOM      6  N1  <0> d           0.002  -0.004   0.002  0.00  0.00    -0.228 NA
ATOM      7  H4  <0> d           3.310   1.909  -0.019  0.00  0.00     0.087 H 
ATOM      8  H5  <0> d           1.145   3.125   0.007  0.00  0.00     0.090 H 
ENDROOT
BRANCH   5   9
ATOM      9  O1  <0> d          -1.205   1.973   0.018  0.00  0.00    -0.339 OA
BRANCH   9  10
ATOM     10  C7  <0> d          -2.388   1.170   0.020  0.00  0.00     0.012 C 
ATOM     11  H6  <0> d          -2.404   0.546  -0.874  0.00  0.00     0.067 H 
ATOM     12  H7  <0> d          -2.396   0.536   0.906  0.00  0.00     0.067 H 
ATOM     13  H8  <0> d          -3.265   1.816   0.027  0.00  0.00     0.067 H 
ENDBRANCH   9  10
ENDBRANCH   5   9
BRANCH   1  14
ATOM     14  C1  <0> d           1.099  -2.189  -0.021  0.00  0.00    -0.033 C 
ATOM     15  H1  <0> d           1.081  -2.546  -1.050  0.00  0.00     0.035 H 
ATOM     16  H2  <0> d           1.985  -2.575   0.483  0.00  0.00     0.035 H 
ATOM     17  H3  <0> d           0.206  -2.535   0.500  0.00  0.00     0.035 H 
ENDBRANCH   1  14
BRANCH   2  18
ATOM     18  N2  <0> d           3.551  -0.750  -0.036  0.00  0.00    -0.397 N 
ATOM     19  H9  <0> d           3.530  -1.720  -0.042  0.00  0.00     0.156 HD
ATOM     20  H10 <0> d           4.402  -0.284  -0.042  0.00  0.00     0.156 HD
ENDBRANCH   2  18
TORSDOF 4
