REMARK  3 active torsions:
REMARK  status: ('A' for Active; 'I' for Inactive)
REMARK    1  A    between atoms: C1_1  and  C2_2 
REMARK    2  A    between atoms: C2_2  and  C4_4 
REMARK    3  A    between atoms: C9_10  and  O1_13 
ROOT
ATOM      1  C4  <0> d          -0.729   1.579   1.266  0.00  0.00    -0.030 C 
ATOM      2  H1  <0> d          -1.769   1.253   1.242  0.00  0.00     0.047 H 
ATOM      3  C5  <0> d          -0.013   1.086   0.008  0.00  0.00    -0.055 C 
ATOM      4  C6  <0> d          -0.754   1.594  -1.233  0.00  0.00    -0.042 C 
ATOM      5  C7  <0> d          -0.879   3.098  -1.136  0.00  0.00    -0.061 C 
ATOM      6  C8  <0> d          -0.508   3.868  -2.129  0.00  0.00    -0.117 C 
ATOM      7  C9  <0> d          -1.444   3.691   0.136  0.00  0.00     0.057 C 
ATOM      8  H2  <0> d          -1.325   4.774   0.119  0.00  0.00     0.090 H 
ATOM      9  C10 <0> d          -0.677   3.107   1.327  0.00  0.00    -0.031 C 
ATOM     10  H8  <0> d           0.002  -0.004   0.002  0.00  0.00     0.034 H 
ATOM     11  H9  <0> d           1.010   1.463   0.000  0.00  0.00     0.034 H 
ATOM     12  H10 <0> d          -0.193   1.330  -2.129  0.00  0.00     0.039 H 
ATOM     13  H11 <0> d          -1.747   1.146  -1.275  0.00  0.00     0.039 H 
ATOM     14  H12 <0> d          -0.108   3.430  -3.032  0.00  0.00     0.067 H 
ATOM     15  H13 <0> d          -0.604   4.941  -2.046  0.00  0.00     0.067 H 
ATOM     16  H14 <0> d           0.361   3.437   1.288  0.00  0.00     0.038 H 
ATOM     17  H15 <0> d          -1.133   3.449   2.256  0.00  0.00     0.038 H 
ENDROOT
BRANCH   1  18
ATOM     18  C2  <0> d          -0.054   1.006   2.485  0.00  0.00    -0.089 C 
ATOM     19  C3  <0> d          -0.729   0.248   3.313  0.00  0.00    -0.119 C 
ATOM     20  H6  <0> d          -1.771   0.034   3.121  0.00  0.00     0.067 H 
ATOM     21  H7  <0> d          -0.245  -0.163   4.186  0.00  0.00     0.067 H 
BRANCH  18  22
ATOM     22  C1  <0> d           1.399   1.304   2.752  0.00  0.00    -0.055 C 
ATOM     23  H3  <0> d           1.480   2.207   3.357  0.00  0.00     0.033 H 
ATOM     24  H4  <0> d           1.850   0.467   3.286  0.00  0.00     0.033 H 
ATOM     25  H5  <0> d           1.919   1.453   1.805  0.00  0.00     0.033 H 
ENDBRANCH  18  22
ENDBRANCH   1  18
BRANCH   7  26
ATOM     26  O1  <0> d          -2.830   3.362   0.245  0.00  0.00    -0.391 OA
ATOM     27  H16 <0> d          -3.371   3.691  -0.486  0.00  0.00     0.210 HD
ENDBRANCH   7  26
TORSDOF 3
