REMARK  5 active torsions:
REMARK  status: ('A' for Active; 'I' for Inactive)
REMARK    1  A    between atoms: C1_1  and  C2_2 
REMARK    2  A    between atoms: C2_2  and  C3_3 
REMARK    3  A    between atoms: C2_2  and  C4_4 
REMARK    4  A    between atoms: C4_4  and  C5_6 
REMARK    5  A    between atoms: C4_4  and  O1_9 
ROOT
ATOM      1  C5  <0> d          -0.772   1.460   3.762  0.00  0.00     0.039 C 
ATOM      2  C6  <0> d          -0.125   0.870   4.946  0.00  0.00     0.061 C 
ATOM      3  N1  <0> d           0.374   0.415   5.859  0.00  0.00    -0.197 NA
ATOM      4  H9  <0> d          -0.789   2.545   3.860  0.00  0.00     0.058 H 
ATOM      5  H10 <0> d          -1.794   1.087   3.683  0.00  0.00     0.058 H 
ENDROOT
BRANCH   1   6
ATOM      6  C4  <0> d           0.011   1.072   2.506  0.00  0.00     0.050 C 
ATOM      7  H1  <0> d           0.104  -0.013   2.456  0.00  0.00     0.084 H 
BRANCH   6   8
ATOM      8  C2  <0> d          -0.729   1.579   1.267  0.00  0.00    -0.035 C 
ATOM      9  H5  <0> d          -1.751   1.202   1.275  0.00  0.00     0.042 H 
BRANCH   8  10
ATOM     10  C1  <0> d          -0.013   1.086   0.008  0.00  0.00    -0.071 C 
ATOM     11  H2  <0> d           0.002  -0.004   0.002  0.00  0.00     0.028 H 
ATOM     12  H3  <0> d           1.010   1.463   0.000  0.00  0.00     0.028 H 
ATOM     13  H4  <0> d          -0.540   1.447  -0.875  0.00  0.00     0.028 H 
ENDBRANCH   8  10
BRANCH   8  14
ATOM     14  C3  <0> d          -0.750   3.109   1.275  0.00  0.00    -0.071 C 
ATOM     15  H6  <0> d          -1.277   3.470   0.392  0.00  0.00     0.028 H 
ATOM     16  H7  <0> d          -1.260   3.461   2.172  0.00  0.00     0.028 H 
ATOM     17  H8  <0> d           0.273   3.486   1.268  0.00  0.00     0.028 H 
ENDBRANCH   8  14
ENDBRANCH   6   8
BRANCH   6  18
ATOM     18  O1  <0> d           1.313   1.660   2.557  0.00  0.00    -0.394 OA
ATOM     19  H11 <0> d           1.307   2.626   2.603  0.00  0.00     0.210 HD
ENDBRANCH   6  18
ENDBRANCH   1   6
TORSDOF 5
