REMARK  9 active torsions:
REMARK  status: ('A' for Active; 'I' for Inactive)
REMARK    1  A    between atoms: C1_1  and  C2_2 
REMARK    2  A    between atoms: C2_2  and  C3_3 
REMARK    3  A    between atoms: C3_3  and  C4_4 
REMARK    4  A    between atoms: C4_4  and  C5_5 
REMARK    5  A    between atoms: C5_5  and  C6_7 
REMARK    6  A    between atoms: C5_5  and  C8_9 
REMARK    7  A    between atoms: C6_7  and  C7_8 
REMARK    8  A    between atoms: C8_9  and  C9_11 
REMARK    9  A    between atoms: C8_9  and  O1_13 
ROOT
ATOM      1  C9  <0> d          -2.798   1.467   0.731  0.00  0.00    -0.085 C 
ATOM      2  C10 <0> d          -3.572   1.682  -0.126  0.00  0.00    -0.151 C 
ATOM      3  H17 <0> d          -4.264   1.874  -0.892  0.00  0.00     0.166 H 
ENDROOT
BRANCH   1   4
ATOM      4  C8  <0> d          -1.829   1.197   1.805  0.00  0.00     0.096 C 
ATOM      5  H2  <0> d          -2.146   1.704   2.716  0.00  0.00     0.103 H 
BRANCH   4   6
ATOM      6  C5  <0> d          -0.450   1.713   1.388  0.00  0.00    -0.019 C 
ATOM      7  H1  <0> d          -0.528   2.758   1.087  0.00  0.00     0.045 H 
BRANCH   6   8
ATOM      8  C4  <0> d           0.517   1.594   2.568  0.00  0.00    -0.059 C 
ATOM      9  H10 <0> d           0.102   2.113   3.432  0.00  0.00     0.033 H 
ATOM     10  H11 <0> d           0.664   0.542   2.812  0.00  0.00     0.033 H 
BRANCH   8  11
ATOM     11  C3  <0> d           1.860   2.223   2.192  0.00  0.00    -0.065 C 
ATOM     12  H8  <0> d           2.276   1.704   1.328  0.00  0.00     0.033 H 
ATOM     13  H9  <0> d           1.713   3.275   1.948  0.00  0.00     0.033 H 
BRANCH  11  14
ATOM     14  C2  <0> d           2.827   2.104   3.372  0.00  0.00    -0.069 C 
ATOM     15  H6  <0> d           2.412   2.623   4.236  0.00  0.00     0.032 H 
ATOM     16  H7  <0> d           2.974   1.052   3.616  0.00  0.00     0.032 H 
BRANCH  14  17
ATOM     17  C1  <0> d           4.170   2.733   2.996  0.00  0.00    -0.077 C 
ATOM     18  H3  <0> d           4.585   2.214   2.132  0.00  0.00     0.027 H 
ATOM     19  H4  <0> d           4.023   3.785   2.752  0.00  0.00     0.027 H 
ATOM     20  H5  <0> d           4.859   2.648   3.837  0.00  0.00     0.027 H 
ENDBRANCH  14  17
ENDBRANCH  11  14
ENDBRANCH   8  11
ENDBRANCH   6   8
BRANCH   6  21
ATOM     21  C6  <0> d           0.073   0.882   0.215  0.00  0.00    -0.062 C 
ATOM     22  H12 <0> d           0.032  -0.176   0.473  0.00  0.00     0.033 H 
ATOM     23  H13 <0> d           1.103   1.164  -0.000  0.00  0.00     0.033 H 
BRANCH  21  24
ATOM     24  C7  <0> d          -0.795   1.140  -1.019  0.00  0.00    -0.076 C 
ATOM     25  H14 <0> d          -0.287   0.760  -1.906  0.00  0.00     0.027 H 
ATOM     26  H15 <0> d          -1.752   0.632  -0.902  0.00  0.00     0.027 H 
ATOM     27  H16 <0> d          -0.963   2.211  -1.127  0.00  0.00     0.027 H 
ENDBRANCH  21  24
ENDBRANCH   6  21
ENDBRANCH   4   6
BRANCH   4  28
ATOM     28  O1  <0> d          -1.759  -0.210   2.042  0.00  0.00    -0.383 OA
ATOM     29  H18 <0> d          -1.482  -0.725   1.272  0.00  0.00     0.211 HD
ENDBRANCH   4  28
ENDBRANCH   1   4
TORSDOF 9
