REMARK  2 active torsions:
REMARK  status: ('A' for Active; 'I' for Inactive)
REMARK    1  A    between atoms: C2_2  and  O2_9 
REMARK    2  A    between atoms: C3_3  and  C5_7 
ROOT
ATOM      1  C1  <0> d          -0.005  -0.716  -1.199  0.00  0.00     0.038 A 
ATOM      2  C2  <0> d           0.002  -0.004   0.002  0.00  0.00     0.119 A 
ATOM      3  C3  <0> d           0.023  -0.731   1.200  0.00  0.00     0.168 A 
ATOM      4  N1  <0> d           0.040  -2.062   1.142  0.00  0.00    -0.232 NA
ATOM      5  C4  <0> d           0.037  -2.686  -0.015  0.00  0.00     0.087 A 
ATOM      6  N2  <0> d           0.018  -2.035  -1.163  0.00  0.00    -0.251 NA
ATOM      7  H1  <0> d          -0.026  -0.194  -2.144  0.00  0.00     0.119 H 
ATOM      8  H2  <0> d           0.052  -3.766  -0.026  0.00  0.00     0.146 H 
ENDROOT
BRANCH   3   9
ATOM      9  C5  <0> d           0.027  -0.033   2.505  0.00  0.00     0.232 C 
ATOM     10  O1  <0> d           0.012   1.181   2.545  0.00  0.00    -0.643 OA
ATOM     11  O3  <0> d           0.048  -0.744   3.649  0.00  0.00    -0.643 OA
ENDBRANCH   3   9
BRANCH   2  12
ATOM     12  O2  <0> d          -0.016   1.352   0.009  0.00  0.00    -0.357 OA
ATOM     13  H3  <0> d           0.862   1.758   0.003  0.00  0.00     0.218 HD
ENDBRANCH   2  12
TORSDOF 2
