REMARK  5 active torsions:
REMARK  status: ('A' for Active; 'I' for Inactive)
REMARK    1  A    between atoms: C1_1  and  C2_2 
REMARK    2  A    between atoms: C6_7  and  C7_8 
REMARK    3  A    between atoms: C7_8  and  C8_9 
REMARK    4  A    between atoms: C8_9  and  C9_11 
REMARK    5  A    between atoms: C8_9  and  O1_12 
ROOT
ATOM      1  C2  <0> d          -1.748   0.818  -1.768  0.00  0.00    -0.037 A 
ATOM      2  C3  <0> d          -2.416   1.289  -2.889  0.00  0.00    -0.074 A 
ATOM      3  C4  <0> d          -2.037   2.514  -3.417  0.00  0.00    -0.066 A 
ATOM      4  C5  <0> d          -1.017   3.222  -2.810  0.00  0.00     0.003 A 
ATOM      5  N1  <0> d          -0.408   2.746  -1.742  0.00  0.00    -0.265 NA
ATOM      6  C6  <0> d          -0.742   1.585  -1.213  0.00  0.00     0.042 A 
ATOM      7  H5  <0> d          -3.210   0.714  -3.342  0.00  0.00     0.084 H 
ATOM      8  H6  <0> d          -2.532   2.909  -4.291  0.00  0.00     0.085 H 
ATOM      9  H7  <0> d          -0.716   4.177  -3.215  0.00  0.00     0.114 H 
ENDROOT
BRANCH   6  10
ATOM     10  C7  <0> d          -0.013   1.086   0.008  0.00  0.00    -0.001 C 
ATOM     11  H8  <0> d           0.002  -0.014   0.002  0.00  0.00     0.046 H 
ATOM     12  H9  <0> d           1.019   1.466   0.000  0.00  0.00     0.046 H 
BRANCH  10  13
ATOM     13  C8  <0> d          -0.729   1.579   1.267  0.00  0.00     0.037 C 
ATOM     14  H1  <0> d          -1.802   1.342   1.234  0.00  0.00     0.082 H 
BRANCH  13  15
ATOM     15  C9  <0> d          -0.064   0.971   2.503  0.00  0.00    -0.052 C 
ATOM     16  H10 <0> d          -0.579   1.326   3.408  0.00  0.00     0.030 H 
ATOM     17  H11 <0> d           0.992   1.276   2.539  0.00  0.00     0.030 H 
ATOM     18  H12 <0> d          -0.127  -0.126   2.452  0.00  0.00     0.030 H 
ENDBRANCH  13  15
BRANCH  13  19
ATOM     19  O1  <0> d          -0.647   3.004   1.334  0.00  0.00    -0.396 OA
ATOM     20  H13 <0> d          -1.107   3.543   2.175  0.00  0.00     0.210 HD
ENDBRANCH  13  19
ENDBRANCH  10  13
ENDBRANCH   6  10
BRANCH   1  21
ATOM     21  C1  <0> d          -2.119  -0.510  -1.161  0.00  0.00    -0.049 C 
ATOM     22  H2  <0> d          -2.936  -0.963  -1.742  0.00  0.00     0.033 H 
ATOM     23  H3  <0> d          -2.449  -0.358  -0.122  0.00  0.00     0.033 H 
ATOM     24  H4  <0> d          -1.245  -1.177  -1.175  0.00  0.00     0.033 H 
ENDBRANCH   1  21
TORSDOF 5
