REMARK  2 active torsions:
REMARK  status: ('A' for Active; 'I' for Inactive)
REMARK    1  A    between atoms: N2_4  and  C3_6 
REMARK    2  A    between atoms: C3_6  and  C4_7 
ROOT
ATOM      1  C1  <0> d          -3.732  -0.681  -0.539  0.00  0.00     0.107 A 
ATOM      2  N1  <0> d          -4.212  -0.097   0.558  0.00  0.00    -0.234 NA
ATOM      3  C2  <0> d          -3.438   0.900   0.905  0.00  0.00     0.084 A 
ATOM      4  N2  <0> d          -2.430   0.973   0.019  0.00  0.00    -0.252 N 
ATOM      5  N3  <0> d          -2.644  -0.059  -0.910  0.00  0.00    -0.164 NA
ATOM      6  H1  <0> d          -4.173  -1.529  -1.042  0.00  0.00     0.149 H 
ATOM      7  H2  <0> d          -3.584   1.550   1.755  0.00  0.00     0.146 H 
ENDROOT
BRANCH   4   8
ATOM      8  C3  <0> d          -1.329   1.940   0.019  0.00  0.00     0.098 C 
ATOM      9  H3  <0> d          -1.391   2.561   0.913  0.00  0.00     0.084 H 
ATOM     10  H4  <0> d          -1.400   2.570  -0.867  0.00  0.00     0.084 H 
BRANCH   8  11
ATOM     11  C4  <0> d          -0.014   1.204   0.009  0.00  0.00     0.193 C 
ATOM     12  O1  <0> d           0.002  -0.004   0.002  0.00  0.00    -0.647 OA
ATOM     13  O2  <0> d           1.139   1.891   0.001  0.00  0.00    -0.647 OA
ENDBRANCH   8  11
ENDBRANCH   4   8
TORSDOF 2
