REMARK  7 active torsions:
REMARK  status: ('A' for Active; 'I' for Inactive)
REMARK    1  A    between atoms: C1_1  and  C2_2 
REMARK    2  A    between atoms: C2_2  and  C3_3 
REMARK    3  A    between atoms: C2_2  and  C4_4 
REMARK    4  A    between atoms: C4_4  and  C5_5 
REMARK    5  A    between atoms: C5_5  and  C6_6 
REMARK    6  A    between atoms: C5_5  and  C7_7 
REMARK    7  A    between atoms: C5_5  and  O2_10 
REMARK       I    between atoms: C7_7  and  N1_9 
ROOT
ATOM      1  C4  <0> d          -1.512  -0.523   0.087  0.00  0.00    -0.025 C 
ATOM      2  H8  <0> d          -2.150  -0.339  -0.778  0.00  0.00     0.038 H 
ATOM      3  H9  <0> d          -1.439  -1.597   0.262  0.00  0.00     0.038 H 
ENDROOT
BRANCH   1   4
ATOM      4  C2  <0> d          -2.115   0.154   1.319  0.00  0.00    -0.058 C 
ATOM      5  H4  <0> d          -2.085   1.236   1.189  0.00  0.00     0.039 H 
BRANCH   4   6
ATOM      6  C1  <0> d          -3.567  -0.299   1.490  0.00  0.00    -0.073 C 
ATOM      7  H1  <0> d          -3.598  -1.382   1.608  0.00  0.00     0.028 H 
ATOM      8  H2  <0> d          -3.993   0.175   2.374  0.00  0.00     0.028 H 
ATOM      9  H3  <0> d          -4.143  -0.012   0.611  0.00  0.00     0.028 H 
ENDBRANCH   4   6
BRANCH   4  10
ATOM     10  C3  <0> d          -1.310  -0.234   2.560  0.00  0.00    -0.073 C 
ATOM     11  H5  <0> d          -0.319   0.218   2.506  0.00  0.00     0.028 H 
ATOM     12  H6  <0> d          -1.823   0.123   3.453  0.00  0.00     0.028 H 
ATOM     13  H7  <0> d          -1.213  -1.319   2.606  0.00  0.00     0.028 H 
ENDBRANCH   4  10
ENDBRANCH   1   4
BRANCH   1  14
ATOM     14  C5  <0> d          -0.117   0.047  -0.177  0.00  0.00     0.135 C 
BRANCH  14  15
ATOM     15  C6  <0> d          -0.201   1.571  -0.280  0.00  0.00    -0.040 C 
ATOM     16  H10 <0> d           0.770   1.969  -0.577  0.00  0.00     0.032 H 
ATOM     17  H11 <0> d          -0.949   1.845  -1.024  0.00  0.00     0.032 H 
ATOM     18  H12 <0> d          -0.482   1.986   0.688  0.00  0.00     0.032 H 
ENDBRANCH  14  15
BRANCH  14  19
ATOM     19  C7  <0> d           0.419  -0.515  -1.469  0.00  0.00     0.249 C 
ATOM     20  O1  <0> d          -0.346  -0.904  -2.325  0.00  0.00    -0.270 OA
ATOM     21  N1  <0> d           1.750  -0.585  -1.672  0.00  0.00    -0.368 N 
ATOM     22  H13 <0> d           2.362  -0.274  -0.987  0.00  0.00     0.159 HD
ATOM     23  H14 <0> d           2.095  -0.947  -2.503  0.00  0.00     0.159 HD
ENDBRANCH  14  19
BRANCH  14  24
ATOM     24  O2  <0> d           0.755  -0.311   0.897  0.00  0.00    -0.381 OA
ATOM     25  H15 <0> d           0.855  -1.265   1.020  0.00  0.00     0.211 HD
ENDBRANCH  14  24
ENDBRANCH   1  14
TORSDOF 7
