REMARK  5 active torsions:
REMARK  status: ('A' for Active; 'I' for Inactive)
REMARK    1  A    between atoms: C1_1  and  C2_2 
REMARK    2  A    between atoms: C2_2  and  C3_3 
REMARK    3  A    between atoms: C2_2  and  C4_4 
REMARK    4  A    between atoms: C4_4  and  C5_5 
REMARK    5  A    between atoms: C5_5  and  C6_6 
ROOT
ATOM      1  C2  <0> d          -0.013   1.086   0.008  0.00  0.00    -0.061 C 
ATOM      2  H4  <0> d           0.002  -0.004   0.002  0.00  0.00     0.038 H 
ENDROOT
BRANCH   1   3
ATOM      3  C1  <0> d           1.423   1.615  -0.003  0.00  0.00    -0.073 C 
ATOM      4  H1  <0> d           1.408   2.705   0.003  0.00  0.00     0.028 H 
ATOM      5  H2  <0> d           1.950   1.254   0.880  0.00  0.00     0.028 H 
ATOM      6  H3  <0> d           1.933   1.264  -0.900  0.00  0.00     0.028 H 
ENDBRANCH   1   3
BRANCH   1   7
ATOM      7  C3  <0> d          -0.753   1.593  -1.232  0.00  0.00    -0.073 C 
ATOM      8  H5  <0> d          -0.242   1.241  -2.128  0.00  0.00     0.028 H 
ATOM      9  H6  <0> d          -1.775   1.215  -1.224  0.00  0.00     0.028 H 
ATOM     10  H7  <0> d          -0.767   2.683  -1.226  0.00  0.00     0.028 H 
ENDBRANCH   1   7
BRANCH   1  11
ATOM     11  C4  <0> d          -0.729   1.579   1.267  0.00  0.00    -0.053 C 
ATOM     12  H8  <0> d          -0.666   2.666   1.318  0.00  0.00     0.034 H 
ATOM     13  H9  <0> d          -1.776   1.277   1.232  0.00  0.00     0.034 H 
BRANCH  11  14
ATOM     14  C5  <0> d          -0.064   0.971   2.503  0.00  0.00     0.016 C 
ATOM     15  H10 <0> d          -0.126  -0.116   2.452  0.00  0.00     0.049 H 
ATOM     16  H11 <0> d           0.983   1.274   2.539  0.00  0.00     0.049 H 
BRANCH  14  17
ATOM     17  C6  <0> d          -0.769   1.457   3.743  0.00  0.00     0.172 C 
ATOM     18  O1  <0> d          -1.708   2.212   3.648  0.00  0.00    -0.648 OA
ATOM     19  O2  <0> d          -0.355   1.051   4.954  0.00  0.00    -0.648 OA
ENDBRANCH  14  17
ENDBRANCH  11  14
ENDBRANCH   1  11
TORSDOF 5
