REMARK  4 active torsions:
REMARK  status: ('A' for Active; 'I' for Inactive)
REMARK    1  A    between atoms: C1_1  and  C2_2 
REMARK    2  A    between atoms: C4_4  and  O1_9 
REMARK    3  A    between atoms: C6_7  and  N2_8 
REMARK    4  A    between atoms: O1_9  and  C7_10 
ROOT
ATOM      1  C2  <0> d           1.171   1.792   0.001  0.00  0.00    -0.030 A 
ATOM      2  C3  <0> d          -0.013   1.076   0.008  0.00  0.00    -0.024 A 
ATOM      3  C4  <0> d          -1.220   1.762   0.017  0.00  0.00     0.164 A 
ATOM      4  N1  <0> d          -1.246   3.084   0.030  0.00  0.00    -0.235 NA
ATOM      5  C5  <0> d          -0.138   3.800   0.024  0.00  0.00     0.031 A 
ATOM      6  C6  <0> d           1.104   3.184   0.009  0.00  0.00     0.049 A 
ATOM      7  H4  <0> d           0.002  -0.004   0.002  0.00  0.00     0.091 H 
ATOM      8  H5  <0> d          -0.200   4.879   0.030  0.00  0.00     0.118 H 
ENDROOT
BRANCH   3   9
ATOM      9  O1  <0> d          -2.386   1.067   0.019  0.00  0.00    -0.339 OA
BRANCH   9  10
ATOM     10  C7  <0> d          -3.595   1.830   0.029  0.00  0.00     0.012 C 
ATOM     11  H8  <0> d          -3.624   2.453   0.922  0.00  0.00     0.067 H 
ATOM     12  H9  <0> d          -3.632   2.463  -0.858  0.00  0.00     0.067 H 
ATOM     13  H10 <0> d          -4.450   1.154   0.029  0.00  0.00     0.067 H 
ENDBRANCH   9  10
ENDBRANCH   3   9
BRANCH   1  14
ATOM     14  C1  <0> d           2.502   1.084  -0.016  0.00  0.00    -0.049 C 
ATOM     15  H1  <0> d           2.812   0.919  -1.047  0.00  0.00     0.033 H 
ATOM     16  H2  <0> d           3.245   1.696   0.494  0.00  0.00     0.033 H 
ATOM     17  H3  <0> d           2.409   0.125   0.494  0.00  0.00     0.033 H 
ENDBRANCH   1  14
BRANCH   6  18
ATOM     18  N2  <0> d           2.276   3.950   0.002  0.00  0.00    -0.398 N 
ATOM     19  H6  <0> d           3.141   3.513  -0.008  0.00  0.00     0.156 HD
ATOM     20  H7  <0> d           2.222   4.919   0.008  0.00  0.00     0.156 HD
ENDBRANCH   6  18
TORSDOF 4
