REMARK  2 active torsions:
REMARK  status: ('A' for Active; 'I' for Inactive)
REMARK    1  A    between atoms: C3_5  and  C4_6 
REMARK    2  A    between atoms: C4_6  and  O2_7 
ROOT
ATOM      1  C1  <0> d          -1.879   2.377   1.301  0.00  0.00    -0.031 A 
ATOM      2  C2  <0> d          -2.110   2.530   2.627  0.00  0.00     0.046 A 
ATOM      3  O1  <0> d          -1.137   1.863   3.262  0.00  0.00    -0.225 OA
ATOM      4  N1  <0> d          -0.376   1.339   2.482  0.00  0.00    -0.131 NA
ATOM      5  C3  <0> d          -0.718   1.572   1.248  0.00  0.00     0.087 A 
ATOM      6  H1  <0> d          -2.451   2.774   0.476  0.00  0.00     0.089 H 
ATOM      7  H2  <0> d          -2.917   3.086   3.083  0.00  0.00     0.126 H 
ENDROOT
BRANCH   5   8
ATOM      8  C4  <0> d          -0.013   1.086   0.008  0.00  0.00     0.059 C 
ATOM      9  H3  <0> d           1.019   1.466   0.000  0.00  0.00     0.083 H 
ATOM     10  H4  <0> d           0.002  -0.014   0.002  0.00  0.00     0.083 H 
BRANCH   8  11
ATOM     11  O2  <0> d          -0.704   1.559  -1.150  0.00  0.00    -0.395 OA
ATOM     12  H5  <0> d          -0.334   1.304  -2.154  0.00  0.00     0.209 HD
ENDBRANCH   8  11
ENDBRANCH   5   8
TORSDOF 2
