REMARK  5 active torsions:
REMARK  status: ('A' for Active; 'I' for Inactive)
REMARK    1  A    between atoms: C1_1  and  O1_2 
REMARK    2  A    between atoms: O1_2  and  C2_3 
REMARK    3  A    between atoms: C2_3  and  C3_5 
REMARK    4  A    between atoms: C3_5  and  C4_6 
REMARK    5  A    between atoms: C4_6  and  C5_7 
ROOT
ATOM      1  C4  <0> d          -0.729   1.579   1.267  0.00  0.00    -0.018 C 
ATOM      2  H7  <0> d          -0.744   2.679   1.273  0.00  0.00     0.043 H 
ATOM      3  H8  <0> d          -1.761   1.198   1.275  0.00  0.00     0.043 H 
ENDROOT
BRANCH   1   4
ATOM      4  C3  <0> d          -0.013   1.086   0.008  0.00  0.00     0.021 C 
ATOM      5  H5  <0> d           0.002  -0.014   0.002  0.00  0.00     0.048 H 
ATOM      6  H6  <0> d           1.019   1.466   0.000  0.00  0.00     0.048 H 
BRANCH   4   7
ATOM      7  C2  <0> d          -0.742   1.585  -1.213  0.00  0.00     0.258 C 
ATOM      8  O2  <0> d          -1.732   2.266  -1.089  0.00  0.00    -0.265 OA
BRANCH   7   9
ATOM      9  O1  <0> d          -0.290   1.274  -2.438  0.00  0.00    -0.326 OA
BRANCH   9  10
ATOM     10  C1  <0> d          -1.042   1.789  -3.568  0.00  0.00     0.013 C 
ATOM     11  H2  <0> d          -0.567   1.461  -4.505  0.00  0.00     0.067 H 
ATOM     12  H3  <0> d          -1.056   2.888  -3.529  0.00  0.00     0.067 H 
ATOM     13  H4  <0> d          -2.073   1.407  -3.527  0.00  0.00     0.067 H 
ENDBRANCH   9  10
ENDBRANCH   7   9
ENDBRANCH   4   7
ENDBRANCH   1   4
BRANCH   1  14
ATOM     14  C5  <0> d           0.000   1.080   2.488  0.00  0.00     0.009 A 
ATOM     15  N1  <0> d           0.945   1.766   3.191  0.00  0.00    -0.369 N 
ATOM     16  C8  <0> d           1.372   0.989   4.226  0.00  0.00    -0.023 A 
ATOM     17  H1  <0> d           1.236   2.780   2.877  0.00  0.00     0.165 HD
ATOM     18  C7  <0> d           0.701  -0.181   4.179  0.00  0.00    -0.066 A 
ATOM     19  H11 <0> d           2.117   1.262   4.958  0.00  0.00     0.111 H 
ATOM     20  C6  <0> d          -0.174  -0.120   3.077  0.00  0.00    -0.060 A 
ATOM     21  H10 <0> d           0.812  -1.009   4.863  0.00  0.00     0.085 H 
ATOM     22  H9  <0> d          -0.858  -0.894   2.761  0.00  0.00     0.086 H 
ENDBRANCH   1  14
TORSDOF 5
