REMARK  6 active torsions:
REMARK  status: ('A' for Active; 'I' for Inactive)
REMARK    1  A    between atoms: C1_1  and  C2_2 
REMARK    2  A    between atoms: C2_2  and  C3_3 
REMARK    3  A    between atoms: C3_3  and  C4_4 
REMARK    4  A    between atoms: C4_4  and  C5_5 
REMARK    5  A    between atoms: C5_5  and  C6_6 
REMARK    6  A    between atoms: C6_6  and  C7_7 
ROOT
ATOM      1  C5  <0> d          -0.729   1.579   1.267  0.00  0.00    -0.061 C 
ATOM      2  H10 <0> d          -0.744   2.669   1.273  0.00  0.00     0.033 H 
ATOM      3  H11 <0> d          -1.751   1.202   1.275  0.00  0.00     0.033 H 
ENDROOT
BRANCH   1   4
ATOM      4  C4  <0> d          -0.013   1.086   0.008  0.00  0.00    -0.065 C 
ATOM      5  H8  <0> d           0.002  -0.004   0.002  0.00  0.00     0.033 H 
ATOM      6  H9  <0> d           1.010   1.463   0.000  0.00  0.00     0.033 H 
BRANCH   4   7
ATOM      7  C3  <0> d          -0.753   1.593  -1.232  0.00  0.00    -0.065 C 
ATOM      8  H6  <0> d          -1.775   1.215  -1.224  0.00  0.00     0.033 H 
ATOM      9  H7  <0> d          -0.767   2.683  -1.226  0.00  0.00     0.033 H 
BRANCH   7  10
ATOM     10  C2  <0> d          -0.037   1.099  -2.490  0.00  0.00    -0.069 C 
ATOM     11  H4  <0> d           0.986   1.476  -2.498  0.00  0.00     0.032 H 
ATOM     12  H5  <0> d          -0.022   0.009  -2.496  0.00  0.00     0.032 H 
BRANCH  10  13
ATOM     13  C1  <0> d          -0.777   1.606  -3.730  0.00  0.00    -0.077 C 
ATOM     14  H1  <0> d          -0.791   2.696  -3.724  0.00  0.00     0.027 H 
ATOM     15  H2  <0> d          -0.266   1.254  -4.627  0.00  0.00     0.027 H 
ATOM     16  H3  <0> d          -1.799   1.229  -3.722  0.00  0.00     0.027 H 
ENDBRANCH  10  13
ENDBRANCH   7  10
ENDBRANCH   4   7
ENDBRANCH   1   4
BRANCH   1  17
ATOM     17  C6  <0> d           0.011   1.072   2.506  0.00  0.00    -0.019 C 
ATOM     18  H12 <0> d           0.026  -0.018   2.500  0.00  0.00     0.040 H 
ATOM     19  H13 <0> d           1.034   1.450   2.499  0.00  0.00     0.040 H 
BRANCH  17  20
ATOM     20  C7  <0> d          -0.705   1.566   3.765  0.00  0.00     0.131 C 
ATOM     21  O2  <0> d          -0.089   0.993   4.926  0.00  0.00    -0.359 OA
ATOM     22  C9  <0> d           0.383   2.083   5.743  0.00  0.00     0.042 C 
ATOM     23  C8  <0> d          -0.476   3.279   5.262  0.00  0.00     0.042 C 
ATOM     24  H17 <0> d           0.203   1.879   6.799  0.00  0.00     0.077 H 
ATOM     25  H18 <0> d           1.442   2.268   5.564  0.00  0.00     0.077 H 
ATOM     26  O1  <0> d          -0.603   2.997   3.849  0.00  0.00    -0.359 OA
ATOM     27  H15 <0> d          -1.450   3.281   5.750  0.00  0.00     0.077 H 
ATOM     28  H16 <0> d           0.044   4.223   5.426  0.00  0.00     0.077 H 
ATOM     29  H14 <0> d          -1.755   1.276   3.727  0.00  0.00     0.129 H 
ENDBRANCH  17  20
ENDBRANCH   1  17
TORSDOF 6
