REMARK  4 active torsions:
REMARK  status: ('A' for Active; 'I' for Inactive)
REMARK    1  A    between atoms: C1_1  and  C2_2 
REMARK    2  A    between atoms: C4_5  and  C8_12 
REMARK    3  A    between atoms: C4_5  and  C9_13 
REMARK    4  A    between atoms: C5_7  and  C6_10 
ROOT
ATOM      1  C2  <0> d          -2.223  -0.136  -1.115  0.00  0.00     0.041 C 
ATOM      2  H1  <0> d          -3.201  -0.588  -0.946  0.00  0.00     0.083 H 
ATOM      3  C3  <0> d          -1.274  -0.527   0.024  0.00  0.00    -0.013 C 
ATOM      4  C4  <0> d           0.129  -0.003  -0.299  0.00  0.00     0.059 C 
ATOM      5  O1  <0> d           0.522  -0.484  -1.588  0.00  0.00    -0.348 OA
ATOM      6  C5  <0> d          -0.375  -0.109  -2.639  0.00  0.00     0.149 C 
ATOM      7  H2  <0> d          -0.410   0.977  -2.715  0.00  0.00     0.136 H 
ATOM      8  O2  <0> d          -1.683  -0.610  -2.352  0.00  0.00    -0.353 OA
ATOM      9  H6  <0> d          -1.246  -1.612   0.119  0.00  0.00     0.041 H 
ATOM     10  H7  <0> d          -1.622  -0.087   0.959  0.00  0.00     0.041 H 
ENDROOT
BRANCH   4  11
ATOM     11  C8  <0> d           0.115   1.527  -0.306  0.00  0.00    -0.048 C 
ATOM     12  H11 <0> d           1.109   1.901  -0.061  0.00  0.00     0.031 H 
ATOM     13  H12 <0> d          -0.173   1.883  -1.296  0.00  0.00     0.031 H 
ATOM     14  H13 <0> d          -0.601   1.888   0.432  0.00  0.00     0.031 H 
ENDBRANCH   4  11
BRANCH   4  15
ATOM     15  C9  <0> d           1.117  -0.500   0.758  0.00  0.00    -0.048 C 
ATOM     16  H14 <0> d           0.815  -0.136   1.739  0.00  0.00     0.031 H 
ATOM     17  H15 <0> d           1.126  -1.590   0.762  0.00  0.00     0.031 H 
ATOM     18  H16 <0> d           2.116  -0.130   0.524  0.00  0.00     0.031 H 
ENDBRANCH   4  15
BRANCH   1  19
ATOM     19  C1  <0> d          -2.362   1.387  -1.165  0.00  0.00    -0.052 C 
ATOM     20  H3  <0> d          -1.571   1.803  -1.788  0.00  0.00     0.030 H 
ATOM     21  H4  <0> d          -3.332   1.649  -1.587  0.00  0.00     0.030 H 
ATOM     22  H5  <0> d          -2.282   1.793  -0.157  0.00  0.00     0.030 H 
ENDBRANCH   1  19
BRANCH   6  23
ATOM     23  C6  <0> d           0.110  -0.689  -3.942  0.00  0.00    -0.060 C 
ATOM     24  C7  <0> d           0.411   0.104  -4.941  0.00  0.00    -0.120 C 
ATOM     25  H9  <0> d           0.312   1.173  -4.829  0.00  0.00     0.066 H 
ATOM     26  H10 <0> d           0.759  -0.312  -5.875  0.00  0.00     0.066 H 
ATOM     27  H8  <0> d           0.210  -1.759  -4.054  0.00  0.00     0.083 H 
ENDBRANCH   6  23
TORSDOF 4
