REMARK  5 active torsions:
REMARK  status: ('A' for Active; 'I' for Inactive)
REMARK    1  A    between atoms: C1_1  and  C2_2 
REMARK    2  A    between atoms: C3_3  and  C9_11 
REMARK    3  A    between atoms: C4_5  and  C6_8 
REMARK    4  A    between atoms: C6_8  and  C7_9 
REMARK    5  A    between atoms: C6_8  and  C8_10 
ROOT
ATOM      1  C2  <0> d           2.272   1.411  -0.012  0.00  0.00     0.054 A 
ATOM      2  C3  <0> d           2.291   0.027  -0.020  0.00  0.00     0.055 A 
ATOM      3  N1  <0> d           1.155  -0.649  -0.012  0.00  0.00    -0.254 NA
ATOM      4  C4  <0> d           0.002  -0.004   0.002  0.00  0.00     0.056 A 
ATOM      5  C5  <0> d          -0.017   1.379   0.010  0.00  0.00     0.027 A 
ATOM      6  N2  <0> d           1.119   2.055   0.002  0.00  0.00    -0.262 NA
ATOM      7  H4  <0> d          -0.959   1.906   0.017  0.00  0.00     0.117 H 
ENDROOT
BRANCH   4   8
ATOM      8  C6  <0> d          -1.293  -0.775   0.010  0.00  0.00    -0.017 C 
ATOM      9  H5  <0> d          -1.107  -1.769   0.443  0.00  0.00     0.048 H 
BRANCH   8  10
ATOM     10  C7  <0> d          -2.328  -0.025   0.851  0.00  0.00    -0.068 C 
ATOM     11  H6  <0> d          -3.273  -0.588   0.856  0.00  0.00     0.028 H 
ATOM     12  H7  <0> d          -2.498   0.972   0.419  0.00  0.00     0.028 H 
ATOM     13  H8  <0> d          -1.957   0.079   1.881  0.00  0.00     0.028 H 
ENDBRANCH   8  10
BRANCH   8  14
ATOM     14  C8  <0> d          -1.808  -0.920  -1.423  0.00  0.00    -0.068 C 
ATOM     15  H9  <0> d          -2.753  -1.483  -1.418  0.00  0.00     0.028 H 
ATOM     16  H10 <0> d          -1.064  -1.460  -2.028  0.00  0.00     0.028 H 
ATOM     17  H11 <0> d          -1.978   0.077  -1.855  0.00  0.00     0.028 H 
ENDBRANCH   8  14
ENDBRANCH   4   8
BRANCH   2  18
ATOM     18  C9  <0> d           3.606  -0.709  -0.037  0.00  0.00    -0.034 C 
ATOM     19  H12 <0> d           3.419  -1.793  -0.041  0.00  0.00     0.035 H 
ATOM     20  H13 <0> d           4.188  -0.440   0.857  0.00  0.00     0.035 H 
ATOM     21  H14 <0> d           4.170  -0.430  -0.939  0.00  0.00     0.035 H 
ENDBRANCH   2  18
BRANCH   1  22
ATOM     22  C1  <0> d           3.566   2.182  -0.020  0.00  0.00    -0.034 C 
ATOM     23  H1  <0> d           4.412   1.478  -0.032  0.00  0.00     0.035 H 
ATOM     24  H2  <0> d           3.624   2.810   0.881  0.00  0.00     0.035 H 
ATOM     25  H3  <0> d           3.608   2.820  -0.915  0.00  0.00     0.035 H 
ENDBRANCH   1  22
TORSDOF 5
