REMARK  2 active torsions:
REMARK  status: ('A' for Active; 'I' for Inactive)
REMARK    1  A    between atoms: C1_1  and  C2_2 
REMARK    2  A    between atoms: C8_10  and  C9_11 
ROOT
ATOM      1  C2  <0> d           1.459   3.365   0.005  0.00  0.00     0.013 A 
ATOM      2  C3  <0> d           2.808   3.521  -0.007  0.00  0.00    -0.059 A 
ATOM      3  C4  <0> d           3.389   2.251  -0.018  0.00  0.00    -0.053 A 
ATOM      4  C5  <0> d           2.355   1.333  -0.013  0.00  0.00     0.063 A 
ATOM      5  N1  <0> d           1.168   2.041   0.002  0.00  0.00    -0.323 N 
ATOM      6  C6  <0> d          -0.016   1.342   0.009  0.00  0.00     0.002 A 
ATOM      7  C7  <0> d           0.002  -0.004   0.002  0.00  0.00     0.018 A 
ATOM      8  N2  <0> d           1.152  -0.688  -0.013  0.00  0.00    -0.262 NA
ATOM      9  C8  <0> d           2.312  -0.074  -0.021  0.00  0.00     0.057 A 
ATOM     10  H4  <0> d           3.338   4.462  -0.008  0.00  0.00     0.086 H 
ATOM     11  H5  <0> d           4.446   2.029  -0.029  0.00  0.00     0.087 H 
ATOM     12  H6  <0> d          -0.958   1.871   0.017  0.00  0.00     0.114 H 
ATOM     13  H7  <0> d          -0.933  -0.544   0.008  0.00  0.00     0.116 H 
ENDROOT
BRANCH   1  14
ATOM     14  C1  <0> d           0.449   4.483   0.021  0.00  0.00    -0.037 C 
ATOM     15  H1  <0> d           0.216   4.747   1.053  0.00  0.00     0.035 H 
ATOM     16  H2  <0> d           0.860   5.352  -0.492  0.00  0.00     0.035 H 
ATOM     17  H3  <0> d          -0.460   4.158  -0.485  0.00  0.00     0.035 H 
ENDBRANCH   1  14
BRANCH   9  18
ATOM     18  C9  <0> d           3.590  -0.872  -0.037  0.00  0.00    -0.033 C 
ATOM     19  H8  <0> d           3.889  -1.058  -1.069  0.00  0.00     0.035 H 
ATOM     20  H9  <0> d           4.375  -0.311   0.472  0.00  0.00     0.035 H 
ATOM     21  H10 <0> d           3.433  -1.822   0.473  0.00  0.00     0.035 H 
ENDBRANCH   9  18
TORSDOF 2
