REMARK  0 active torsions:
REMARK  status: ('A' for Active; 'I' for Inactive)
ROOT
ATOM      1  C1  <0> d           1.547  -2.059  -0.023  0.00  0.00    -0.037 A 
ATOM      2  C2  <0> d           2.890  -2.103  -0.036  0.00  0.00    -0.019 A 
ATOM      3  N1  <0> d           3.398  -0.833  -0.034  0.00  0.00    -0.349 N 
ATOM      4  H1  <0> d           4.487  -0.677  -0.044  0.00  0.00     0.167 HD
ATOM      5  C3  <0> d           2.374   0.082  -0.020  0.00  0.00     0.158 A 
ATOM      6  C4  <0> d           1.166  -0.646  -0.013  0.00  0.00     0.103 A 
ATOM      7  N2  <0> d           0.002  -0.004   0.002  0.00  0.00    -0.254 NA
ATOM      8  C5  <0> d          -0.016   1.315   0.009  0.00  0.00     0.042 A 
ATOM      9  C6  <0> d           1.173   2.033   0.002  0.00  0.00     0.145 A 
ATOM     10  N3  <0> d           2.336   1.408  -0.013  0.00  0.00    -0.215 NA
ATOM     11 Cl1  <0> d           1.129   3.768   0.011  0.00  0.00    -0.061 Cl
ATOM     12  H2  <0> d           0.877  -2.906  -0.022  0.00  0.00     0.089 H 
ATOM     13  H3  <0> d           3.480  -3.007  -0.046  0.00  0.00     0.111 H 
ATOM     14  H4  <0> d          -0.960   1.839   0.017  0.00  0.00     0.119 H 
ENDROOT
TORSDOF 0
