REMARK  2 active torsions:
REMARK  status: ('A' for Active; 'I' for Inactive)
REMARK    1  A    between atoms: C1_1  and  S1_2 
REMARK    2  A    between atoms: S1_2  and  C2_3 
ROOT
ATOM      1  C2  <0> d           0.002  -0.004   0.002  0.00  0.00     0.078 A 
ATOM      2  C3  <0> d           1.204  -0.659  -0.013  0.00  0.00     0.015 A 
ATOM      3  C4  <0> d           2.389   0.091  -0.020  0.00  0.00     0.251 A 
ATOM      4  O1  <0> d           3.470  -0.471  -0.034  0.00  0.00    -0.268 OA
ATOM      5  N1  <0> d           2.325   1.438  -0.013  0.00  0.00    -0.275 N 
ATOM      6  H1  <0> d           3.169   1.974  -0.018  0.00  0.00     0.173 HD
ATOM      7  C5  <0> d           1.135   2.067   0.002  0.00  0.00     0.328 A 
ATOM      8  O2  <0> d           1.101   3.282   0.009  0.00  0.00    -0.247 OA
ATOM      9  N2  <0> d          -0.017   1.371   0.010  0.00  0.00    -0.303 N 
ATOM     10  H2  <0> d          -0.891   1.856   0.021  0.00  0.00     0.171 HD
ATOM     11  H6  <0> d           1.239  -1.738  -0.019  0.00  0.00     0.096 H 
ENDROOT
BRANCH   1  12
ATOM     12  S1  <0> d          -1.507  -0.914   0.012  0.00  0.00    -0.117 SA
BRANCH  12  13
ATOM     13  C1  <0> d          -2.696   0.450   0.031  0.00  0.00    -0.029 C 
ATOM     14  H3  <0> d          -2.539   1.057   0.923  0.00  0.00     0.042 H 
ATOM     15  H4  <0> d          -2.557   1.067  -0.857  0.00  0.00     0.042 H 
ATOM     16  H5  <0> d          -3.710   0.049   0.039  0.00  0.00     0.042 H 
ENDBRANCH  12  13
ENDBRANCH   1  12
TORSDOF 2
