REMARK  5 active torsions:
REMARK  status: ('A' for Active; 'I' for Inactive)
REMARK    1  A    between atoms: C1_1  and  C2_2 
REMARK    2  A    between atoms: C2_2  and  O1_3 
REMARK    3  A    between atoms: O1_3  and  C3_4 
REMARK    4  A    between atoms: C4_6  and  C6_11 
REMARK    5  A    between atoms: C5_8  and  N4_10 
ROOT
ATOM      1  C3  <0> d          -0.151   1.184   2.374  0.00  0.00     0.287 A 
ATOM      2  N1  <0> d          -0.722   1.584   3.506  0.00  0.00    -0.191 NA
ATOM      3  C4  <0> d          -0.208   1.226   4.670  0.00  0.00     0.145 A 
ATOM      4  N2  <0> d           0.880   0.478   4.714  0.00  0.00    -0.048 NA
ATOM      5  C5  <0> d           1.460   0.079   3.584  0.00  0.00     0.725 A 
ATOM      6  N3  <0> d           0.942   0.433   2.413  0.00  0.00    -0.019 NA
ENDROOT
BRANCH   1   7
ATOM      7  O1  <0> d          -0.682   1.547   1.184  0.00  0.00    -0.319 OA
BRANCH   7   8
ATOM      8  C2  <0> d          -0.013   1.086   0.008  0.00  0.00     0.026 C 
ATOM      9  H4  <0> d           0.002  -0.004   0.002  0.00  0.00     0.074 H 
ATOM     10  H5  <0> d           1.010   1.463   0.000  0.00  0.00     0.074 H 
BRANCH   8  11
ATOM     11  C1  <0> d          -0.753   1.593  -1.232  0.00  0.00    -0.056 C 
ATOM     12  H1  <0> d          -1.775   1.215  -1.224  0.00  0.00     0.030 H 
ATOM     13  H2  <0> d          -0.767   2.683  -1.226  0.00  0.00     0.030 H 
ATOM     14  H3  <0> d          -0.242   1.241  -2.128  0.00  0.00     0.030 H 
ENDBRANCH   8  11
ENDBRANCH   7   8
ENDBRANCH   1   7
BRANCH   5  15
ATOM     15  N4  <0> d           2.597  -0.702   3.629  0.00  0.00    -0.231 N 
ATOM     16  H6  <0> d           3.019  -0.992   2.806  0.00  0.00     0.174 HD
ATOM     17  H7  <0> d           2.974  -0.960   4.485  0.00  0.00     0.174 HD
ENDBRANCH   5  15
BRANCH   3  18
ATOM     18  C6  <0> d          -0.862   1.676   5.951  0.00  0.00    -0.019 C 
ATOM     19  H8  <0> d          -0.438   2.632   6.259  0.00  0.00     0.037 H 
ATOM     20  H9  <0> d          -1.934   1.789   5.792  0.00  0.00     0.037 H 
ATOM     21  H10 <0> d          -0.687   0.933   6.729  0.00  0.00     0.037 H 
ENDBRANCH   3  18
TORSDOF 5
