REMARK  2 active torsions:
REMARK  status: ('A' for Active; 'I' for Inactive)
REMARK    1  A    between atoms: C1_1  and  N1_2 
REMARK    2  A    between atoms: C3_4  and  C5_7 
ROOT
ATOM      1  N1  <0> d          -1.105   1.856   0.017  0.00  0.00    -0.284 N 
ATOM      2  C2  <0> d          -0.013   1.076   0.008  0.00  0.00     0.016 A 
ATOM      3  C3  <0> d           1.089   1.909   0.002  0.00  0.00     0.076 A 
ATOM      4  C4  <0> d           0.608   3.237   0.013  0.00  0.00     0.040 A 
ATOM      5  N2  <0> d          -0.696   3.194   0.025  0.00  0.00    -0.185 NA
ATOM      6  H4  <0> d           0.002  -0.004   0.002  0.00  0.00     0.115 H 
ATOM      7  H5  <0> d           1.213   4.132   0.012  0.00  0.00     0.119 H 
ENDROOT
BRANCH   1   8
ATOM      8  C1  <0> d          -2.492   1.385   0.021  0.00  0.00     0.002 C 
ATOM      9  H1  <0> d          -2.832   1.263   1.049  0.00  0.00     0.059 H 
ATOM     10  H2  <0> d          -3.125   2.114  -0.487  0.00  0.00     0.059 H 
ATOM     11  H3  <0> d          -2.553   0.428  -0.498  0.00  0.00     0.059 H 
ENDBRANCH   1   8
BRANCH   3  12
ATOM     12  C5  <0> d           2.502   1.490  -0.013  0.00  0.00     0.212 C 
ATOM     13  O1  <0> d           2.785   0.309  -0.021  0.00  0.00    -0.644 OA
ATOM     14  O2  <0> d           3.479   2.418  -0.017  0.00  0.00    -0.644 OA
ENDBRANCH   3  12
TORSDOF 2
