REMARK  2 active torsions:
REMARK  status: ('A' for Active; 'I' for Inactive)
REMARK    1  A    between atoms: C1_1  and  C2_2 
REMARK       I    between atoms: C2_2  and  N1_4 
REMARK    2  A    between atoms: N1_4  and  C3_5 
ROOT
ATOM      1  C3  <0> d          -1.543   3.366   2.675  0.00  0.00     0.012 C 
ATOM      2  C4  <0> d          -3.059   3.472   2.413  0.00  0.00    -0.046 C 
ATOM      3  C5  <0> d          -3.493   4.736   3.197  0.00  0.00    -0.063 C 
ATOM      4  C6  <0> d          -2.300   5.698   2.980  0.00  0.00    -0.063 C 
ATOM      5  C7  <0> d          -1.060   4.782   3.036  0.00  0.00    -0.046 C 
ATOM      6  H5  <0> d          -1.353   2.684   3.504  0.00  0.00     0.072 H 
ATOM      7  H6  <0> d          -3.255   3.597   1.348  0.00  0.00     0.035 H 
ATOM      8  H7  <0> d          -3.575   2.590   2.795  0.00  0.00     0.035 H 
ATOM      9  H8  <0> d          -3.620   4.509   4.255  0.00  0.00     0.033 H 
ATOM     10  H9  <0> d          -4.408   5.154   2.778  0.00  0.00     0.033 H 
ATOM     11  H10 <0> d          -2.260   6.442   3.776  0.00  0.00     0.033 H 
ATOM     12  H11 <0> d          -2.372   6.184   2.007  0.00  0.00     0.033 H 
ATOM     13  H12 <0> d          -0.636   4.787   4.040  0.00  0.00     0.035 H 
ATOM     14  H13 <0> d          -0.314   5.117   2.314  0.00  0.00     0.035 H 
ENDROOT
BRANCH   1  15
ATOM     15  N1  <0> d          -0.857   2.894   1.470  0.00  0.00    -0.357 N 
ATOM     16  C2  <0> d          -0.718   1.572   1.248  0.00  0.00     0.213 C 
ATOM     17  O1  <0> d          -1.161   0.773   2.046  0.00  0.00    -0.274 OA
ATOM     18  H4  <0> d          -0.503   3.533   0.831  0.00  0.00     0.162 HD
BRANCH  16  19
ATOM     19  C1  <0> d          -0.013   1.086   0.008  0.00  0.00    -0.003 C 
ATOM     20  H1  <0> d           0.002  -0.004   0.002  0.00  0.00     0.040 H 
ATOM     21  H2  <0> d           1.010   1.463   0.000  0.00  0.00     0.040 H 
ATOM     22  H3  <0> d          -0.540   1.447  -0.875  0.00  0.00     0.040 H 
ENDBRANCH  16  19
ENDBRANCH   1  15
TORSDOF 2
