REMARK  3 active torsions:
REMARK  status: ('A' for Active; 'I' for Inactive)
REMARK    1  A    between atoms: C1_1  and  C2_2 
REMARK    2  A    between atoms: C5_6  and  C6_10 
REMARK    3  A    between atoms: C6_10  and  O2_11 
ROOT
ATOM      1  C2  <0> d           0.002  -0.004   0.002  0.00  0.00     0.028 A 
ATOM      2  C3  <0> d          -0.016   1.353   0.009  0.00  0.00    -0.010 A 
ATOM      3  C4  <0> d           1.227   2.030   0.001  0.00  0.00     0.202 A 
ATOM      4  O1  <0> d           1.284   3.251   0.007  0.00  0.00    -0.286 OA
ATOM      5  C5  <0> d           2.406   1.240  -0.014  0.00  0.00     0.127 A 
ATOM      6  N1  <0> d           2.308  -0.060  -0.020  0.00  0.00    -0.173 NA
ATOM      7  N2  <0> d           1.176  -0.663  -0.013  0.00  0.00    -0.282 N 
ATOM      8  H1  <0> d           1.165  -1.633  -0.018  0.00  0.00     0.189 HD
ATOM      9  H5  <0> d          -0.948   1.898   0.017  0.00  0.00     0.092 H 
ENDROOT
BRANCH   5  10
ATOM     10  C6  <0> d           3.761   1.899  -0.023  0.00  0.00     0.062 C 
ATOM     11  H6  <0> d           3.704   2.855   0.496  0.00  0.00     0.084 H 
ATOM     12  H7  <0> d           4.482   1.255   0.481  0.00  0.00     0.084 H 
BRANCH  10  13
ATOM     13  O2  <0> d           4.177   2.114  -1.373  0.00  0.00    -0.395 OA
ATOM     14  H8  <0> d           5.043   2.536  -1.455  0.00  0.00     0.209 HD
ENDBRANCH  10  13
ENDBRANCH   5  10
BRANCH   1  15
ATOM     15  C1  <0> d          -1.293  -0.774   0.011  0.00  0.00    -0.036 C 
ATOM     16  H2  <0> d          -1.616  -0.954  -1.015  0.00  0.00     0.035 H 
ATOM     17  H3  <0> d          -1.146  -1.728   0.518  0.00  0.00     0.035 H 
ATOM     18  H4  <0> d          -2.055  -0.198   0.535  0.00  0.00     0.035 H 
ENDBRANCH   1  15
TORSDOF 3
