REMARK  8 active torsions:
REMARK  status: ('A' for Active; 'I' for Inactive)
REMARK    1  A    between atoms: C1_1  and  C2_2 
REMARK    2  A    between atoms: C2_2  and  C3_3 
REMARK    3  A    between atoms: C2_2  and  C4_4 
REMARK    4  A    between atoms: C4_4  and  C5_5 
REMARK    5  A    between atoms: C5_5  and  O1_6 
REMARK    6  A    between atoms: O1_6  and  C6_7 
REMARK    7  A    between atoms: C6_7  and  C7_8 
REMARK    8  A    between atoms: C7_8  and  O2_9 
ROOT
ATOM      1  C4  <0> d          -0.278   5.242   2.696  0.00  0.00    -0.043 C 
ATOM      2  H8  <0> d           0.372   4.889   3.510  0.00  0.00     0.036 H 
ATOM      3  H9  <0> d          -1.256   4.742   2.765  0.00  0.00     0.036 H 
ENDROOT
BRANCH   1   4
ATOM      4  C2  <0> d          -0.469   6.755   2.816  0.00  0.00    -0.059 C 
ATOM      5  H4  <0> d           0.495   7.260   2.657  0.00  0.00     0.038 H 
BRANCH   4   6
ATOM      6  C1  <0> d          -1.472   7.227   1.761  0.00  0.00    -0.073 C 
ATOM      7  H1  <0> d          -1.091   6.984   0.758  0.00  0.00     0.028 H 
ATOM      8  H2  <0> d          -1.609   8.315   1.847  0.00  0.00     0.028 H 
ATOM      9  H3  <0> d          -2.436   6.723   1.919  0.00  0.00     0.028 H 
ENDBRANCH   4   6
BRANCH   4  10
ATOM     10  C3  <0> d          -0.999   7.094   4.210  0.00  0.00    -0.073 C 
ATOM     11  H5  <0> d          -0.278   6.754   4.969  0.00  0.00     0.028 H 
ATOM     12  H6  <0> d          -1.963   6.589   4.369  0.00  0.00     0.028 H 
ATOM     13  H7  <0> d          -1.136   8.182   4.296  0.00  0.00     0.028 H 
ENDBRANCH   4  10
ENDBRANCH   1   4
BRANCH   1  14
ATOM     14  C5  <0> d           0.367   4.914   1.348  0.00  0.00     0.020 C 
ATOM     15  H10 <0> d          -0.283   5.267   0.534  0.00  0.00     0.074 H 
ATOM     16  H11 <0> d           1.345   5.413   1.279  0.00  0.00     0.074 H 
BRANCH  14  17
ATOM     17  O1  <0> d           0.546   3.500   1.237  0.00  0.00    -0.389 OA
BRANCH  17  18
ATOM     18  C6  <0> d           1.145   3.085   0.008  0.00  0.00     0.039 C 
ATOM     19  H12 <0> d           0.511   3.400  -0.834  0.00  0.00     0.077 H 
ATOM     20  H13 <0> d           2.139   3.546  -0.090  0.00  0.00     0.077 H 
BRANCH  18  21
ATOM     21  C7  <0> d           1.286   1.562  -0.002  0.00  0.00     0.036 C 
ATOM     22  H14 <0> d           1.828   1.250  -0.907  0.00  0.00     0.077 H 
ATOM     23  H15 <0> d           1.845   1.240   0.889  0.00  0.00     0.077 H 
BRANCH  21  24
ATOM     24  O2  <0> d          -0.011   0.963   0.007  0.00  0.00    -0.399 OA
ATOM     25  H16 <0> d          -0.111  -0.133   0.002  0.00  0.00     0.209 HD
ENDBRANCH  21  24
ENDBRANCH  18  21
ENDBRANCH  17  18
ENDBRANCH  14  17
ENDBRANCH   1  14
TORSDOF 8
