REMARK  5 active torsions:
REMARK  status: ('A' for Active; 'I' for Inactive)
REMARK    1  A    between atoms: C1_1  and  C2_2 
REMARK    2  A    between atoms: C2_2  and  C3_3 
REMARK    3  A    between atoms: C2_2  and  C4_4 
REMARK    4  A    between atoms: C4_4  and  C5_6 
REMARK    5  A    between atoms: C4_4  and  N1_8 
REMARK       I    between atoms: N1_8  and  C6_9 
REMARK       I    between atoms: C6_9  and  N2_11 
ROOT
ATOM      1  C4  <0> d          -2.449   1.120   0.020  0.00  0.00     0.100 C 
ATOM      2  H1  <0> d          -2.328   0.208   0.604  0.00  0.00     0.090 H 
ENDROOT
BRANCH   1   3
ATOM      3  C2  <0> d          -3.554   1.979   0.639  0.00  0.00    -0.032 C 
ATOM      4  H5  <0> d          -3.243   2.310   1.630  0.00  0.00     0.042 H 
BRANCH   3   5
ATOM      5  C1  <0> d          -3.810   3.198  -0.249  0.00  0.00    -0.071 C 
ATOM      6  H2  <0> d          -4.597   3.810   0.193  0.00  0.00     0.028 H 
ATOM      7  H3  <0> d          -2.896   3.786  -0.332  0.00  0.00     0.028 H 
ATOM      8  H4  <0> d          -4.120   2.867  -1.240  0.00  0.00     0.028 H 
ENDBRANCH   3   5
BRANCH   3   9
ATOM      9  C3  <0> d          -4.837   1.154   0.756  0.00  0.00    -0.071 C 
ATOM     10  H6  <0> d          -4.654   0.285   1.388  0.00  0.00     0.028 H 
ATOM     11  H7  <0> d          -5.623   1.766   1.197  0.00  0.00     0.028 H 
ATOM     12  H8  <0> d          -5.147   0.823  -0.235  0.00  0.00     0.028 H 
ENDBRANCH   3   9
ENDBRANCH   1   3
BRANCH   1  13
ATOM     13  C5  <0> d          -2.824   0.764  -1.396  0.00  0.00     0.197 C 
ATOM     14  O1  <0> d          -2.113   1.102  -2.312  0.00  0.00    -0.646 OA
ATOM     15  O3  <0> d          -3.948   0.072  -1.639  0.00  0.00    -0.646 OA
ENDBRANCH   1  13
BRANCH   1  16
ATOM     16  N1  <0> d          -1.191   1.870   0.018  0.00  0.00    -0.328 N 
ATOM     17  C6  <0> d          -0.014   1.212   0.009  0.00  0.00     0.314 C 
ATOM     18  O2  <0> d           0.002  -0.004   0.002  0.00  0.00    -0.248 OA
ATOM     19  N2  <0> d           1.143   1.901   0.001  0.00  0.00    -0.352 N 
ATOM     20  H10 <0> d           1.990   1.428  -0.009  0.00  0.00     0.160 HD
ATOM     21  H11 <0> d           1.130   2.871   0.007  0.00  0.00     0.160 HD
ATOM     22  H9  <0> d          -1.204   2.840   0.023  0.00  0.00     0.165 HD
ENDBRANCH   1  16
TORSDOF 5
