REMARK  3 active torsions:
REMARK  status: ('A' for Active; 'I' for Inactive)
REMARK    1  A    between atoms: C1_1  and  C2_2 
REMARK    2  A    between atoms: C3_3  and  N4_10 
REMARK    3  A    between atoms: C4_4  and  N3_9 
ROOT
ATOM      1  C2  <0> d           1.148  -0.671  -0.014  0.00  0.00     0.039 A 
ATOM      2  C3  <0> d           2.341   0.034  -0.021  0.00  0.00     0.094 A 
ATOM      3  C4  <0> d           2.285   1.434  -0.013  0.00  0.00     0.154 A 
ATOM      4  N1  <0> d           1.099   2.031   0.002  0.00  0.00    -0.187 NA
ATOM      5  C5  <0> d          -0.016   1.318   0.009  0.00  0.00     0.280 A 
ATOM      6  N2  <0> d           0.002  -0.004   0.000  0.00  0.00    -0.320 N 
ATOM      7  O1  <0> d          -1.209   1.960   0.018  0.00  0.00    -0.149 OA
ATOM      8  H4  <0> d          -0.943  -0.567   0.005  0.00  0.00     0.169 HD
ENDROOT
BRANCH   1   9
ATOM      9  C1  <0> d           1.153  -2.179  -0.023  0.00  0.00    -0.035 C 
ATOM     10  H1  <0> d           0.117  -2.549  -0.016  0.00  0.00     0.035 H 
ATOM     11  H2  <0> d           1.681  -2.549   0.868  0.00  0.00     0.035 H 
ATOM     12  H3  <0> d           1.664  -2.538  -0.929  0.00  0.00     0.035 H 
ENDBRANCH   1   9
BRANCH   2  13
ATOM     13  N4  <0> d           3.573  -0.637  -0.036  0.00  0.00    -0.394 N 
ATOM     14  H7  <0> d           3.601  -1.737  -0.042  0.00  0.00     0.156 HD
ATOM     15  H8  <0> d           4.512  -0.064  -0.041  0.00  0.00     0.156 HD
ENDBRANCH   2  13
BRANCH   3  16
ATOM     16  N3  <0> d           3.452   2.186  -0.019  0.00  0.00    -0.382 N 
ATOM     17  H6  <0> d           3.399   3.284  -0.013  0.00  0.00     0.157 HD
ATOM     18  H5  <0> d           4.431   1.683  -0.031  0.00  0.00     0.157 HD
ENDBRANCH   3  16
TORSDOF 3
