REMARK  3 active torsions:
REMARK  status: ('A' for Active; 'I' for Inactive)
REMARK    1  A    between atoms: C1_1  and  C2_2 
REMARK    2  A    between atoms: C2_2  and  C3_4 
REMARK    3  A    between atoms: C2_2  and  N1_6 
ROOT
ATOM      1  C2  <0> d          -0.018   1.503   0.010  0.00  0.00     0.116 C 
ATOM      2  H1  <0> d           1.004   1.880   0.003  0.00  0.00     0.092 H 
ENDROOT
BRANCH   1   3
ATOM      3  C1  <0> d          -0.758   2.010  -1.229  0.00  0.00    -0.046 C 
ATOM      4  H2  <0> d          -0.248   1.658  -2.126  0.00  0.00     0.031 H 
ATOM      5  H3  <0> d          -1.781   1.632  -1.222  0.00  0.00     0.031 H 
ATOM      6  H4  <0> d          -0.773   3.099  -1.223  0.00  0.00     0.031 H 
ENDBRANCH   1   3
BRANCH   1   7
ATOM      7  C3  <0> d           0.002  -0.004   0.002  0.00  0.00     0.198 C 
ATOM      8  O1  <0> d          -0.504  -0.620   0.910  0.00  0.00    -0.646 OA
ATOM      9  O2  <0> d           0.583  -0.662  -1.014  0.00  0.00    -0.646 OA
ENDBRANCH   1   7
BRANCH   1  10
ATOM     10  N1  <0> d          -0.704   1.975   1.216  0.00  0.00    -0.248 N 
ATOM     11  N3  <0> d          -0.398   3.124   1.962  0.00  0.00    -0.164 NA
ATOM     12  C5  <0> d          -1.252   3.171   2.951  0.00  0.00     0.107 A 
ATOM     13  N2  <0> d          -2.070   2.123   2.865  0.00  0.00    -0.234 NA
ATOM     14  H6  <0> d          -1.288   3.935   3.713  0.00  0.00     0.149 H 
ATOM     15  C4  <0> d          -1.755   1.398   1.823  0.00  0.00     0.085 A 
ATOM     16  H5  <0> d          -2.251   0.492   1.507  0.00  0.00     0.146 H 
ENDBRANCH   1  10
TORSDOF 3
