REMARK  4 active torsions:
REMARK  status: ('A' for Active; 'I' for Inactive)
REMARK    1  A    between atoms: C1_1  and  C2_2 
REMARK    2  A    between atoms: C2_2  and  N1_3 
REMARK    3  A    between atoms: C3_4  and  C7_9 
REMARK    4  A    between atoms: C5_6  and  C6_8 
ROOT
ATOM      1  N1  <0> d          -0.698   1.558   1.213  0.00  0.00    -0.263 N 
ATOM      2  C3  <0> d          -1.699   0.892   1.862  0.00  0.00     0.131 A 
ATOM      3  C4  <0> d          -2.057   1.685   2.939  0.00  0.00    -0.024 A 
ATOM      4  C5  <0> d          -1.227   2.806   2.865  0.00  0.00     0.053 A 
ATOM      5  N2  <0> d          -0.447   2.660   1.825  0.00  0.00    -0.177 NA
ATOM      6  H6  <0> d          -2.817   1.482   3.679  0.00  0.00     0.090 H 
ENDROOT
BRANCH   1   7
ATOM      7  C2  <0> d          -0.013   1.086   0.008  0.00  0.00     0.014 C 
ATOM      8  H4  <0> d           0.002  -0.004   0.002  0.00  0.00     0.066 H 
ATOM      9  H5  <0> d           1.010   1.463   0.000  0.00  0.00     0.066 H 
BRANCH   7  10
ATOM     10  C1  <0> d          -0.753   1.593  -1.232  0.00  0.00    -0.059 C 
ATOM     11  H1  <0> d          -0.767   2.683  -1.226  0.00  0.00     0.029 H 
ATOM     12  H2  <0> d          -0.242   1.241  -2.128  0.00  0.00     0.029 H 
ATOM     13  H3  <0> d          -1.775   1.215  -1.224  0.00  0.00     0.029 H 
ENDBRANCH   7  10
ENDBRANCH   1   7
BRANCH   2  14
ATOM     14  C7  <0> d          -2.280  -0.407   1.492  0.00  0.00     0.228 C 
ATOM     15  O1  <0> d          -3.172  -0.888   2.163  0.00  0.00    -0.643 OA
ATOM     16  O2  <0> d          -1.823  -1.065   0.407  0.00  0.00    -0.643 OA
ENDBRANCH   2  14
BRANCH   4  17
ATOM     17  C6  <0> d          -1.224   3.973   3.819  0.00  0.00    -0.034 C 
ATOM     18  H7  <0> d          -0.526   3.776   4.633  0.00  0.00     0.035 H 
ATOM     19  H8  <0> d          -0.919   4.875   3.288  0.00  0.00     0.035 H 
ATOM     20  H9  <0> d          -2.226   4.112   4.225  0.00  0.00     0.035 H 
ENDBRANCH   4  17
TORSDOF 4
