REMARK  0 active torsions:
REMARK  status: ('A' for Active; 'I' for Inactive)
ROOT
ATOM      1  C1  <0> d           0.002  -0.004   0.002  0.00  0.00    -0.043 A 
ATOM      2  C2  <0> d           1.187  -0.684  -0.013  0.00  0.00    -0.050 A 
ATOM      3  C3  <0> d           2.394   0.019  -0.021  0.00  0.00     0.085 A 
ATOM      4  C4  <0> d           2.377   1.424  -0.013  0.00  0.00     0.065 A 
ATOM      5  C5  <0> d           1.165   2.100   0.002  0.00  0.00    -0.018 A 
ATOM      6  C6  <0> d          -0.017   1.385   0.010  0.00  0.00     0.118 A 
ATOM      7  F1  <0> d          -1.198   2.041   0.019  0.00  0.00    -0.206 F 
ATOM      8  N1  <0> d           3.699   1.821  -0.024  0.00  0.00    -0.349 N 
ATOM      9  H1  <0> d           3.951   2.892  -0.020  0.00  0.00     0.167 HD
ATOM     10  C7  <0> d           4.460   0.693  -0.037  0.00  0.00     0.065 A 
ATOM     11  N2  <0> d           3.698  -0.361  -0.036  0.00  0.00    -0.242 NA
ATOM     12  H2  <0> d          -0.929  -0.551   0.008  0.00  0.00     0.088 H 
ATOM     13  H3  <0> d           1.190  -1.764  -0.020  0.00  0.00     0.087 H 
ATOM     14  H4  <0> d           1.146   3.180   0.008  0.00  0.00     0.091 H 
ATOM     15  H5  <0> d           5.540   0.676  -0.048  0.00  0.00     0.143 H 
ENDROOT
TORSDOF 0
