REMARK  0 active torsions:
REMARK  status: ('A' for Active; 'I' for Inactive)
ROOT
ATOM      1  C1  <0> d          -0.017   1.387   0.010  0.00  0.00     0.208 A 
ATOM      2  C2  <0> d          -1.300   2.098   0.033  0.00  0.00     0.208 A 
ATOM      3  N1  <0> d          -2.489   1.376   0.047  0.00  0.00    -0.298 N 
ATOM      4  H1  <0> d          -3.339   1.843   0.061  0.00  0.00     0.171 HD
ATOM      5  C3  <0> d          -2.459   0.029   0.039  0.00  0.00     0.315 A 
ATOM      6  O1  <0> d          -3.499  -0.598   0.051  0.00  0.00    -0.262 OA
ATOM      7  C4  <0> d          -1.155  -0.693   0.015  0.00  0.00     0.315 A 
ATOM      8  O2  <0> d          -1.137  -1.907   0.008  0.00  0.00    -0.262 OA
ATOM      9  N2  <0> d           0.002  -0.004   0.002  0.00  0.00    -0.298 N 
ATOM     10  H2  <0> d           0.849  -0.478  -0.009  0.00  0.00     0.171 HD
ATOM     11  N3  <0> d          -1.058   3.380   0.036  0.00  0.00    -0.083 NA
ATOM     12  O3  <0> d           0.348   3.558   0.016  0.00  0.00    -0.103 OA
ATOM     13  N4  <0> d           0.942   2.272   0.005  0.00  0.00    -0.083 NA
ENDROOT
TORSDOF 0
