REMARK  1 active torsions:
REMARK  status: ('A' for Active; 'I' for Inactive)
REMARK    1  A    between atoms: C1_1  and  C2_2 
ROOT
ATOM      1  C2  <0> d          -1.157   3.160   0.030  0.00  0.00     0.053 A 
ATOM      2  C3  <0> d          -1.212   1.775   0.017  0.00  0.00    -0.056 A 
ATOM      3  C4  <0> d          -0.013   1.076   0.008  0.00  0.00    -0.062 A 
ATOM      4  C5  <0> d           1.165   1.806   0.001  0.00  0.00     0.024 A 
ATOM      5  N1  <0> d           1.121   3.125   0.008  0.00  0.00    -0.163 NA
ATOM      6  N2  <0> d           0.012   3.771   0.022  0.00  0.00    -0.156 NA
ATOM      7  H4  <0> d          -2.159   1.256   0.019  0.00  0.00     0.086 H 
ATOM      8  H5  <0> d           0.002  -0.004   0.002  0.00  0.00     0.085 H 
ATOM      9  H6  <0> d           2.118   1.297  -0.011  0.00  0.00     0.117 H 
ENDROOT
BRANCH   1  10
ATOM     10  C1  <0> d          -2.430   3.966   0.046  0.00  0.00    -0.034 C 
ATOM     11  H1  <0> d          -2.747   4.166  -0.978  0.00  0.00     0.035 H 
ATOM     12  H2  <0> d          -3.209   3.406   0.565  0.00  0.00     0.035 H 
ATOM     13  H3  <0> d          -2.256   4.910   0.563  0.00  0.00     0.035 H 
ENDBRANCH   1  10
TORSDOF 1
