REMARK  4 active torsions:
REMARK  status: ('A' for Active; 'I' for Inactive)
REMARK    1  A    between atoms: C1_1  and  C2_2 
REMARK    2  A    between atoms: C3_3  and  C6_9 
REMARK    3  A    between atoms: C5_6  and  N3_8 
REMARK    4  A    between atoms: C6_9  and  C7_11 
ROOT
ATOM      1  C2  <0> d           1.339   2.071  -0.005  0.00  0.00     0.065 A 
ATOM      2  C3  <0> d           0.082   1.504   0.262  0.00  0.00     0.052 A 
ATOM      3  C4  <0> d          -0.031   0.105   0.249  0.00  0.00     0.036 A 
ATOM      4  N1  <0> d           1.039  -0.620  -0.011  0.00  0.00    -0.074 NA
ATOM      5  C5  <0> d           2.209  -0.045  -0.259  0.00  0.00     0.720 A 
ATOM      6  N2  <0> d           2.359   1.273  -0.257  0.00  0.00    -0.067 NA
ATOM      7  H4  <0> d          -0.980  -0.370   0.449  0.00  0.00     0.117 H 
ENDROOT
BRANCH   2   8
ATOM      8  C6  <0> d          -1.083   2.353   0.540  0.00  0.00     0.159 C 
ATOM      9  O1  <0> d          -0.946   3.553   0.654  0.00  0.00    -0.293 OA
BRANCH   8  10
ATOM     10  C7  <0> d          -2.449   1.733   0.685  0.00  0.00    -0.016 C 
ATOM     11  H7  <0> d          -2.380   0.743   0.563  0.00  0.00     0.038 H 
ATOM     12  H8  <0> d          -2.843   1.950   1.678  0.00  0.00     0.038 H 
ATOM     13  H9  <0> d          -3.118   2.147  -0.069  0.00  0.00     0.038 H 
ENDBRANCH   8  10
ENDBRANCH   2   8
BRANCH   1  14
ATOM     14  C1  <0> d           1.520   3.567  -0.006  0.00  0.00    -0.034 C 
ATOM     15  H1  <0> d           1.676   3.914   1.016  0.00  0.00     0.035 H 
ATOM     16  H2  <0> d           2.385   3.829  -0.615  0.00  0.00     0.035 H 
ATOM     17  H3  <0> d           0.629   4.040  -0.418  0.00  0.00     0.035 H 
ENDBRANCH   1  14
BRANCH   5  18
ATOM     18  N3  <0> d           3.302  -0.842  -0.526  0.00  0.00    -0.231 N 
ATOM     19  H5  <0> d           3.209  -1.807  -0.531  0.00  0.00     0.174 HD
ATOM     20  H6  <0> d           4.164  -0.437  -0.709  0.00  0.00     0.174 HD
ENDBRANCH   5  18
TORSDOF 4
