REMARK  2 active torsions:
REMARK  status: ('A' for Active; 'I' for Inactive)
REMARK    1  A    between atoms: C4_4  and  C7_7 
REMARK    2  A    between atoms: C7_7  and  N1_8 
ROOT
ATOM      1  C1  <0> d          -1.219   1.751   0.017  0.00  0.00    -0.083 A 
ATOM      2  C2  <0> d          -0.013   1.076   0.008  0.00  0.00    -0.082 A 
ATOM      3  C3  <0> d           1.175   1.783   0.000  0.00  0.00    -0.075 A 
ATOM      4  C4  <0> d           1.156   3.165   0.008  0.00  0.00    -0.038 A 
ATOM      5  C5  <0> d          -0.050   3.840   0.023  0.00  0.00    -0.075 A 
ATOM      6  C6  <0> d          -1.238   3.133   0.030  0.00  0.00    -0.082 A 
ATOM      7  H1  <0> d          -2.147   1.198   0.019  0.00  0.00     0.083 H 
ATOM      8  H2  <0> d           0.002  -0.004   0.002  0.00  0.00     0.083 H 
ATOM      9  H3  <0> d           2.118   1.256  -0.011  0.00  0.00     0.084 H 
ATOM     10  H4  <0> d          -0.065   4.920   0.029  0.00  0.00     0.084 H 
ATOM     11  H5  <0> d          -2.180   3.660   0.041  0.00  0.00     0.083 H 
ENDROOT
BRANCH   4  12
ATOM     12  C7  <0> d           2.451   3.937  -0.001  0.00  0.00     0.040 C 
ATOM     13  H6  <0> d           2.313   4.885   0.519  0.00  0.00     0.074 H 
ATOM     14  H7  <0> d           3.223   3.355   0.503  0.00  0.00     0.074 H 
BRANCH  12  15
ATOM     15  N1  <0> d           2.858   4.194  -1.384  0.00  0.00    -0.277 N 
ATOM     16  N2  <0> d           3.032   3.228  -2.385  0.00  0.00    -0.185 NA
ATOM     17  C10 <0> d           3.397   3.839  -3.483  0.00  0.00     0.023 A 
ATOM     18  C9  <0> d           3.466   5.211  -3.217  0.00  0.00    -0.048 A 
ATOM     19  H10 <0> d           3.609   3.366  -4.430  0.00  0.00     0.117 H 
ATOM     20  C8  <0> d           3.124   5.402  -1.922  0.00  0.00     0.000 A 
ATOM     21  H9  <0> d           3.740   5.982  -3.923  0.00  0.00     0.087 H 
ATOM     22  H8  <0> d           3.076   6.352  -1.410  0.00  0.00     0.114 H 
ENDBRANCH  12  15
ENDBRANCH   4  12
TORSDOF 2
