REMARK  3 active torsions:
REMARK  status: ('A' for Active; 'I' for Inactive)
REMARK    1  A    between atoms: C1_1  and  N1_2 
REMARK    2  A    between atoms: C3_6  and  S1_9 
REMARK    3  A    between atoms: S1_9  and  C5_10 
ROOT
ATOM      1  N1  <0> d           2.256   0.022  -0.019  0.00  0.00    -0.223 N 
ATOM      2  C2  <0> d           2.279   1.367  -0.012  0.00  0.00     0.365 A 
ATOM      3  O1  <0> d           3.349   1.954  -0.020  0.00  0.00    -0.243 OA
ATOM      4  N2  <0> d           1.141   2.065   0.002  0.00  0.00    -0.184 NA
ATOM      5  C3  <0> d          -0.017   1.412   0.010  0.00  0.00     0.117 A 
ATOM      6  C4  <0> d           0.002  -0.004   0.002  0.00  0.00     0.056 A 
ATOM      7  N3  <0> d           1.147  -0.630  -0.012  0.00  0.00    -0.178 NA
ATOM      8  H4  <0> d          -0.923  -0.561   0.007  0.00  0.00     0.121 H 
ENDROOT
BRANCH   5   9
ATOM      9  S1  <0> d          -1.545   2.290   0.022  0.00  0.00    -0.113 SA
BRANCH   9  10
ATOM     10  C5  <0> d          -0.929   3.992   0.028  0.00  0.00    -0.029 C 
ATOM     11  H5  <0> d          -1.771   4.683   0.036  0.00  0.00     0.042 H 
ATOM     12  H6  <0> d          -0.318   4.154   0.916  0.00  0.00     0.042 H 
ATOM     13  H7  <0> d          -0.326   4.164  -0.864  0.00  0.00     0.042 H 
ENDBRANCH   9  10
ENDBRANCH   5   9
BRANCH   1  14
ATOM     14  C1  <0> d           3.521  -0.716  -0.036  0.00  0.00     0.007 C 
ATOM     15  H1  <0> d           3.317  -1.787  -0.040  0.00  0.00     0.059 H 
ATOM     16  H2  <0> d           4.085  -0.450  -0.930  0.00  0.00     0.059 H 
ATOM     17  H3  <0> d           4.102  -0.460   0.850  0.00  0.00     0.059 H 
ENDBRANCH   1  14
TORSDOF 3
