REMARK  8 active torsions:
REMARK  status: ('A' for Active; 'I' for Inactive)
REMARK    1  A    between atoms: C1_1  and  C2_2 
REMARK    2  A    between atoms: C2_2  and  C3_4 
REMARK    3  A    between atoms: C2_2  and  O2_11 
REMARK    4  A    between atoms: C3_4  and  C4_5 
REMARK    5  A    between atoms: C4_5  and  C5_7 
REMARK    6  A    between atoms: C4_5  and  O1_10 
REMARK    7  A    between atoms: C5_7  and  C6_8 
REMARK    8  A    between atoms: C5_7  and  C7_9 
ROOT
ATOM      1  C4  <0> d          -1.416  -2.058  -0.121  0.00  0.00     0.040 C 
ATOM      2  H2  <0> d          -0.856  -2.337  -1.014  0.00  0.00     0.083 H 
ENDROOT
BRANCH   1   3
ATOM      3  C3  <0> d          -1.433  -0.534   0.013  0.00  0.00    -0.017 C 
ATOM      4  H6  <0> d          -1.916  -0.257   0.950  0.00  0.00     0.040 H 
ATOM      5  H7  <0> d          -1.986  -0.102  -0.821  0.00  0.00     0.040 H 
BRANCH   3   6
ATOM      6  C2  <0> d           0.002  -0.004   0.002  0.00  0.00     0.034 C 
ATOM      7  H1  <0> d           0.512  -0.356  -0.895  0.00  0.00     0.082 H 
BRANCH   6   8
ATOM      8  C1  <0> d          -0.019   1.526   0.010  0.00  0.00    -0.052 C 
ATOM      9  H3  <0> d           1.004   1.903   0.003  0.00  0.00     0.030 H 
ATOM     10  H4  <0> d          -0.546   1.887  -0.873  0.00  0.00     0.030 H 
ATOM     11  H5  <0> d          -0.529   1.877   0.907  0.00  0.00     0.030 H 
ENDBRANCH   6   8
BRANCH   6  12
ATOM     12  O2  <0> d           0.693  -0.477   1.160  0.00  0.00    -0.396 OA
ATOM     13  H16 <0> d           1.611  -0.180   1.219  0.00  0.00     0.210 HD
ENDBRANCH   6  12
ENDBRANCH   3   6
ENDBRANCH   1   3
BRANCH   1  14
ATOM     14  C5  <0> d          -2.850  -2.576  -0.236  0.00  0.00    -0.036 C 
ATOM     15  H8  <0> d          -3.410  -2.296   0.657  0.00  0.00     0.042 H 
BRANCH  14  16
ATOM     16  C6  <0> d          -3.517  -1.963  -1.469  0.00  0.00    -0.071 C 
ATOM     17  H9  <0> d          -4.540  -2.333  -1.550  0.00  0.00     0.028 H 
ATOM     18  H10 <0> d          -3.530  -0.878  -1.373  0.00  0.00     0.028 H 
ATOM     19  H11 <0> d          -2.958  -2.243  -2.361  0.00  0.00     0.028 H 
ENDBRANCH  14  16
BRANCH  14  20
ATOM     20  C7  <0> d          -2.833  -4.100  -0.370  0.00  0.00    -0.071 C 
ATOM     21  H12 <0> d          -2.358  -4.537   0.509  0.00  0.00     0.028 H 
ATOM     22  H13 <0> d          -3.855  -4.470  -0.451  0.00  0.00     0.028 H 
ATOM     23  H14 <0> d          -2.273  -4.380  -1.262  0.00  0.00     0.028 H 
ENDBRANCH  14  20
ENDBRANCH   1  14
BRANCH   1  24
ATOM     24  O1  <0> d          -0.793  -2.630   1.031  0.00  0.00    -0.395 OA
ATOM     25  H15 <0> d          -1.239  -2.422   1.863  0.00  0.00     0.210 HD
ENDBRANCH   1  24
TORSDOF 8
