REMARK  4 active torsions:
REMARK  status: ('A' for Active; 'I' for Inactive)
REMARK    1  A    between atoms: C1_1  and  C2_2 
REMARK    2  A    between atoms: C2_2  and  O1_3 
REMARK    3  A    between atoms: O1_3  and  C3_4 
REMARK    4  A    between atoms: C4_5  and  C7_11 
ROOT
ATOM      1  C3  <0> d           0.604  -0.605  -1.052  0.00  0.00     0.212 A 
ATOM      2  C4  <0> d           0.732  -1.944  -1.254  0.00  0.00     0.092 A 
ATOM      3  N1  <0> d           1.383  -2.123  -2.405  0.00  0.00    -0.215 NA
ATOM      4  C5  <0> d           1.662  -0.946  -2.921  0.00  0.00     0.255 A 
ATOM      5  O2  <0> d           1.182   0.010  -2.100  0.00  0.00    -0.258 OA
ATOM      6  C6  <0> d           2.355  -0.718  -4.153  0.00  0.00     0.147 C 
ATOM      7  N2  <0> d           2.905  -0.537  -5.130  0.00  0.00    -0.188 NA
ENDROOT
BRANCH   2   8
ATOM      8  C7  <0> d           0.228  -3.032  -0.341  0.00  0.00    -0.031 C 
ATOM      9  H6  <0> d          -0.789  -3.304  -0.626  0.00  0.00     0.035 H 
ATOM     10  H7  <0> d           0.874  -3.905  -0.425  0.00  0.00     0.035 H 
ATOM     11  H8  <0> d           0.233  -2.674   0.688  0.00  0.00     0.035 H 
ENDBRANCH   2   8
BRANCH   1  12
ATOM     12  O1  <0> d           0.002  -0.004   0.002  0.00  0.00    -0.329 OA
BRANCH  12  13
ATOM     13  C2  <0> d          -0.017   1.425   0.010  0.00  0.00     0.025 C 
ATOM     14  H4  <0> d           1.005   1.802   0.002  0.00  0.00     0.074 H 
ATOM     15  H5  <0> d          -0.544   1.786  -0.873  0.00  0.00     0.074 H 
BRANCH  13  16
ATOM     16  C1  <0> d          -0.733   1.918   1.269  0.00  0.00    -0.056 C 
ATOM     17  H1  <0> d          -1.756   1.541   1.276  0.00  0.00     0.030 H 
ATOM     18  H2  <0> d          -0.206   1.557   2.152  0.00  0.00     0.030 H 
ATOM     19  H3  <0> d          -0.748   3.008   1.275  0.00  0.00     0.030 H 
ENDBRANCH  13  16
ENDBRANCH  12  13
ENDBRANCH   1  12
TORSDOF 4
