REMARK  3 active torsions:
REMARK  status: ('A' for Active; 'I' for Inactive)
REMARK    1  A    between atoms: C1_1  and  C2_2 
REMARK    2  A    between atoms: C2_2  and  O1_3 
REMARK    3  A    between atoms: O1_3  and  C3_4 
REMARK       I    between atoms: C3_4  and  N1_6 
ROOT
ATOM      1  C2  <0> d           0.002  -0.004   0.002  0.00  0.00     0.027 C 
ATOM      2  H4  <0> d           0.512  -0.356  -0.895  0.00  0.00     0.074 H 
ATOM      3  H5  <0> d           0.529  -0.365   0.885  0.00  0.00     0.074 H 
ENDROOT
BRANCH   1   4
ATOM      4  C1  <0> d          -0.019   1.526   0.010  0.00  0.00    -0.056 C 
ATOM      5  H1  <0> d           1.004   1.903   0.003  0.00  0.00     0.030 H 
ATOM      6  H2  <0> d          -0.546   1.887  -0.873  0.00  0.00     0.030 H 
ATOM      7  H3  <0> d          -0.529   1.877   0.907  0.00  0.00     0.030 H 
ENDBRANCH   1   4
BRANCH   1   8
ATOM      8  O1  <0> d          -1.339  -0.499   0.012  0.00  0.00    -0.305 OA
BRANCH   8   9
ATOM      9  C3  <0> d          -1.497  -1.836   0.006  0.00  0.00     0.358 C 
ATOM     10  O2  <0> d          -0.523  -2.563  -0.007  0.00  0.00    -0.239 OA
ATOM     11  N1  <0> d          -2.735  -2.368   0.015  0.00  0.00    -0.346 N 
ATOM     12  H6  <0> d          -3.512  -1.787   0.026  0.00  0.00     0.161 HD
ATOM     13  H7  <0> d          -2.849  -3.331   0.011  0.00  0.00     0.161 HD
ENDBRANCH   8   9
ENDBRANCH   1   8
TORSDOF 3
