REMARK  2 active torsions:
REMARK  status: ('A' for Active; 'I' for Inactive)
REMARK    1  A    between atoms: C1_1  and  C2_2 
REMARK    2  A    between atoms: C2_2  and  C3_3 
ROOT
ATOM      1  C3  <0> d           2.369   0.073  -0.021  0.00  0.00     0.065 A 
ATOM      2  C4  <0> d           1.177  -0.668  -0.013  0.00  0.00     0.278 A 
ATOM      3  O1  <0> d           1.202  -1.888  -0.021  0.00  0.00    -0.265 OA
ATOM      4  N1  <0> d           0.002  -0.004   0.002  0.00  0.00    -0.205 NA
ATOM      5  C5  <0> d          -0.016   1.343   0.010  0.00  0.00     0.069 A 
ATOM      6  N2  <0> d           1.085   2.044   0.003  0.00  0.00    -0.329 N 
ATOM      7  C6  <0> d           2.288   1.452  -0.012  0.00  0.00     0.191 A 
ATOM      8  O2  <0> d           3.415   2.201  -0.018  0.00  0.00    -0.171 OA
ATOM      9  H6  <0> d          -0.903   1.806   0.021  0.00  0.00     0.143 H 
ATOM     10  H7  <0> d           1.012   3.142   0.009  0.00  0.00     0.168 HD
ENDROOT
BRANCH   1  11
ATOM     11  C2  <0> d           3.708  -0.620  -0.038  0.00  0.00    -0.035 C 
ATOM     12  H4  <0> d           4.461   0.048  -0.480  0.00  0.00     0.040 H 
ATOM     13  H5  <0> d           3.636  -1.540  -0.637  0.00  0.00     0.040 H 
BRANCH  11  14
ATOM     14  C1  <0> d           4.117  -0.974   1.393  0.00  0.00    -0.072 C 
ATOM     15  H1  <0> d           5.094  -1.480   1.381  0.00  0.00     0.028 H 
ATOM     16  H2  <0> d           3.363  -1.642   1.836  0.00  0.00     0.028 H 
ATOM     17  H3  <0> d           4.188  -0.054   1.993  0.00  0.00     0.028 H 
ENDBRANCH  11  14
ENDBRANCH   1  11
TORSDOF 2
