REMARK  4 active torsions:
REMARK  status: ('A' for Active; 'I' for Inactive)
REMARK    1  A    between atoms: C1_1  and  C2_2 
REMARK    2  A    between atoms: C4_5  and  C6_8 
REMARK    3  A    between atoms: C6_8  and  O2_10 
REMARK    4  A    between atoms: O2_10  and  C7_11 
ROOT
ATOM      1  C2  <0> d          -3.671   3.192   0.037  0.00  0.00     0.048 A 
ATOM      2  C3  <0> d          -2.478   3.903   0.035  0.00  0.00     0.026 A 
ATOM      3  N1  <0> d          -1.327   3.263   0.026  0.00  0.00    -0.251 NA
ATOM      4  C4  <0> d          -1.306   1.933   0.019  0.00  0.00     0.148 A 
ATOM      5  C5  <0> d          -2.506   1.221   0.015  0.00  0.00     0.036 A 
ATOM      6  N2  <0> d          -3.656   1.871   0.030  0.00  0.00    -0.262 NA
ATOM      7  H4  <0> d          -2.495   4.983   0.041  0.00  0.00     0.117 H 
ATOM      8  H5  <0> d          -2.494   0.141   0.004  0.00  0.00     0.118 H 
ENDROOT
BRANCH   4   9
ATOM      9  C6  <0> d          -0.014   1.210   0.009  0.00  0.00     0.313 C 
ATOM     10  O1  <0> d           0.002  -0.004   0.002  0.00  0.00    -0.257 OA
BRANCH   9  11
ATOM     11  O2  <0> d           1.143   1.899   0.001  0.00  0.00    -0.321 OA
BRANCH  11  12
ATOM     12  C7  <0> d           2.371   1.125  -0.015  0.00  0.00     0.013 C 
ATOM     13  H6  <0> d           2.396   0.501  -0.908  0.00  0.00     0.067 H 
ATOM     14  H7  <0> d           3.226   1.801  -0.019  0.00  0.00     0.067 H 
ATOM     15  H8  <0> d           2.413   0.492   0.872  0.00  0.00     0.067 H 
ENDBRANCH  11  12
ENDBRANCH   9  11
ENDBRANCH   4   9
BRANCH   1  16
ATOM     16  C1  <0> d          -4.985   3.929   0.047  0.00  0.00    -0.034 C 
ATOM     17  H1  <0> d          -5.307   4.112  -0.979  0.00  0.00     0.035 H 
ATOM     18  H2  <0> d          -5.735   3.327   0.561  0.00  0.00     0.035 H 
ATOM     19  H3  <0> d          -4.864   4.880   0.565  0.00  0.00     0.035 H 
ENDBRANCH   1  16
TORSDOF 4
