REMARK  5 active torsions:
REMARK  status: ('A' for Active; 'I' for Inactive)
REMARK    1  A    between atoms: C1_1  and  C2_2 
REMARK    2  A    between atoms: C2_2  and  C3_3 
REMARK    3  A    between atoms: C3_3  and  C4_4 
REMARK    4  A    between atoms: C4_4  and  C5_5 
REMARK    5  A    between atoms: N1_11  and  C9_12 
ROOT
ATOM      1  C5  <0> d           1.514  -2.400  -2.542  0.00  0.00     0.014 C 
ATOM      2  H1  <0> d           2.506  -1.949  -2.546  0.00  0.00     0.072 H 
ATOM      3  C6  <0> d           1.623  -3.936  -2.655  0.00  0.00    -0.038 C 
ATOM      4  C7  <0> d           1.494  -4.150  -4.181  0.00  0.00     0.011 C 
ATOM      5  C8  <0> d           0.733  -2.934  -4.663  0.00  0.00     0.219 C 
ATOM      6  O1  <0> d           0.182  -2.841  -5.740  0.00  0.00    -0.273 OA
ATOM      7  N1  <0> d           0.757  -1.971  -3.724  0.00  0.00    -0.352 N 
ATOM      8  H11 <0> d           2.590  -4.286  -2.293  0.00  0.00     0.036 H 
ATOM      9  H12 <0> d           0.808  -4.426  -2.123  0.00  0.00     0.036 H 
ATOM     10  H13 <0> d           2.480  -4.191  -4.645  0.00  0.00     0.047 H 
ATOM     11  H14 <0> d           0.933  -5.060  -4.393  0.00  0.00     0.047 H 
ENDROOT
BRANCH   1  12
ATOM     12  C4  <0> d           0.764  -2.015  -1.265  0.00  0.00    -0.046 C 
ATOM     13  H9  <0> d          -0.178  -2.561  -1.218  0.00  0.00     0.036 H 
ATOM     14  H10 <0> d           0.563  -0.944  -1.270  0.00  0.00     0.036 H 
BRANCH  12  15
ATOM     15  C3  <0> d           1.618  -2.368  -0.046  0.00  0.00    -0.064 C 
ATOM     16  H7  <0> d           2.596  -1.894  -0.138  0.00  0.00     0.033 H 
ATOM     17  H8  <0> d           1.742  -3.449   0.011  0.00  0.00     0.033 H 
BRANCH  15  18
ATOM     18  C2  <0> d           0.927  -1.867   1.224  0.00  0.00    -0.068 C 
ATOM     19  H5  <0> d          -0.050  -2.340   1.316  0.00  0.00     0.032 H 
ATOM     20  H6  <0> d           0.803  -0.785   1.167  0.00  0.00     0.032 H 
BRANCH  18  21
ATOM     21  C1  <0> d           1.782  -2.219   2.443  0.00  0.00    -0.077 C 
ATOM     22  H2  <0> d           1.906  -3.301   2.499  0.00  0.00     0.027 H 
ATOM     23  H3  <0> d           2.759  -1.746   2.350  0.00  0.00     0.027 H 
ATOM     24  H4  <0> d           1.290  -1.862   3.347  0.00  0.00     0.027 H 
ENDBRANCH  18  21
ENDBRANCH  15  18
ENDBRANCH  12  15
ENDBRANCH   1  12
BRANCH   7  25
ATOM     25  C9  <0> d           0.110  -0.664  -3.862  0.00  0.00    -0.016 C 
ATOM     26  H15 <0> d           0.782   0.022  -4.378  0.00  0.00     0.056 H 
ATOM     27  H16 <0> d          -0.810  -0.772  -4.436  0.00  0.00     0.056 H 
ATOM     28  H17 <0> d          -0.124  -0.268  -2.873  0.00  0.00     0.056 H 
ENDBRANCH   7  25
TORSDOF 5
