REMARK  4 active torsions:
REMARK  status: ('A' for Active; 'I' for Inactive)
REMARK    1  A    between atoms: C1_1  and  C2_2 
REMARK    2  A    between atoms: C5_5  and  O2_11 
REMARK    3  A    between atoms: C6_6  and  C8_8 
REMARK    4  A    between atoms: C8_8  and  C9_10 
ROOT
ATOM      1  C2  <0> d           0.038  -2.783  -0.011  0.00  0.00    -0.061 A 
ATOM      2  C3  <0> d           0.041  -2.088   1.188  0.00  0.00    -0.075 A 
ATOM      3  C4  <0> d           0.023  -0.708   1.197  0.00  0.00    -0.050 A 
ATOM      4  C5  <0> d           0.002  -0.004   0.002  0.00  0.00     0.079 A 
ATOM      5  C6  <0> d          -0.006  -0.703  -1.216  0.00  0.00     0.043 A 
ATOM      6  C7  <0> d           0.018  -2.103  -1.209  0.00  0.00    -0.061 A 
ATOM      7  H4  <0> d           0.056  -2.630   2.122  0.00  0.00     0.084 H 
ATOM      8  H5  <0> d           0.025  -0.174   2.136  0.00  0.00     0.087 H 
ATOM      9  H6  <0> d           0.016  -2.649  -2.140  0.00  0.00     0.085 H 
ENDROOT
BRANCH   5  10
ATOM     10  C8  <0> d          -0.034   0.029  -2.488  0.00  0.00     0.158 C 
ATOM     11  O1  <0> d          -0.050   1.241  -2.490  0.00  0.00    -0.293 OA
BRANCH  10  12
ATOM     12  C9  <0> d          -0.042  -0.727  -3.792  0.00  0.00    -0.017 C 
ATOM     13  H7  <0> d          -0.851  -1.313  -3.833  0.00  0.00     0.038 H 
ATOM     14  H8  <0> d          -0.063  -0.020  -4.621  0.00  0.00     0.038 H 
ATOM     15  H9  <0> d           0.856  -1.342  -3.861  0.00  0.00     0.038 H 
ENDBRANCH  10  12
ENDBRANCH   5  10
BRANCH   4  16
ATOM     16  O2  <0> d          -0.016   1.352   0.009  0.00  0.00    -0.360 OA
ATOM     17  H10 <0> d           0.862   1.757   0.003  0.00  0.00     0.217 HD
ENDBRANCH   4  16
BRANCH   1  18
ATOM     18  C1  <0> d           0.058  -4.290  -0.005  0.00  0.00    -0.051 C 
ATOM     19  H1  <0> d          -0.965  -4.666   0.007  0.00  0.00     0.033 H 
ATOM     20  H2  <0> d           0.568  -4.650  -0.898  0.00  0.00     0.033 H 
ATOM     21  H3  <0> d           0.585  -4.642   0.882  0.00  0.00     0.033 H 
ENDBRANCH   1  18
TORSDOF 4
