REMARK  6 active torsions:
REMARK  status: ('A' for Active; 'I' for Inactive)
REMARK    1  A    between atoms: C1_1  and  C2_2 
REMARK    2  A    between atoms: C2_2  and  C3_3 
REMARK    3  A    between atoms: C2_2  and  C4_4 
REMARK    4  A    between atoms: C2_2  and  O1_6 
REMARK    5  A    between atoms: O1_6  and  S1_7 
REMARK    6  A    between atoms: S1_7  and  C6_9 
ROOT
ATOM      1  C4  <0> d          -1.379  -0.514   0.013  0.00  0.00    -0.078 C 
ATOM      2  C5  <0> d          -2.480  -0.920   0.021  0.00  0.00    -0.151 C 
ATOM      3  H7  <0> d          -3.465  -1.283   0.028  0.00  0.00     0.166 H 
ENDROOT
BRANCH   1   4
ATOM      4  C2  <0> d           0.002  -0.004   0.002  0.00  0.00     0.132 C 
BRANCH   4   5
ATOM      5  C1  <0> d          -0.019   1.526   0.010  0.00  0.00    -0.036 C 
ATOM      6  H1  <0> d           1.004   1.903   0.003  0.00  0.00     0.033 H 
ATOM      7  H2  <0> d          -0.546   1.887  -0.873  0.00  0.00     0.033 H 
ATOM      8  H3  <0> d          -0.529   1.877   0.907  0.00  0.00     0.033 H 
ENDBRANCH   4   5
BRANCH   4   9
ATOM      9  C3  <0> d           0.742  -0.511   1.242  0.00  0.00    -0.036 C 
ATOM     10  H4  <0> d           0.232  -0.159   2.138  0.00  0.00     0.033 H 
ATOM     11  H5  <0> d           0.757  -1.601   1.236  0.00  0.00     0.033 H 
ATOM     12  H6  <0> d           1.765  -0.134   1.234  0.00  0.00     0.033 H 
ENDBRANCH   4   9
BRANCH   4  13
ATOM     13  O1  <0> d           0.671  -0.465  -1.174  0.00  0.00    -0.273 OA
BRANCH  13  14
ATOM     14  S1  <0> d           1.965   0.275  -1.480  0.00  0.00     0.150 S 
ATOM     15  O2  <0> d           2.819  -0.062  -0.395  0.00  0.00    -0.229 OA
BRANCH  14  16
ATOM     16  C6  <0> d           2.574  -0.514  -2.996  0.00  0.00     0.015 C 
ATOM     17  H8  <0> d           1.836  -0.395  -3.789  0.00  0.00     0.048 H 
ATOM     18  H9  <0> d           3.510  -0.046  -3.298  0.00  0.00     0.048 H 
ATOM     19  H10 <0> d           2.741  -1.575  -2.811  0.00  0.00     0.048 H 
ENDBRANCH  14  16
ENDBRANCH  13  14
ENDBRANCH   4  13
ENDBRANCH   1   4
TORSDOF 6
