REMARK  4 active torsions:
REMARK  status: ('A' for Active; 'I' for Inactive)
REMARK    1  A    between atoms: C1_1  and  C2_2 
REMARK    2  A    between atoms: C3_3  and  C6_9 
REMARK    3  A    between atoms: N1_4  and  O1_8 
REMARK    4  A    between atoms: C4_5  and  C5_7 
ROOT
ATOM      1  C2  <0> d           3.170   2.425   0.635  0.00  0.00     0.057 A 
ATOM      2  C3  <0> d           2.020   1.896   1.095  0.00  0.00     0.062 A 
ATOM      3  N1  <0> d           1.275   1.556  -0.002  0.00  0.00    -0.213 N 
ATOM      4  C4  <0> d           1.992   1.898  -1.094  0.00  0.00     0.128 A 
ATOM      5  N2  <0> d           3.124   2.417  -0.705  0.00  0.00    -0.236 NA
ENDROOT
BRANCH   1   6
ATOM      6  C1  <0> d           4.307   2.940   1.479  0.00  0.00    -0.034 C 
ATOM      7  H1  <0> d           4.151   3.998   1.693  0.00  0.00     0.035 H 
ATOM      8  H2  <0> d           4.347   2.383   2.415  0.00  0.00     0.035 H 
ATOM      9  H3  <0> d           5.246   2.813   0.941  0.00  0.00     0.035 H 
ENDBRANCH   1   6
BRANCH   2  10
ATOM     10  C6  <0> d           1.631   1.710   2.539  0.00  0.00    -0.033 C 
ATOM     11  H8  <0> d           1.967   0.732   2.883  0.00  0.00     0.035 H 
ATOM     12  H9  <0> d           2.096   2.489   3.143  0.00  0.00     0.035 H 
ATOM     13  H10 <0> d           0.547   1.775   2.634  0.00  0.00     0.035 H 
ENDBRANCH   2  10
BRANCH   4  14
ATOM     14  C5  <0> d           1.556   1.713  -2.524  0.00  0.00    -0.019 C 
ATOM     15  H4  <0> d           1.020   2.601  -2.859  0.00  0.00     0.037 H 
ATOM     16  H5  <0> d           2.432   1.557  -3.154  0.00  0.00     0.037 H 
ATOM     17  H6  <0> d           0.899   0.845  -2.595  0.00  0.00     0.037 H 
ENDBRANCH   4  14
BRANCH   3  18
ATOM     18  O1  <0> d          -0.011   0.963   0.007  0.00  0.00    -0.281 OA
ATOM     19  H7  <0> d           0.002  -0.004   0.002  0.00  0.00     0.245 HD
ENDBRANCH   3  18
TORSDOF 4
