REMARK  1 active torsions:
REMARK  status: ('A' for Active; 'I' for Inactive)
REMARK    1  A    between atoms: C3_3  and  N4_11 
ROOT
ATOM      1  C1  <0> d           2.301   3.822   0.001  0.00  0.00    -0.048 A 
ATOM      2  C2  <0> d           2.218   5.181   0.011  0.00  0.00    -0.037 A 
ATOM      3  C3  <0> d           0.960   5.804   0.026  0.00  0.00     0.123 A 
ATOM      4  N1  <0> d          -0.155   5.102   0.032  0.00  0.00    -0.210 NA
ATOM      5  C4  <0> d          -0.136   3.766   0.024  0.00  0.00     0.180 A 
ATOM      6  C5  <0> d           1.102   3.077   0.008  0.00  0.00     0.104 A 
ATOM      7  N2  <0> d           1.120   1.742   0.001  0.00  0.00    -0.256 NA
ATOM      8  C6  <0> d          -0.013   1.076   0.008  0.00  0.00     0.020 A 
ATOM      9  C7  <0> d          -1.234   1.751   0.018  0.00  0.00     0.021 A 
ATOM     10  N3  <0> d          -1.276   3.064   0.030  0.00  0.00    -0.238 NA
ATOM     11  H1  <0> d           3.261   3.326  -0.010  0.00  0.00     0.087 H 
ATOM     12  H2  <0> d           3.117   5.779   0.006  0.00  0.00     0.089 H 
ATOM     13  H3  <0> d           0.002  -0.004   0.002  0.00  0.00     0.117 H 
ATOM     14  H4  <0> d          -2.155   1.187   0.019  0.00  0.00     0.117 H 
ENDROOT
BRANCH   3  15
ATOM     15  N4  <0> d           0.890   7.187   0.035  0.00  0.00    -0.384 N 
ATOM     16  H5  <0> d          -0.090   7.688   0.047  0.00  0.00     0.157 HD
ATOM     17  H6  <0> d           1.813   7.785   0.031  0.00  0.00     0.157 HD
ENDBRANCH   3  15
TORSDOF 1
