REMARK  5 active torsions:
REMARK  status: ('A' for Active; 'I' for Inactive)
REMARK    1  A    between atoms: C1_1  and  C2_2 
REMARK    2  A    between atoms: C2_2  and  C3_3 
REMARK    3  A    between atoms: C3_3  and  C4_4 
REMARK    4  A    between atoms: C3_3  and  C5_5 
REMARK    5  A    between atoms: C3_3  and  O1_11 
ROOT
ATOM      1  C3  <0> d          -0.729   1.579   1.267  0.00  0.00     0.081 C 
ENDROOT
BRANCH   1   2
ATOM      2  C2  <0> d           0.011   1.072   2.506  0.00  0.00    -0.036 C 
ATOM      3  H4  <0> d           1.004   1.520   2.545  0.00  0.00     0.037 H 
ATOM      4  H5  <0> d          -0.547   1.348   3.401  0.00  0.00     0.037 H 
BRANCH   2   5
ATOM      5  C1  <0> d           0.141  -0.450   2.436  0.00  0.00    -0.073 C 
ATOM      6  H1  <0> d           0.668  -0.811   3.319  0.00  0.00     0.027 H 
ATOM      7  H2  <0> d          -0.852  -0.898   2.397  0.00  0.00     0.027 H 
ATOM      8  H3  <0> d           0.699  -0.726   1.541  0.00  0.00     0.027 H 
ENDBRANCH   2   5
ENDBRANCH   1   2
BRANCH   1   9
ATOM      9  C4  <0> d          -0.013   1.086   0.008  0.00  0.00    -0.044 C 
ATOM     10  H6  <0> d           0.002  -0.004   0.002  0.00  0.00     0.032 H 
ATOM     11  H7  <0> d           1.010   1.463   0.000  0.00  0.00     0.032 H 
ATOM     12  H8  <0> d          -0.540   1.447  -0.875  0.00  0.00     0.032 H 
ENDBRANCH   1   9
BRANCH   1  13
ATOM     13  C5  <0> d          -0.749   3.086   1.275  0.00  0.00    -0.025 A 
ATOM     14  C10 <0> d          -1.801   3.766   0.690  0.00  0.00    -0.074 A 
ATOM     15  C9  <0> d          -1.820   5.149   0.698  0.00  0.00    -0.082 A 
ATOM     16  H13 <0> d          -2.608   3.218   0.227  0.00  0.00     0.084 H 
ATOM     17  C8  <0> d          -0.787   5.851   1.291  0.00  0.00    -0.083 A 
ATOM     18  H12 <0> d          -2.641   5.680   0.240  0.00  0.00     0.083 H 
ATOM     19  C7  <0> d           0.264   5.170   1.876  0.00  0.00    -0.082 A 
ATOM     20  H11 <0> d          -0.801   6.930   1.296  0.00  0.00     0.083 H 
ATOM     21  C6  <0> d           0.281   3.788   1.873  0.00  0.00    -0.074 A 
ATOM     22  H10 <0> d           1.071   5.719   2.339  0.00  0.00     0.083 H 
ATOM     23  H9  <0> d           1.100   3.256   2.333  0.00  0.00     0.084 H 
ENDBRANCH   1  13
BRANCH   1  24
ATOM     24  O1  <0> d          -2.070   1.085   1.277  0.00  0.00    -0.385 OA
ATOM     25  H14 <0> d          -2.584   1.359   2.048  0.00  0.00     0.211 HD
ENDBRANCH   1  24
TORSDOF 5
