REMARK  0 active torsions:
REMARK  status: ('A' for Active; 'I' for Inactive)
ROOT
ATOM      1  C1  <0> d          -0.013   1.076   0.008  0.00  0.00    -0.081 A 
ATOM      2  C2  <0> d           1.179   1.779   0.000  0.00  0.00    -0.075 A 
ATOM      3  C3  <0> d           1.179   3.163   0.008  0.00  0.00    -0.035 A 
ATOM      4  C4  <0> d          -0.029   3.856   0.023  0.00  0.00     0.037 A 
ATOM      5  C5  <0> d          -1.246   3.137   0.030  0.00  0.00     0.059 A 
ATOM      6  C6  <0> d          -1.221   1.745   0.017  0.00  0.00    -0.062 A 
ATOM      7  C7  <0> d          -2.495   3.836   0.046  0.00  0.00     0.100 C 
ATOM      8  N1  <0> d          -3.487   4.390   0.058  0.00  0.00    -0.191 NA
ATOM      9  C8  <0> d           0.654   5.157   0.024  0.00  0.00     0.165 A 
ATOM     10  O1  <0> d           0.300   6.317   0.033  0.00  0.00    -0.292 OA
ATOM     11  C9  <0> d           1.974   4.442   0.007  0.00  0.00     0.020 A 
ATOM     12  H1  <0> d           0.002  -0.004   0.002  0.00  0.00     0.083 H 
ATOM     13  H2  <0> d           2.117   1.243  -0.012  0.00  0.00     0.084 H 
ATOM     14  H3  <0> d          -2.147   1.188   0.019  0.00  0.00     0.085 H 
ATOM     15  H4  <0> d           2.591   4.452   0.794  0.00  0.00     0.052 H 
ATOM     16  H5  <0> d           2.547   4.601  -0.906  0.00  0.00     0.052 H 
ENDROOT
TORSDOF 0
