REMARK  1 active torsions:
REMARK  status: ('A' for Active; 'I' for Inactive)
REMARK    1  A    between atoms: C2_2  and  O3_7 
ROOT
ATOM      1  C1  <0> d          -0.013   1.086   0.008  0.00  0.00     0.048 C 
ATOM      2  C2  <0> d          -0.758   1.596  -1.230  0.00  0.00     0.076 C 
ATOM      3  C3  <0> d          -2.227   1.170  -1.133  0.00  0.00     0.048 C 
ATOM      4  O1  <0> d          -2.763   1.628   0.112  0.00  0.00    -0.364 OA
ATOM      5  C4  <0> d          -2.057   1.142   1.256  0.00  0.00     0.103 C 
ATOM      6  O2  <0> d          -0.686   1.549   1.182  0.00  0.00    -0.364 OA
ATOM      7  H1  <0> d           0.002  -0.004   0.002  0.00  0.00     0.078 H 
ATOM      8  H2  <0> d           1.009   1.465   0.000  0.00  0.00     0.078 H 
ATOM      9  H3  <0> d          -0.695   2.683  -1.272  0.00  0.00     0.089 H 
ATOM     10  H4  <0> d          -2.790   1.611  -1.957  0.00  0.00     0.078 H 
ATOM     11  H5  <0> d          -2.297   0.084  -1.185  0.00  0.00     0.078 H 
ATOM     12  H6  <0> d          -2.508   1.549   2.161  0.00  0.00     0.117 H 
ATOM     13  H7  <0> d          -2.111   0.053   1.281  0.00  0.00     0.117 H 
ENDROOT
BRANCH   2  14
ATOM     14  O3  <0> d          -0.171   1.036  -2.407  0.00  0.00    -0.391 OA
ATOM     15  H8  <0> d          -0.595   1.317  -3.229  0.00  0.00     0.210 HD
ENDBRANCH   2  14
TORSDOF 1
