REMARK  2 active torsions:
REMARK  status: ('A' for Active; 'I' for Inactive)
REMARK    1  A    between atoms: C6_6  and  C7_7 
REMARK    2  A    between atoms: C7_7  and  O1_8 
ROOT
ATOM      1  C1  <0> d          -3.405   2.495   0.046  0.00  0.00    -0.073 A 
ATOM      2  C2  <0> d          -2.502   1.469   0.033  0.00  0.00    -0.054 A 
ATOM      3  C3  <0> d          -1.138   1.746   0.016  0.00  0.00     0.061 A 
ATOM      4  C4  <0> d          -0.704   3.086   0.025  0.00  0.00     0.012 A 
ATOM      5  C5  <0> d          -1.647   4.119   0.038  0.00  0.00    -0.061 A 
ATOM      6  C6  <0> d          -2.978   3.817   0.049  0.00  0.00    -0.034 A 
ATOM      7  C8  <0> d           0.755   3.044   0.011  0.00  0.00     0.034 A 
ATOM      8  N1  <0> d           1.117   1.793   0.001  0.00  0.00    -0.186 NA
ATOM      9  N2  <0> d          -0.011   0.966   0.007  0.00  0.00    -0.278 N 
ATOM     10  H1  <0> d           0.003  -0.034   0.006  0.00  0.00     0.189 HD
ATOM     11  H2  <0> d          -4.462   2.275   0.055  0.00  0.00     0.084 H 
ATOM     12  H3  <0> d          -2.847   0.445   0.031  0.00  0.00     0.087 H 
ATOM     13  H4  <0> d          -1.324   5.149   0.041  0.00  0.00     0.085 H 
ATOM     14  H8  <0> d           1.416   3.898   0.009  0.00  0.00     0.118 H 
ENDROOT
BRANCH   6  15
ATOM     15  C7  <0> d          -3.995   4.929   0.063  0.00  0.00     0.040 C 
ATOM     16  H5  <0> d          -4.893   4.594   0.583  0.00  0.00     0.081 H 
ATOM     17  H6  <0> d          -3.579   5.795   0.577  0.00  0.00     0.081 H 
BRANCH  15  18
ATOM     18  O1  <0> d          -4.329   5.287  -1.280  0.00  0.00    -0.396 OA
ATOM     19  H7  <0> d          -4.980   5.998  -1.347  0.00  0.00     0.209 HD
ENDBRANCH  15  18
ENDBRANCH   6  15
TORSDOF 2
