REMARK  4 active torsions:
REMARK  status: ('A' for Active; 'I' for Inactive)
REMARK    1  A    between atoms: C1_1  and  C2_2 
REMARK    2  A    between atoms: C4_4  and  C8_10 
REMARK    3  A    between atoms: C5_6  and  C7_9 
REMARK    4  A    between atoms: C6_7  and  N2_8 
ROOT
ATOM      1  C2  <0> d          -0.655   2.254   3.545  0.00  0.00    -0.032 A 
ATOM      2  C3  <0> d          -2.024   2.450   3.472  0.00  0.00    -0.052 A 
ATOM      3  C4  <0> d          -2.680   2.196   2.282  0.00  0.00     0.031 A 
ATOM      4  N1  <0> d          -2.020   1.777   1.220  0.00  0.00    -0.256 NA
ATOM      5  C5  <0> d          -0.718   1.572   1.248  0.00  0.00     0.057 A 
ATOM      6  C6  <0> d           0.011   1.805   2.407  0.00  0.00     0.056 A 
ATOM      7  H4  <0> d          -2.573   2.798   4.335  0.00  0.00     0.087 H 
ENDROOT
BRANCH   1   8
ATOM      8  C1  <0> d           0.096   2.519   4.825  0.00  0.00    -0.049 C 
ATOM      9  H1  <0> d           0.432   3.556   4.840  0.00  0.00     0.033 H 
ATOM     10  H2  <0> d          -0.560   2.338   5.676  0.00  0.00     0.033 H 
ATOM     11  H3  <0> d           0.959   1.857   4.884  0.00  0.00     0.033 H 
ENDBRANCH   1   8
BRANCH   6  12
ATOM     12  N2  <0> d           1.392   1.592   2.431  0.00  0.00    -0.397 N 
ATOM     13  H5  <0> d           1.848   1.279   1.635  0.00  0.00     0.156 HD
ATOM     14  H6  <0> d           1.894   1.757   3.245  0.00  0.00     0.156 HD
ENDBRANCH   6  12
BRANCH   5  15
ATOM     15  C7  <0> d          -0.013   1.086   0.008  0.00  0.00    -0.033 C 
ATOM     16  H7  <0> d           0.002  -0.004   0.002  0.00  0.00     0.035 H 
ATOM     17  H8  <0> d           1.010   1.463   0.000  0.00  0.00     0.035 H 
ATOM     18  H9  <0> d          -0.540   1.447  -0.875  0.00  0.00     0.035 H 
ENDBRANCH   5  15
BRANCH   3  19
ATOM     19  C8  <0> d          -4.170   2.407   2.195  0.00  0.00    -0.035 C 
ATOM     20  H10 <0> d          -4.374   3.431   1.881  0.00  0.00     0.035 H 
ATOM     21  H11 <0> d          -4.593   1.714   1.469  0.00  0.00     0.035 H 
ATOM     22  H12 <0> d          -4.619   2.230   3.172  0.00  0.00     0.035 H 
ENDBRANCH   3  19
TORSDOF 4
