REMARK  7 active torsions:
REMARK  status: ('A' for Active; 'I' for Inactive)
REMARK    1  A    between atoms: C1_1  and  C2_2 
REMARK    2  A    between atoms: C2_2  and  C3_4 
REMARK    3  A    between atoms: C2_2  and  O3_7 
REMARK    4  A    between atoms: O3_7  and  C4_8 
REMARK    5  A    between atoms: C4_8  and  C5_9 
REMARK    6  A    between atoms: C5_9  and  O4_10 
REMARK    7  A    between atoms: O4_10  and  C6_11 
ROOT
ATOM      1  C4  <0> d          -0.013   1.086   0.008  0.00  0.00     0.040 C 
ATOM      2  H5  <0> d           1.019   1.466   0.000  0.00  0.00     0.077 H 
ATOM      3  H6  <0> d           0.002  -0.014   0.002  0.00  0.00     0.077 H 
ENDROOT
BRANCH   1   4
ATOM      4  O3  <0> d          -0.682   1.547   1.184  0.00  0.00    -0.373 OA
BRANCH   4   5
ATOM      5  C2  <0> d          -0.068   1.127   2.404  0.00  0.00     0.118 C 
ATOM      6  H1  <0> d           0.397   0.152   2.194  0.00  0.00     0.099 H 
BRANCH   5   7
ATOM      7  C1  <0> d           0.968   2.166   2.838  0.00  0.00    -0.043 C 
ATOM      8  H2  <0> d           1.736   2.266   2.057  0.00  0.00     0.031 H 
ATOM      9  H3  <0> d           1.440   1.842   3.777  0.00  0.00     0.031 H 
ATOM     10  H4  <0> d           0.472   3.135   2.992  0.00  0.00     0.031 H 
ENDBRANCH   5   7
BRANCH   5  11
ATOM     11  C3  <0> d          -1.120   0.989   3.474  0.00  0.00     0.202 C 
ATOM     12  O1  <0> d          -2.277   1.226   3.218  0.00  0.00    -0.646 OA
ATOM     13  O2  <0> d          -0.772   0.603   4.712  0.00  0.00    -0.646 OA
ENDBRANCH   5  11
ENDBRANCH   4   5
ENDBRANCH   1   4
BRANCH   1  14
ATOM     14  C5  <0> d          -0.753   1.593  -1.232  0.00  0.00     0.039 C 
ATOM     15  H7  <0> d          -0.292   1.165  -2.134  0.00  0.00     0.077 H 
ATOM     16  H8  <0> d          -1.808   1.287  -1.179  0.00  0.00     0.077 H 
BRANCH  14  17
ATOM     17  O4  <0> d          -0.672   3.018  -1.285  0.00  0.00    -0.394 OA
BRANCH  17  18
ATOM     18  C6  <0> d          -1.335   3.596  -2.411  0.00  0.00     0.004 C 
ATOM     19  H9  <0> d          -1.226   4.691  -2.378  0.00  0.00     0.066 H 
ATOM     20  H10 <0> d          -2.402   3.333  -2.383  0.00  0.00     0.066 H 
ATOM     21  H11 <0> d          -0.886   3.211  -3.338  0.00  0.00     0.066 H 
ENDBRANCH  17  18
ENDBRANCH  14  17
ENDBRANCH   1  14
TORSDOF 7
