REMARK  3 active torsions:
REMARK  status: ('A' for Active; 'I' for Inactive)
REMARK    1  A    between atoms: C1_1  and  C2_2 
REMARK    2  A    between atoms: C3_4  and  C4_7 
REMARK    3  A    between atoms: C4_7  and  O2_8 
ROOT
ATOM      1  C2  <0> d           0.966   5.073   0.641  0.00  0.00     0.169 A 
ATOM      2  N1  <0> d           1.084   3.849   1.097  0.00  0.00    -0.207 NA
ATOM      3  C3  <0> d           1.147   3.062   0.008  0.00  0.00     0.179 A 
ATOM      4  N2  <0> d           1.072   3.834  -1.035  0.00  0.00    -0.109 NA
ATOM      5  O1  <0> d           0.962   4.993  -0.693  0.00  0.00    -0.197 OA
ENDROOT
BRANCH   3   6
ATOM      6  C4  <0> d           1.286   1.562  -0.002  0.00  0.00     0.075 C 
ATOM      7  H4  <0> d           1.840   1.243   0.881  0.00  0.00     0.086 H 
ATOM      8  H5  <0> d           1.823   1.252  -0.899  0.00  0.00     0.086 H 
BRANCH   6   9
ATOM      9  O2  <0> d          -0.011   0.963   0.007  0.00  0.00    -0.393 OA
ATOM     10  H6  <0> d           0.002  -0.004   0.002  0.00  0.00     0.209 HD
ENDBRANCH   6   9
ENDBRANCH   3   6
BRANCH   1  11
ATOM     11  C1  <0> d           0.857   6.330   1.465  0.00  0.00    -0.013 C 
ATOM     12  H1  <0> d           1.854   6.728   1.655  0.00  0.00     0.038 H 
ATOM     13  H2  <0> d           0.268   7.070   0.923  0.00  0.00     0.038 H 
ATOM     14  H3  <0> d           0.370   6.102   2.413  0.00  0.00     0.038 H 
ENDBRANCH   1  11
TORSDOF 3
