REMARK  6 active torsions:
REMARK  status: ('A' for Active; 'I' for Inactive)
REMARK    1  A    between atoms: C1_1  and  C2_2 
REMARK    2  A    between atoms: C2_2  and  C3_4 
REMARK    3  A    between atoms: C2_2  and  N2_9 
REMARK    4  A    between atoms: C3_4  and  N1_5 
REMARK       I    between atoms: N1_5  and  C4_6 
REMARK    5  A    between atoms: C4_6  and  C5_8 
REMARK       I    between atoms: N2_9  and  C6_10 
REMARK    6  A    between atoms: C6_10  and  C7_12 
ROOT
ATOM      1  C2  <0> d          -1.214   3.626   0.028  0.00  0.00     0.024 C 
ATOM      2  H1  <0> d          -0.375   3.997   0.615  0.00  0.00     0.074 H 
ENDROOT
BRANCH   1   3
ATOM      3  C1  <0> d          -1.103   4.145  -1.407  0.00  0.00    -0.056 C 
ATOM      4  H2  <0> d          -1.942   3.773  -1.995  0.00  0.00     0.030 H 
ATOM      5  H3  <0> d          -1.117   5.235  -1.401  0.00  0.00     0.030 H 
ATOM      6  H4  <0> d          -0.168   3.797  -1.848  0.00  0.00     0.030 H 
ENDBRANCH   1   3
BRANCH   1   7
ATOM      7  C3  <0> d          -2.526   4.114   0.646  0.00  0.00     0.013 C 
ATOM      8  H5  <0> d          -2.503   5.201   0.734  0.00  0.00     0.067 H 
ATOM      9  H6  <0> d          -3.360   3.818   0.010  0.00  0.00     0.067 H 
BRANCH   7  10
ATOM     10  N1  <0> d          -2.690   3.521   1.975  0.00  0.00    -0.359 N 
ATOM     11  C4  <0> d          -3.780   3.810   2.713  0.00  0.00     0.213 C 
ATOM     12  O1  <0> d          -4.625   4.563   2.276  0.00  0.00    -0.274 OA
ATOM     13  H7  <0> d          -2.014   2.919   2.325  0.00  0.00     0.162 HD
BRANCH  11  14
ATOM     14  C5  <0> d          -3.949   3.200   4.080  0.00  0.00    -0.003 C 
ATOM     15  H8  <0> d          -3.096   2.557   4.299  0.00  0.00     0.040 H 
ATOM     16  H9  <0> d          -4.008   3.991   4.827  0.00  0.00     0.040 H 
ATOM     17  H10 <0> d          -4.865   2.609   4.103  0.00  0.00     0.040 H 
ENDBRANCH  11  14
ENDBRANCH   7  10
ENDBRANCH   1   7
BRANCH   1  18
ATOM     18  N2  <0> d          -1.195   2.161   0.019  0.00  0.00    -0.356 N 
ATOM     19  C6  <0> d          -0.018   1.503   0.010  0.00  0.00     0.213 C 
ATOM     20  O2  <0> d           1.024   2.123   0.004  0.00  0.00    -0.274 OA
ATOM     21  H11 <0> d          -2.028   1.664   0.021  0.00  0.00     0.162 HD
BRANCH  19  22
ATOM     22  C7  <0> d           0.002  -0.004   0.002  0.00  0.00    -0.003 C 
ATOM     23  H12 <0> d           1.034  -0.353  -0.010  0.00  0.00     0.040 H 
ATOM     24  H13 <0> d          -0.498  -0.379   0.895  0.00  0.00     0.040 H 
ATOM     25  H14 <0> d          -0.515  -0.370  -0.885  0.00  0.00     0.040 H 
ENDBRANCH  19  22
ENDBRANCH   1  18
TORSDOF 6
