REMARK  2 active torsions:
REMARK  status: ('A' for Active; 'I' for Inactive)
REMARK    1  A    between atoms: C1_1  and  C2_2 
REMARK    2  A    between atoms: C8_12  and  C9_14 
ROOT
ATOM      1  C2  <0> d           1.222   3.159  -0.620  0.00  0.00    -0.053 C 
ATOM      2  H1  <0> d           1.919   3.147  -1.458  0.00  0.00     0.040 H 
ATOM      3  C3  <0> d           1.175   1.773   0.062  0.00  0.00    -0.058 C 
ATOM      4  C4  <0> d          -0.305   1.306  -0.095  0.00  0.00    -0.049 C 
ATOM      5  H2  <0> d          -0.480   0.235   0.010  0.00  0.00     0.040 H 
ATOM      6  C5  <0> d          -0.660   1.933  -1.490  0.00  0.00    -0.056 C 
ATOM      7  C6  <0> d          -0.234   3.399  -1.126  0.00  0.00    -0.035 C 
ATOM      8  H3  <0> d          -0.348   4.143  -1.914  0.00  0.00     0.042 H 
ATOM      9  C7  <0> d          -1.066   3.627   0.173  0.00  0.00     0.037 C 
ATOM     10  H4  <0> d          -0.571   4.352   0.819  0.00  0.00     0.064 H 
ATOM     11  C8  <0> d          -1.110   2.226   0.872  0.00  0.00    -0.038 C 
ATOM     12  H5  <0> d          -2.135   1.870   0.970  0.00  0.00     0.042 H 
ATOM     13  C10 <0> d          -2.426   4.080  -0.161  0.00  0.00     0.064 C 
ATOM     14  N1  <0> d          -3.475   4.430  -0.419  0.00  0.00    -0.197 NA
ATOM     15  H9  <0> d           1.436   1.859   1.117  0.00  0.00     0.034 H 
ATOM     16  H10 <0> d           1.848   1.077  -0.439  0.00  0.00     0.034 H 
ATOM     17  H11 <0> d          -0.051   1.517  -2.292  0.00  0.00     0.034 H 
ATOM     18  H12 <0> d          -1.725   1.860  -1.711  0.00  0.00     0.034 H 
ENDROOT
BRANCH  11  19
ATOM     19  C9  <0> d          -0.430   2.286   2.241  0.00  0.00    -0.071 C 
ATOM     20  H13 <0> d           0.526   2.801   2.150  0.00  0.00     0.028 H 
ATOM     21  H14 <0> d          -1.069   2.825   2.941  0.00  0.00     0.028 H 
ATOM     22  H15 <0> d          -0.263   1.273   2.608  0.00  0.00     0.028 H 
ENDBRANCH  11  19
BRANCH   1  23
ATOM     23  C1  <0> d           1.620   4.237   0.390  0.00  0.00    -0.072 C 
ATOM     24  H6  <0> d           2.658   4.089   0.689  0.00  0.00     0.028 H 
ATOM     25  H7  <0> d           1.510   5.221  -0.067  0.00  0.00     0.028 H 
ATOM     26  H8  <0> d           0.976   4.170   1.266  0.00  0.00     0.028 H 
ENDBRANCH   1  23
TORSDOF 2
