REMARK  2 active torsions:
REMARK  status: ('A' for Active; 'I' for Inactive)
REMARK    1  A    between atoms: C1_1  and  C2_2 
REMARK    2  A    between atoms: C1_1  and  C3_5 
REMARK       I    between atoms: C2_2  and  N1_4 
ROOT
ATOM      1  C1  <0> d          -0.018   1.503   0.010  0.00  0.00     0.099 C 
ATOM      2  H1  <0> d          -0.545   1.864  -0.873  0.00  0.00     0.060 H 
ATOM      3  H2  <0> d          -0.529   1.854   0.907  0.00  0.00     0.060 H 
ENDROOT
BRANCH   1   4
ATOM      4  C2  <0> d           0.002  -0.004   0.002  0.00  0.00     0.223 C 
ATOM      5  O1  <0> d           1.060  -0.596  -0.011  0.00  0.00    -0.274 OA
ATOM      6  N1  <0> d          -1.156  -0.694   0.009  0.00  0.00    -0.370 N 
ATOM      7  H3  <0> d          -2.002  -0.220   0.020  0.00  0.00     0.159 HD
ATOM      8  H4  <0> d          -1.143  -1.664   0.004  0.00  0.00     0.159 HD
ENDBRANCH   1   4
BRANCH   1   9
ATOM      9  C3  <0> d           1.417   2.032  -0.001  0.00  0.00     0.396 C 
ATOM     10  F1  <0> d           2.072   1.581  -1.152  0.00  0.00    -0.171 F 
ATOM     11  F2  <0> d           1.398   3.431   0.007  0.00  0.00    -0.171 F 
ATOM     12  F3  <0> d           2.094   1.569   1.133  0.00  0.00    -0.171 F 
ENDBRANCH   1   9
TORSDOF 2
