REMARK  4 active torsions:
REMARK  status: ('A' for Active; 'I' for Inactive)
REMARK    1  A    between atoms: C1_1  and  C2_2 
REMARK    2  A    between atoms: C3_3  and  C6_8 
REMARK    3  A    between atoms: N2_6  and  C5_7 
REMARK    4  A    between atoms: C6_8  and  C7_10 
ROOT
ATOM      1  C2  <0> d          -0.738   1.588   3.794  0.00  0.00     0.041 A 
ATOM      2  C3  <0> d          -0.200   1.217   2.573  0.00  0.00     0.052 A 
ATOM      3  C4  <0> d           0.942   0.426   2.846  0.00  0.00     0.037 A 
ATOM      4  N1  <0> d           1.075   0.344   4.141  0.00  0.00    -0.184 NA
ATOM      5  N2  <0> d           0.037   1.057   4.751  0.00  0.00    -0.278 N 
ATOM      6  H4  <0> d           1.591  -0.028   2.111  0.00  0.00     0.118 H 
ENDROOT
BRANCH   2   7
ATOM      7  C6  <0> d          -0.718   1.572   1.248  0.00  0.00     0.159 C 
ATOM      8  O1  <0> d          -1.715   2.256   1.150  0.00  0.00    -0.293 OA
BRANCH   7   9
ATOM      9  C7  <0> d          -0.013   1.086   0.008  0.00  0.00    -0.016 C 
ATOM     10  H8  <0> d           0.001   0.086   0.003  0.00  0.00     0.038 H 
ATOM     11  H9  <0> d           1.010   1.463   0.000  0.00  0.00     0.038 H 
ATOM     12  H10 <0> d          -0.540   1.447  -0.875  0.00  0.00     0.038 H 
ENDBRANCH   7   9
ENDBRANCH   2   7
BRANCH   1  13
ATOM     13  C1  <0> d          -1.967   2.433   4.008  0.00  0.00    -0.035 C 
ATOM     14  H1  <0> d          -2.845   1.790   4.060  0.00  0.00     0.035 H 
ATOM     15  H2  <0> d          -1.868   2.990   4.939  0.00  0.00     0.035 H 
ATOM     16  H3  <0> d          -2.077   3.131   3.178  0.00  0.00     0.035 H 
ENDBRANCH   1  13
BRANCH   5  17
ATOM     17  C5  <0> d          -0.168   1.199   6.195  0.00  0.00     0.003 C 
ATOM     18  H5  <0> d          -0.801   0.388   6.553  0.00  0.00     0.059 H 
ATOM     19  H6  <0> d           0.795   1.162   6.704  0.00  0.00     0.059 H 
ATOM     20  H7  <0> d          -0.651   2.155   6.400  0.00  0.00     0.059 H 
ENDBRANCH   5  17
TORSDOF 4
