REMARK  2 active torsions:
REMARK  status: ('A' for Active; 'I' for Inactive)
REMARK    1  A    between atoms: C1_1  and  C2_2 
REMARK    2  A    between atoms: C2_2  and  C3_3 
ROOT
ATOM      1  C3  <0> d           0.707  -0.490  -1.238  0.00  0.00     0.006 C 
ATOM      2  N1  <0> d           1.203   0.272  -2.128  0.00  0.00    -0.298 NA
ATOM      3  C4  <0> d           1.833  -0.475  -3.223  0.00  0.00     0.015 C 
ATOM      4  C5  <0> d           1.294  -1.918  -3.086  0.00  0.00    -0.044 C 
ATOM      5  C6  <0> d           0.924  -1.947  -1.582  0.00  0.00    -0.027 C 
ATOM      6  H6  <0> d           1.548  -0.025  -4.185  0.00  0.00     0.067 H 
ATOM      7  H7  <0> d           2.926  -0.438  -3.111  0.00  0.00     0.067 H 
ATOM      8  H8  <0> d           0.431  -2.053  -3.756  0.00  0.00     0.035 H 
ATOM      9  H9  <0> d           2.085  -2.632  -3.360  0.00  0.00     0.035 H 
ATOM     10  H10 <0> d           1.735  -2.354  -0.961  0.00  0.00     0.042 H 
ATOM     11  H11 <0> d          -0.002  -2.510  -1.391  0.00  0.00     0.042 H 
ENDROOT
BRANCH   1  12
ATOM     12  C2  <0> d           0.002  -0.004   0.002  0.00  0.00    -0.032 C 
ATOM     13  H4  <0> d           0.534  -0.368   0.893  0.00  0.00     0.041 H 
ATOM     14  H5  <0> d          -1.030  -0.385   0.010  0.00  0.00     0.041 H 
BRANCH  12  15
ATOM     15  C1  <0> d          -0.019   1.526   0.010  0.00  0.00    -0.072 C 
ATOM     16  H1  <0> d          -0.533   1.881   0.915  0.00  0.00     0.028 H 
ATOM     17  H2  <0> d          -0.551   1.890  -0.881  0.00  0.00     0.028 H 
ATOM     18  H3  <0> d           1.013   1.907   0.003  0.00  0.00     0.028 H 
ENDBRANCH  12  15
ENDBRANCH   1  12
TORSDOF 2
