REMARK  2 active torsions:
REMARK  status: ('A' for Active; 'I' for Inactive)
REMARK    1  A    between atoms: C1_1  and  C2_2 
REMARK    2  A    between atoms: C4_4  and  C5_7 
ROOT
ATOM      1  C5  <0> d           0.002  -0.004   0.002  0.00  0.00    -0.000 A 
ATOM      2  C6  <0> d          -0.017   1.391   0.010  0.00  0.00    -0.070 A 
ATOM      3  C7  <0> d           1.170   2.094   0.002  0.00  0.00    -0.082 A 
ATOM      4  C8  <0> d           2.378   1.419  -0.013  0.00  0.00    -0.083 A 
ATOM      5  C9  <0> d           2.403   0.036  -0.021  0.00  0.00    -0.082 A 
ATOM      6  C10 <0> d           1.223  -0.679  -0.013  0.00  0.00    -0.070 A 
ATOM      7  H5  <0> d          -0.959   1.920   0.017  0.00  0.00     0.084 H 
ATOM      8  H6  <0> d           1.157   3.174   0.008  0.00  0.00     0.083 H 
ATOM      9  H7  <0> d           3.304   1.974  -0.019  0.00  0.00     0.083 H 
ATOM     10  H8  <0> d           3.349  -0.486  -0.033  0.00  0.00     0.083 H 
ATOM     11  H9  <0> d           1.245  -1.759  -0.019  0.00  0.00     0.084 H 
ENDROOT
BRANCH   1  12
ATOM     12  C4  <0> d          -1.266  -0.764   0.011  0.00  0.00     0.113 A 
ATOM     13  C3  <0> d          -1.409  -2.124  -0.001  0.00  0.00    -0.022 A 
ATOM     14  C2  <0> d          -2.806  -2.318   0.017  0.00  0.00     0.061 A 
ATOM     15  H4  <0> d          -0.633  -2.876  -0.018  0.00  0.00     0.091 H 
ATOM     16  N1  <0> d          -3.346  -1.132   0.029  0.00  0.00    -0.133 NA
ATOM     17  O1  <0> d          -2.512  -0.257   0.025  0.00  0.00    -0.212 OA
BRANCH  14  18
ATOM     18  C1  <0> d          -3.533  -3.638   0.018  0.00  0.00    -0.033 C 
ATOM     19  H1  <0> d          -3.718  -3.951  -1.010  0.00  0.00     0.035 H 
ATOM     20  H2  <0> d          -2.923  -4.388   0.522  0.00  0.00     0.035 H 
ATOM     21  H3  <0> d          -4.482  -3.530   0.541  0.00  0.00     0.035 H 
ENDBRANCH  14  18
ENDBRANCH   1  12
TORSDOF 2
