REMARK  5 active torsions:
REMARK  status: ('A' for Active; 'I' for Inactive)
REMARK    1  A    between atoms: C1_1  and  C2_2 
REMARK    2  A    between atoms: C4_4  and  N3_8 
REMARK    3  A    between atoms: N3_8  and  C6_9 
REMARK    4  A    between atoms: C6_9  and  C7_10 
REMARK    5  A    between atoms: C7_10  and  O1_11 
ROOT
ATOM      1  C2  <0> d          -0.718   1.572   1.248  0.00  0.00     0.035 A 
ATOM      2  C3  <0> d          -0.008   1.808   2.409  0.00  0.00    -0.015 A 
ATOM      3  C4  <0> d          -0.705   2.258   3.532  0.00  0.00     0.126 A 
ATOM      4  N1  <0> d          -2.019   2.442   3.443  0.00  0.00    -0.225 NA
ATOM      5  C5  <0> d          -2.656   2.204   2.315  0.00  0.00     0.089 A 
ATOM      6  N2  <0> d          -2.027   1.783   1.236  0.00  0.00    -0.247 NA
ATOM      7  H4  <0> d           1.059   1.648   2.447  0.00  0.00     0.092 H 
ATOM      8  H5  <0> d          -3.724   2.361   2.271  0.00  0.00     0.146 H 
ENDROOT
BRANCH   3   9
ATOM      9  N3  <0> d          -0.038   2.510   4.720  0.00  0.00    -0.373 N 
ATOM     10  H6  <0> d          -0.530   2.822   5.495  0.00  0.00     0.161 HD
BRANCH   9  11
ATOM     11  C6  <0> d           1.410   2.304   4.805  0.00  0.00     0.013 C 
ATOM     12  H7  <0> d           1.642   1.262   4.588  0.00  0.00     0.067 H 
ATOM     13  H8  <0> d           1.911   2.946   4.080  0.00  0.00     0.067 H 
BRANCH  11  14
ATOM     14  C7  <0> d           1.893   2.652   6.214  0.00  0.00     0.031 C 
ATOM     15  H9  <0> d           2.980   2.585   6.253  0.00  0.00     0.076 H 
ATOM     16  H10 <0> d           1.583   3.667   6.464  0.00  0.00     0.076 H 
BRANCH  14  17
ATOM     17  O1  <0> d           1.325   1.736   7.152  0.00  0.00    -0.399 OA
ATOM     18  H11 <0> d           1.589   1.897   8.068  0.00  0.00     0.209 HD
ENDBRANCH  14  17
ENDBRANCH  11  14
ENDBRANCH   9  11
ENDBRANCH   3   9
BRANCH   1  19
ATOM     19  C1  <0> d          -0.013   1.086   0.008  0.00  0.00    -0.035 C 
ATOM     20  H1  <0> d           0.002  -0.004   0.002  0.00  0.00     0.035 H 
ATOM     21  H2  <0> d           1.010   1.463   0.000  0.00  0.00     0.035 H 
ATOM     22  H3  <0> d          -0.540   1.447  -0.875  0.00  0.00     0.035 H 
ENDBRANCH   1  19
TORSDOF 5
