REMARK  0 active torsions:
REMARK  status: ('A' for Active; 'I' for Inactive)
ROOT
ATOM      1  C1  <0> d          -0.020   1.598   0.011  0.00  0.00    -0.062 C 
ATOM      2  C2  <0> d           1.471   1.896  -0.002  0.00  0.00    -0.062 C 
ATOM      3  C3  <0> d           2.045   1.969  -1.395  0.00  0.00    -0.050 C 
ATOM      4  C4  <0> d           3.551   1.714  -1.394  0.00  0.00    -0.103 C 
ATOM      5  C5  <0> d           3.594   0.286  -1.316  0.00  0.00    -0.087 C 
ATOM      6  C6  <0> d           2.175  -0.029  -1.123  0.00  0.00    -0.087 C 
ATOM      7  C7  <0> d           1.530  -0.170   0.004  0.00  0.00    -0.103 C 
ATOM      8  C8  <0> d           0.002  -0.004   0.002  0.00  0.00    -0.050 C 
ATOM      9  H1  <0> d          -0.513   1.960   0.915  0.00  0.00     0.033 H 
ATOM     10  H2  <0> d          -0.530   1.970  -0.881  0.00  0.00     0.033 H 
ATOM     11  H3  <0> d           1.526   2.977   0.349  0.00  0.00     0.033 H 
ATOM     12  H4  <0> d           2.083   1.445   0.736  0.00  0.00     0.033 H 
ATOM     13  H5  <0> d           1.488   1.443  -2.150  0.00  0.00     0.038 H 
ATOM     14  H6  <0> d           1.923   3.045  -1.715  0.00  0.00     0.038 H 
ATOM     15  H7  <0> d           4.376   2.393  -1.438  0.00  0.00     0.076 H 
ATOM     16  H8  <0> d           4.461  -0.344  -1.386  0.00  0.00     0.083 H 
ATOM     17  H9  <0> d           1.593  -0.230  -2.017  0.00  0.00     0.083 H 
ATOM     18  H10 <0> d           2.062  -0.413   0.924  0.00  0.00     0.076 H 
ATOM     19  H11 <0> d          -0.454  -0.403   0.903  0.00  0.00     0.038 H 
ATOM     20  H12 <0> d          -0.451  -0.393  -0.905  0.00  0.00     0.038 H 
ENDROOT
TORSDOF 0
