REMARK  0 active torsions:
REMARK  status: ('A' for Active; 'I' for Inactive)
ROOT
ATOM      1  C1  <0> d           1.261  -0.276   0.905  0.00  0.00    -0.050 C 
ATOM      2  C2  <0> d           2.216   0.567  -0.050  0.00  0.00    -0.035 C 
ATOM      3  H1  <0> d           3.277   0.570   0.199  0.00  0.00     0.046 H 
ATOM      4  C3  <0> d           1.480   1.944  -0.002  0.00  0.00    -0.026 C 
ATOM      5  C4  <0> d          -0.019   1.558   0.011  0.00  0.00     0.133 C 
ATOM      6  C5  <0> d           0.002  -0.004   0.002  0.00  0.00    -0.004 C 
ATOM      7  H2  <0> d          -0.924  -0.501   0.292  0.00  0.00     0.050 H 
ATOM      8  C6  <0> d           0.563  -0.362  -1.380  0.00  0.00    -0.099 C 
ATOM      9  C7  <0> d           1.839  -0.033  -1.410  0.00  0.00    -0.102 C 
ATOM     10  C8  <0> d          -0.673   2.060   1.230  0.00  0.00     0.086 C 
ATOM     11  N1  <0> d          -1.178   2.447   2.171  0.00  0.00    -0.195 NA
ATOM     12 Cl1  <0> d          -0.848   2.188  -1.461  0.00  0.00    -0.102 Cl
ATOM     13  H3  <0> d           1.159   0.151   1.903  0.00  0.00     0.035 H 
ATOM     14  H4  <0> d           1.533  -1.331   0.935  0.00  0.00     0.035 H 
ATOM     15  H5  <0> d           1.721   2.517  -0.897  0.00  0.00     0.038 H 
ATOM     16  H6  <0> d           1.738   2.508   0.895  0.00  0.00     0.038 H 
ATOM     17  H7  <0> d           0.006  -0.808  -2.191  0.00  0.00     0.077 H 
ATOM     18  H8  <0> d           2.505  -0.163  -2.250  0.00  0.00     0.076 H 
ENDROOT
TORSDOF 0
