REMARK  5 active torsions:
REMARK  status: ('A' for Active; 'I' for Inactive)
REMARK    1  A    between atoms: C1_1  and  C2_2 
REMARK    2  A    between atoms: C2_2  and  C3_3 
REMARK    3  A    between atoms: C7_7  and  C8_9 
REMARK    4  A    between atoms: C8_9  and  C9_10 
REMARK    5  A    between atoms: C8_9  and  C10_11 
ROOT
ATOM      1  C3  <0> d          -2.143   1.058   1.278  0.00  0.00     0.034 A 
ATOM      2  C4  <0> d          -2.401  -0.205   1.776  0.00  0.00    -0.059 A 
ATOM      3  C5  <0> d          -3.706  -0.674   1.786  0.00  0.00    -0.079 A 
ATOM      4  C6  <0> d          -4.705   0.145   1.282  0.00  0.00    -0.059 A 
ATOM      5  C7  <0> d          -4.370   1.395   0.796  0.00  0.00     0.038 A 
ATOM      6  N1  <0> d          -3.118   1.809   0.806  0.00  0.00    -0.258 NA
ATOM      7  H6  <0> d          -1.597  -0.818   2.156  0.00  0.00     0.086 H 
ATOM      8  H7  <0> d          -3.938  -1.655   2.172  0.00  0.00     0.083 H 
ATOM      9  H8  <0> d          -5.732  -0.189   1.271  0.00  0.00     0.086 H 
ENDROOT
BRANCH   5  10
ATOM     10  C8  <0> d          -5.448   2.293   0.246  0.00  0.00    -0.019 C 
ATOM     11  H9  <0> d          -5.129   3.333   0.324  0.00  0.00     0.048 H 
BRANCH  10  12
ATOM     12  C9  <0> d          -5.701   1.946  -1.223  0.00  0.00    -0.068 C 
ATOM     13  H10 <0> d          -6.480   2.596  -1.620  0.00  0.00     0.028 H 
ATOM     14  H11 <0> d          -4.783   2.089  -1.793  0.00  0.00     0.028 H 
ATOM     15  H12 <0> d          -6.019   0.907  -1.301  0.00  0.00     0.028 H 
ENDBRANCH  10  12
BRANCH  10  16
ATOM     16  C10 <0> d          -6.736   2.093   1.046  0.00  0.00    -0.068 C 
ATOM     17  H13 <0> d          -6.556   2.340   2.093  0.00  0.00     0.028 H 
ATOM     18  H14 <0> d          -7.516   2.743   0.649  0.00  0.00     0.028 H 
ATOM     19  H15 <0> d          -7.055   1.054   0.968  0.00  0.00     0.028 H 
ENDBRANCH  10  16
ENDBRANCH   5  10
BRANCH   1  20
ATOM     20  C2  <0> d          -0.729   1.579   1.267  0.00  0.00    -0.028 C 
ATOM     21  H4  <0> d          -0.202   1.218   2.150  0.00  0.00     0.041 H 
ATOM     22  H5  <0> d          -0.744   2.669   1.273  0.00  0.00     0.041 H 
BRANCH  20  23
ATOM     23  C1  <0> d          -0.013   1.086   0.008  0.00  0.00    -0.071 C 
ATOM     24  H1  <0> d           0.002  -0.004   0.002  0.00  0.00     0.028 H 
ATOM     25  H2  <0> d           1.010   1.463   0.000  0.00  0.00     0.028 H 
ATOM     26  H3  <0> d          -0.540   1.447  -0.875  0.00  0.00     0.028 H 
ENDBRANCH  20  23
ENDBRANCH   1  20
TORSDOF 5
