REMARK  0 active torsions:
REMARK  status: ('A' for Active; 'I' for Inactive)
ROOT
ATOM      1  C1  <0> d           0.002  -0.004   0.002  0.00  0.00    -0.079 A 
ATOM      2  C2  <0> d           1.203  -0.682  -0.013  0.00  0.00    -0.061 A 
ATOM      3  C3  <0> d           2.405   0.030  -0.021  0.00  0.00     0.069 A 
ATOM      4  C4  <0> d           2.381   1.427  -0.013  0.00  0.00     0.093 A 
ATOM      5  C5  <0> d           1.170   2.094   0.002  0.00  0.00     0.139 A 
ATOM      6  C6  <0> d          -0.017   1.379   0.010  0.00  0.00    -0.044 A 
ATOM      7  F1  <0> d           1.143   3.445   0.010  0.00  0.00    -0.204 F 
ATOM      8 Cl1  <0> d           3.868   2.323  -0.022  0.00  0.00    -0.079 Cl
ATOM      9  C7  <0> d           3.655  -0.668  -0.036  0.00  0.00     0.101 C 
ATOM     10  N1  <0> d           4.646  -1.222  -0.048  0.00  0.00    -0.191 NA
ATOM     11  H1  <0> d          -0.927  -0.555   0.008  0.00  0.00     0.083 H 
ATOM     12  H2  <0> d           1.215  -1.762  -0.019  0.00  0.00     0.085 H 
ATOM     13  H3  <0> d          -0.961   1.904   0.017  0.00  0.00     0.088 H 
ENDROOT
TORSDOF 0
