REMARK  3 active torsions:
REMARK  status: ('A' for Active; 'I' for Inactive)
REMARK    1  A    between atoms: C1_1  and  C2_2 
REMARK    2  A    between atoms: N1_5  and  C7_11 
REMARK    3  A    between atoms: C5_7  and  C6_10 
ROOT
ATOM      1  C2  <0> d           0.002  -0.004   0.002  0.00  0.00     0.061 C 
ATOM      2  H1  <0> d          -1.020  -0.382   0.010  0.00  0.00     0.085 H 
ATOM      3  C3  <0> d           0.720  -0.499  -1.256  0.00  0.00     0.136 C 
ATOM      4  N1  <0> d           0.805  -1.966  -1.221  0.00  0.00     0.089 N 
ATOM      5  C4  <0> d           1.523  -2.417  -0.020  0.00  0.00     0.136 C 
ATOM      6  C5  <0> d           0.797  -1.904   1.226  0.00  0.00     0.061 C 
ATOM      7  H2  <0> d           1.357  -2.188   2.117  0.00  0.00     0.085 H 
ATOM      8  O1  <0> d           0.695  -0.479   1.159  0.00  0.00    -0.378 OA
ATOM      9  H6  <0> d           0.163  -0.188  -2.140  0.00  0.00     0.083 H 
ATOM     10  H7  <0> d           1.725  -0.077  -1.292  0.00  0.00     0.083 H 
ATOM     11  H8  <0> d           1.552  -3.507  -0.002  0.00  0.00     0.083 H 
ATOM     12  H9  <0> d           2.541  -2.026  -0.036  0.00  0.00     0.083 H 
ENDROOT
BRANCH   1  13
ATOM     13  C1  <0> d          -0.019   1.526   0.010  0.00  0.00    -0.051 C 
ATOM     14  H3  <0> d           1.004   1.903   0.003  0.00  0.00     0.030 H 
ATOM     15  H4  <0> d          -0.546   1.887  -0.873  0.00  0.00     0.030 H 
ATOM     16  H5  <0> d          -0.529   1.877   0.907  0.00  0.00     0.030 H 
ENDBRANCH   1  13
BRANCH   6  17
ATOM     17  C6  <0> d          -0.605  -2.513   1.288  0.00  0.00    -0.051 C 
ATOM     18  H10 <0> d          -0.527  -3.600   1.335  0.00  0.00     0.030 H 
ATOM     19  H11 <0> d          -1.122  -2.147   2.175  0.00  0.00     0.030 H 
ATOM     20  H12 <0> d          -1.165  -2.228   0.397  0.00  0.00     0.030 H 
ENDBRANCH   6  17
BRANCH   4  21
ATOM     21  C7  <0> d           1.439  -2.486  -2.440  0.00  0.00     0.095 C 
ATOM     22  H13 <0> d           2.446  -2.080  -2.527  0.00  0.00     0.071 H 
ATOM     23  H14 <0> d           1.489  -3.574  -2.388  0.00  0.00     0.071 H 
ATOM     24  H15 <0> d           0.851  -2.191  -3.309  0.00  0.00     0.071 H 
ENDBRANCH   4  21
TORSDOF 3
