REMARK  4 active torsions:
REMARK  status: ('A' for Active; 'I' for Inactive)
REMARK    1  A    between atoms: C1_1  and  C2_2 
REMARK    2  A    between atoms: C2_2  and  O1_3 
REMARK    3  A    between atoms: O1_3  and  C3_4 
REMARK    4  A    between atoms: C6_7  and  N1_10 
ROOT
ATOM      1  C3  <0> d           0.777  -1.811  -1.336  0.00  0.00     0.068 A 
ATOM      2  C4  <0> d           0.242  -2.668  -0.386  0.00  0.00    -0.049 A 
ATOM      3  C5  <0> d           0.349  -4.035  -0.550  0.00  0.00    -0.055 A 
ATOM      4  C6  <0> d           0.992  -4.552  -1.667  0.00  0.00     0.025 A 
ATOM      5  C7  <0> d           1.527  -3.693  -2.618  0.00  0.00    -0.055 A 
ATOM      6  C8  <0> d           1.414  -2.326  -2.455  0.00  0.00    -0.049 A 
ATOM      7  H6  <0> d          -0.257  -2.266   0.483  0.00  0.00     0.087 H 
ATOM      8  H7  <0> d          -0.067  -4.702   0.190  0.00  0.00     0.087 H 
ATOM      9  H8  <0> d           2.027  -4.094  -3.488  0.00  0.00     0.087 H 
ATOM     10  H9  <0> d           1.826  -1.658  -3.197  0.00  0.00     0.087 H 
ENDROOT
BRANCH   1  11
ATOM     11  O1  <0> d           0.671  -0.465  -1.174  0.00  0.00    -0.352 OA
BRANCH  11  12
ATOM     12  C2  <0> d           0.002  -0.004   0.002  0.00  0.00     0.023 C 
ATOM     13  H4  <0> d           0.529  -0.365   0.885  0.00  0.00     0.074 H 
ATOM     14  H5  <0> d          -1.020  -0.381   0.010  0.00  0.00     0.074 H 
BRANCH  12  15
ATOM     15  C1  <0> d          -0.019   1.526   0.010  0.00  0.00    -0.056 C 
ATOM     16  H1  <0> d           1.004   1.903   0.003  0.00  0.00     0.030 H 
ATOM     17  H2  <0> d          -0.546   1.887  -0.873  0.00  0.00     0.030 H 
ATOM     18  H3  <0> d          -0.529   1.877   0.907  0.00  0.00     0.030 H 
ENDBRANCH  12  15
ENDBRANCH  11  12
ENDBRANCH   1  11
BRANCH   4  19
ATOM     19  N1  <0> d           1.102  -5.937  -1.834  0.00  0.00    -0.399 N 
ATOM     20  H10 <0> d           0.728  -6.536  -1.169  0.00  0.00     0.156 HD
ATOM     21  H11 <0> d           1.551  -6.297  -2.615  0.00  0.00     0.156 HD
ENDBRANCH   4  19
TORSDOF 4
