REMARK  2 active torsions:
REMARK  status: ('A' for Active; 'I' for Inactive)
REMARK    1  A    between atoms: C1_1  and  C2_2 
REMARK    2  A    between atoms: C2_2  and  C3_3 
ROOT
ATOM      1  C3  <0> d           0.707  -0.490  -1.238  0.00  0.00    -0.038 A 
ATOM      2  C4  <0> d           0.007  -0.726  -2.414  0.00  0.00    -0.057 A 
ATOM      3  C5  <0> d           0.718  -1.172  -3.516  0.00  0.00     0.024 A 
ATOM      4  N1  <0> d           2.022  -1.359  -3.425  0.00  0.00    -0.163 NA
ATOM      5  N2  <0> d           2.669  -1.141  -2.338  0.00  0.00    -0.163 NA
ATOM      6  C6  <0> d           2.076  -0.710  -1.241  0.00  0.00     0.030 A 
ATOM      7  H6  <0> d          -1.060  -0.568  -2.467  0.00  0.00     0.086 H 
ATOM      8  H7  <0> d           0.207  -1.367  -4.448  0.00  0.00     0.117 H 
ATOM      9  H8  <0> d           2.654  -0.532  -0.347  0.00  0.00     0.118 H 
ENDROOT
BRANCH   1  10
ATOM     10  C2  <0> d           0.002  -0.004   0.002  0.00  0.00    -0.043 C 
ATOM     11  H4  <0> d           0.529  -0.365   0.885  0.00  0.00     0.039 H 
ATOM     12  H5  <0> d          -1.020  -0.381   0.010  0.00  0.00     0.039 H 
BRANCH  10  13
ATOM     13  C1  <0> d          -0.019   1.526   0.010  0.00  0.00    -0.073 C 
ATOM     14  H1  <0> d           1.004   1.903   0.003  0.00  0.00     0.028 H 
ATOM     15  H2  <0> d          -0.546   1.887  -0.873  0.00  0.00     0.028 H 
ATOM     16  H3  <0> d          -0.529   1.877   0.907  0.00  0.00     0.028 H 
ENDBRANCH  10  13
ENDBRANCH   1  10
TORSDOF 2
