REMARK  2 active torsions:
REMARK  status: ('A' for Active; 'I' for Inactive)
REMARK    1  A    between atoms: C1_1  and  C2_2 
REMARK    2  A    between atoms: C3_3  and  N3_11 
ROOT
ATOM      1  C2  <0> d           1.198  -0.651  -0.013  0.00  0.00     0.034 A 
ATOM      2  C3  <0> d           2.382   0.107  -0.020  0.00  0.00     0.116 A 
ATOM      3  N1  <0> d           2.313   1.433  -0.012  0.00  0.00    -0.182 NA
ATOM      4  C4  <0> d           1.136   2.054   0.002  0.00  0.00     0.349 A 
ATOM      5  O1  <0> d           1.102   3.274   0.009  0.00  0.00    -0.244 OA
ATOM      6  N2  <0> d          -0.016   1.360   0.009  0.00  0.00    -0.283 N 
ATOM      7  H1  <0> d          -0.890   1.846   0.021  0.00  0.00     0.173 HD
ATOM      8  C5  <0> d           0.002  -0.004   0.002  0.00  0.00     0.201 A 
ATOM      9  F1  <0> d          -1.154  -0.704   0.010  0.00  0.00    -0.185 F 
ENDROOT
BRANCH   1  10
ATOM     10  C1  <0> d           1.254  -2.157  -0.022  0.00  0.00    -0.044 C 
ATOM     11  H2  <0> d           0.240  -2.558  -0.015  0.00  0.00     0.033 H 
ATOM     12  H3  <0> d           1.772  -2.496  -0.919  0.00  0.00     0.033 H 
ATOM     13  H4  <0> d           1.789  -2.506   0.861  0.00  0.00     0.033 H 
ENDBRANCH   1  10
BRANCH   2  14
ATOM     14  N3  <0> d           3.606  -0.522  -0.035  0.00  0.00    -0.286 NA
ATOM     15  H5  <0> d           3.695  -1.098   0.778  0.00  0.00     0.125 HD
ATOM     16  H6  <0> d           4.422   0.003  -0.040  0.00  0.00     0.125 HD
ENDBRANCH   2  14
TORSDOF 2
