REMARK  3 active torsions:
REMARK  status: ('A' for Active; 'I' for Inactive)
REMARK    1  A    between atoms: C1_1  and  N1_2 
REMARK    2  A    between atoms: N1_2  and  C2_3 
REMARK    3  A    between atoms: N1_2  and  C3_4 
ROOT
ATOM      1  C3  <0> d          -1.192  -0.715   0.010  0.00  0.00     0.126 A 
ATOM      2  C4  <0> d          -2.401  -0.034  -0.086  0.00  0.00    -0.039 A 
ATOM      3  C5  <0> d          -3.582  -0.753  -0.077  0.00  0.00    -0.076 A 
ATOM      4  C6  <0> d          -3.515  -2.136   0.027  0.00  0.00    -0.044 A 
ATOM      5  C7  <0> d          -2.280  -2.749   0.119  0.00  0.00     0.128 A 
ATOM      6  N2  <0> d          -1.168  -2.036   0.102  0.00  0.00    -0.219 NA
ATOM      7 Cl1  <0> d          -2.188  -4.477   0.251  0.00  0.00    -0.062 Cl
ATOM      8  H7  <0> d          -2.417   1.043  -0.166  0.00  0.00     0.089 H 
ATOM      9  H8  <0> d          -4.535  -0.251  -0.150  0.00  0.00     0.083 H 
ATOM     10  H9  <0> d          -4.420  -2.727   0.037  0.00  0.00     0.088 H 
ENDROOT
BRANCH   1  11
ATOM     11  N1  <0> d           0.002  -0.004   0.002  0.00  0.00    -0.374 N 
BRANCH  11  12
ATOM     12  C1  <0> d          -0.018   1.461   0.010  0.00  0.00    -0.018 C 
ATOM     13  H1  <0> d           1.005   1.838   0.002  0.00  0.00     0.056 H 
ATOM     14  H2  <0> d          -0.545   1.822  -0.873  0.00  0.00     0.056 H 
ATOM     15  H3  <0> d          -0.528   1.812   0.907  0.00  0.00     0.056 H 
ENDBRANCH  11  12
BRANCH  11  16
ATOM     16  C2  <0> d           1.281  -0.719  -0.014  0.00  0.00    -0.018 C 
ATOM     17  H4  <0> d           1.607  -0.902   1.010  0.00  0.00     0.056 H 
ATOM     18  H5  <0> d           1.158  -1.671  -0.532  0.00  0.00     0.056 H 
ATOM     19  H6  <0> d           2.027  -0.117  -0.532  0.00  0.00     0.056 H 
ENDBRANCH  11  16
ENDBRANCH   1  11
TORSDOF 3
