REMARK  2 active torsions:
REMARK  status: ('A' for Active; 'I' for Inactive)
REMARK    1  A    between atoms: C1_1  and  C2_2 
REMARK    2  A    between atoms: C3_4  and  C9_13 
ROOT
ATOM      1  C2  <0> d          -3.960   0.662   2.137  0.00  0.00     0.063 C 
ATOM      2  H1  <0> d          -4.899   0.602   1.586  0.00  0.00     0.086 H 
ATOM      3  C3  <0> d          -3.641   2.130   2.517  0.00  0.00     0.063 C 
ATOM      4  H2  <0> d          -2.944   2.173   3.354  0.00  0.00     0.086 H 
ATOM      5  O1  <0> d          -3.023   2.622   1.302  0.00  0.00    -0.348 OA
ATOM      6  C4  <0> d          -2.280   1.506   0.795  0.00  0.00     0.165 C 
ATOM      7  O2  <0> d          -2.849   0.293   1.294  0.00  0.00    -0.348 OA
ATOM      8  C5  <0> d          -0.802   1.617   1.231  0.00  0.00    -0.013 C 
ATOM      9  C6  <0> d          -0.013   1.086   0.008  0.00  0.00    -0.060 C 
ATOM     10  C7  <0> d          -0.825   1.630  -1.193  0.00  0.00    -0.060 C 
ATOM     11  C8  <0> d          -2.296   1.513  -0.740  0.00  0.00    -0.013 C 
ATOM     12  H6  <0> d          -0.612   0.998   2.107  0.00  0.00     0.041 H 
ATOM     13  H7  <0> d          -0.540   2.656   1.432  0.00  0.00     0.041 H 
ATOM     14  H8  <0> d           0.002  -0.004   0.002  0.00  0.00     0.033 H 
ATOM     15  H9  <0> d           1.002   1.484   0.001  0.00  0.00     0.033 H 
ATOM     16  H10 <0> d          -0.568   2.672  -1.387  0.00  0.00     0.033 H 
ATOM     17  H11 <0> d          -0.648   1.023  -2.081  0.00  0.00     0.033 H 
ATOM     18  H12 <0> d          -2.869   2.366  -1.104  0.00  0.00     0.041 H 
ATOM     19  H13 <0> d          -2.729   0.585  -1.113  0.00  0.00     0.041 H 
ENDROOT
BRANCH   3  20
ATOM     20  C9  <0> d          -4.921   2.905   2.833  0.00  0.00    -0.050 C 
ATOM     21  H14 <0> d          -5.617   2.813   2.000  0.00  0.00     0.031 H 
ATOM     22  H15 <0> d          -5.378   2.499   3.736  0.00  0.00     0.031 H 
ATOM     23  H16 <0> d          -4.680   3.957   2.990  0.00  0.00     0.031 H 
ENDBRANCH   3  20
BRANCH   1  24
ATOM     24  C1  <0> d          -4.012  -0.221   3.386  0.00  0.00    -0.050 C 
ATOM     25  H3  <0> d          -4.788   0.146   4.058  0.00  0.00     0.031 H 
ATOM     26  H4  <0> d          -4.237  -1.247   3.096  0.00  0.00     0.031 H 
ATOM     27  H5  <0> d          -3.047  -0.190   3.893  0.00  0.00     0.031 H 
ENDBRANCH   1  24
TORSDOF 2
