REMARK  0 active torsions:
REMARK  status: ('A' for Active; 'I' for Inactive)
ROOT
ATOM      1  C1  <0> d           2.883   4.062  -0.141  0.00  0.00    -0.065 C 
ATOM      2  C2  <0> d           3.614   3.616   1.126  0.00  0.00    -0.064 C 
ATOM      3  C3  <0> d           3.576   2.089   1.248  0.00  0.00    -0.055 C 
ATOM      4  C4  <0> d           2.119   1.631   1.292  0.00  0.00     0.007 C 
ATOM      5  H1  <0> d           1.663   2.045   2.081  0.00  0.00     0.052 H 
ATOM      6  C5  <0> d           1.414   2.055  -0.000  0.00  0.00    -0.044 C 
ATOM      7  H2  <0> d           1.946   1.638  -0.856  0.00  0.00     0.041 H 
ATOM      8  C6  <0> d           1.429   3.580  -0.100  0.00  0.00    -0.061 C 
ATOM      9  C7  <0> d          -0.019   1.527   0.010  0.00  0.00    -0.061 C 
ATOM     10  C8  <0> d           0.002  -0.004   0.002  0.00  0.00    -0.059 C 
ATOM     11  C9  <0> d           0.679  -0.521   1.275  0.00  0.00    -0.009 C 
ATOM     12  C10 <0> d           2.042   0.127   1.403  0.00  0.00     0.131 C 
ATOM     13  O1  <0> d           3.033  -0.538   1.586  0.00  0.00    -0.298 OA
ATOM     14  H3  <0> d           3.380   3.639  -1.014  0.00  0.00     0.033 H 
ATOM     15  H4  <0> d           2.901   5.150  -0.205  0.00  0.00     0.033 H 
ATOM     16  H5  <0> d           4.651   3.949   1.081  0.00  0.00     0.033 H 
ATOM     17  H6  <0> d           3.130   4.054   1.998  0.00  0.00     0.033 H 
ATOM     18  H7  <0> d           4.084   1.778   2.161  0.00  0.00     0.034 H 
ATOM     19  H8  <0> d           4.071   1.647   0.384  0.00  0.00     0.034 H 
ATOM     20  H9  <0> d           0.916   3.891  -1.010  0.00  0.00     0.033 H 
ATOM     21  H10 <0> d           0.926   4.007   0.767  0.00  0.00     0.033 H 
ATOM     22  H11 <0> d          -0.546   1.888  -0.873  0.00  0.00     0.033 H 
ATOM     23  H12 <0> d          -0.529   1.878   0.907  0.00  0.00     0.033 H 
ATOM     24  H13 <0> d          -1.020  -0.380  -0.043  0.00  0.00     0.033 H 
ATOM     25  H14 <0> d           0.556  -0.354  -0.869  0.00  0.00     0.033 H 
ATOM     26  H15 <0> d           0.117  -0.288   2.069  0.00  0.00     0.044 H 
ATOM     27  H16 <0> d           0.791  -1.604   1.215  0.00  0.00     0.044 H 
ENDROOT
TORSDOF 0
