REMARK  4 active torsions:
REMARK  status: ('A' for Active; 'I' for Inactive)
REMARK    1  A    between atoms: C1_1  and  C2_2 
REMARK    2  A    between atoms: C2_2  and  C3_3 
REMARK    3  A    between atoms: C3_3  and  C4_5 
REMARK    4  A    between atoms: C3_3  and  O1_11 
ROOT
ATOM      1  C3  <0> d          -0.750   3.109   1.275  0.00  0.00     0.060 C 
ATOM      2  H1  <0> d          -1.153   3.516   0.336  0.00  0.00     0.090 H 
ENDROOT
BRANCH   1   3
ATOM      3  C2  <0> d          -0.729   1.579   1.267  0.00  0.00    -0.041 C 
ATOM      4  H5  <0> d          -1.761   1.198   1.275  0.00  0.00     0.036 H 
ATOM      5  H6  <0> d          -0.197   1.215   2.158  0.00  0.00     0.036 H 
BRANCH   3   6
ATOM      6  C1  <0> d          -0.013   1.086   0.008  0.00  0.00    -0.074 C 
ATOM      7  H2  <0> d           0.002  -0.014   0.002  0.00  0.00     0.027 H 
ATOM      8  H3  <0> d           1.019   1.467   0.000  0.00  0.00     0.027 H 
ATOM      9  H4  <0> d          -0.545   1.450  -0.883  0.00  0.00     0.027 H 
ENDBRANCH   3   6
ENDBRANCH   1   3
BRANCH   1  10
ATOM     10  C4  <0> d          -1.560   3.594   2.450  0.00  0.00    -0.027 A 
ATOM     11  C8  <0> d          -2.902   3.911   2.303  0.00  0.00    -0.058 A 
ATOM     12  C7  <0> d          -3.613   4.352   3.403  0.00  0.00     0.002 A 
ATOM     13  H10 <0> d          -3.385   3.815   1.342  0.00  0.00     0.086 H 
ATOM     14  N1  <0> d          -3.031   4.472   4.580  0.00  0.00    -0.273 NA
ATOM     15  H9  <0> d          -4.659   4.601   3.297  0.00  0.00     0.114 H 
ATOM     16  C6  <0> d          -1.757   4.180   4.756  0.00  0.00     0.002 A 
ATOM     17  C5  <0> d          -0.983   3.728   3.703  0.00  0.00    -0.058 A 
ATOM     18  H8  <0> d          -1.314   4.291   5.734  0.00  0.00     0.114 H 
ATOM     19  H7  <0> d           0.058   3.486   3.854  0.00  0.00     0.086 H 
ENDBRANCH   1  10
BRANCH   1  20
ATOM     20  O1  <0> d           0.587   3.603   1.383  0.00  0.00    -0.391 OA
ATOM     21  H11 <0> d           0.773   4.687   1.404  0.00  0.00     0.210 HD
ENDBRANCH   1  20
TORSDOF 4
