REMARK  0 active torsions:
REMARK  status: ('A' for Active; 'I' for Inactive)
ROOT
ATOM      1  C1  <0> d           0.002  -0.004   0.002  0.00  0.00    -0.050 C 
ATOM      2  C2  <0> d           1.012  -0.075  -1.201  0.00  0.00    -0.024 C 
ATOM      3  H1  <0> d           1.403  -1.049  -1.529  0.00  0.00     0.047 H 
ATOM      4  C3  <0> d           2.082   0.904  -0.701  0.00  0.00    -0.101 C 
ATOM      5  C4  <0> d           1.488   1.850  -0.002  0.00  0.00    -0.100 C 
ATOM      6  C5  <0> d          -0.019   1.568   0.011  0.00  0.00    -0.017 C 
ATOM      7  H2  <0> d          -0.586   2.095   0.792  0.00  0.00     0.049 H 
ATOM      8  C6  <0> d          -0.469   1.854  -1.457  0.00  0.00     0.031 A 
ATOM      9  H3  <0> d          -0.418   2.945  -1.591  0.00  0.00     0.074 H 
ATOM     10  C7  <0> d           0.214   0.719  -2.284  0.00  0.00     0.050 A 
ATOM     11  H4  <0> d           0.872   0.860  -3.155  0.00  0.00     0.059 H 
ATOM     12  C8  <0> d          -1.141   0.111  -2.554  0.00  0.00     0.224 A 
ATOM     13  O1  <0> d          -1.548  -0.855  -3.164  0.00  0.00    -0.273 OA
ATOM     14  N1  <0> d          -1.707   1.099  -1.830  0.00  0.00    -0.355 N 
ATOM     15  H5  <0> d           0.362  -0.371   0.975  0.00  0.00     0.035 H 
ATOM     16  H6  <0> d          -1.014  -0.384  -0.180  0.00  0.00     0.035 H 
ATOM     17  H7  <0> d           3.174   0.921  -0.835  0.00  0.00     0.077 H 
ATOM     18  H8  <0> d           2.085   2.657   0.449  0.00  0.00     0.077 H 
ATOM     19  H9  <0> d          -2.691   1.451  -1.486  0.00  0.00     0.162 HD
ENDROOT
TORSDOF 0
