REMARK  5 active torsions:
REMARK  status: ('A' for Active; 'I' for Inactive)
REMARK    1  A    between atoms: C1_1  and  C2_2 
REMARK    2  A    between atoms: C2_2  and  C7_11 
REMARK    3  A    between atoms: C4_5  and  C5_8 
REMARK    4  A    between atoms: C5_8  and  C6_9 
REMARK    5  A    between atoms: C6_9  and  O3_10 
ROOT
ATOM      1  C2  <0> d          -0.382   3.263  -2.793  0.00  0.00     0.157 C 
ATOM      2  O1  <0> d          -0.472   2.015  -3.501  0.00  0.00    -0.353 OA
ATOM      3  C3  <0> d          -0.125   1.007  -2.521  0.00  0.00     0.047 C 
ATOM      4  C4  <0> d          -0.753   1.593  -1.232  0.00  0.00     0.064 C 
ATOM      5  H1  <0> d          -1.813   1.347  -1.173  0.00  0.00     0.086 H 
ATOM      6  O2  <0> d          -0.564   3.013  -1.393  0.00  0.00    -0.348 OA
ATOM      7  H5  <0> d           0.956   0.915  -2.422  0.00  0.00     0.078 H 
ATOM      8  H6  <0> d          -0.575   0.046  -2.772  0.00  0.00     0.078 H 
ENDROOT
BRANCH   4   9
ATOM      9  C5  <0> d          -0.013   1.086   0.008  0.00  0.00    -0.019 C 
ATOM     10  H7  <0> d           0.002  -0.004   0.002  0.00  0.00     0.040 H 
ATOM     11  H8  <0> d           1.010   1.463   0.000  0.00  0.00     0.040 H 
BRANCH   9  12
ATOM     12  C6  <0> d          -0.729   1.579   1.267  0.00  0.00     0.019 C 
ATOM     13  H9  <0> d          -0.744   2.669   1.273  0.00  0.00     0.074 H 
ATOM     14  H10 <0> d          -1.751   1.202   1.275  0.00  0.00     0.074 H 
BRANCH  12  15
ATOM     15  O3  <0> d          -0.038   1.106   2.425  0.00  0.00    -0.401 OA
ATOM     16  H11 <0> d          -0.437   1.381   3.261  0.00  0.00     0.209 HD
ENDBRANCH  12  15
ENDBRANCH   9  12
ENDBRANCH   4   9
BRANCH   1  17
ATOM     17  C1  <0> d           0.994   3.889  -3.029  0.00  0.00    -0.026 C 
ATOM     18  H2  <0> d           1.123   4.091  -4.092  0.00  0.00     0.035 H 
ATOM     19  H3  <0> d           1.069   4.822  -2.470  0.00  0.00     0.035 H 
ATOM     20  H4  <0> d           1.769   3.201  -2.693  0.00  0.00     0.035 H 
ENDBRANCH   1  17
BRANCH   1  21
ATOM     21  C7  <0> d          -1.473   4.215  -3.288  0.00  0.00    -0.026 C 
ATOM     22  H12 <0> d          -2.450   3.758  -3.135  0.00  0.00     0.035 H 
ATOM     23  H13 <0> d          -1.418   5.150  -2.731  0.00  0.00     0.035 H 
ATOM     24  H14 <0> d          -1.326   4.415  -4.349  0.00  0.00     0.035 H 
ENDBRANCH   1  21
TORSDOF 5
