REMARK  2 active torsions:
REMARK  status: ('A' for Active; 'I' for Inactive)
REMARK    1  A    between atoms: C7_7  and  N2_12 
REMARK    2  A    between atoms: C9_9  and  N1_11 
ROOT
ATOM      1  C1  <0> d          -2.406   1.377   0.375  0.00  0.00    -0.080 A 
ATOM      2  C2  <0> d          -1.267   2.086   0.609  0.00  0.00    -0.072 A 
ATOM      3  C3  <0> d          -0.057   1.411   0.850  0.00  0.00    -0.021 A 
ATOM      4  C4  <0> d           1.134   2.119   1.089  0.00  0.00    -0.072 A 
ATOM      5  C5  <0> d           2.292   1.442   1.325  0.00  0.00    -0.080 A 
ATOM      6  C6  <0> d           2.321   0.051   1.335  0.00  0.00    -0.057 A 
ATOM      7  C7  <0> d           1.174  -0.679   1.105  0.00  0.00     0.039 A 
ATOM      8  C8  <0> d          -0.039  -0.005   0.858  0.00  0.00     0.026 A 
ATOM      9  C9  <0> d          -1.234  -0.713   0.619  0.00  0.00     0.039 A 
ATOM     10  C10 <0> d          -2.400  -0.014   0.381  0.00  0.00    -0.057 A 
ATOM     11  H1  <0> d          -3.330   1.903   0.187  0.00  0.00     0.083 H 
ATOM     12  H2  <0> d          -1.291   3.165   0.601  0.00  0.00     0.084 H 
ATOM     13  H3  <0> d           1.130   3.199   1.085  0.00  0.00     0.084 H 
ATOM     14  H4  <0> d           3.202   1.994   1.507  0.00  0.00     0.083 H 
ATOM     15  H5  <0> d           3.252  -0.462   1.525  0.00  0.00     0.086 H 
ATOM     16  H6  <0> d          -3.318  -0.553   0.198  0.00  0.00     0.086 H 
ENDROOT
BRANCH   7  17
ATOM     17  N2  <0> d           1.213  -2.072   1.118  0.00  0.00    -0.398 N 
ATOM     18  H9  <0> d           0.694  -2.578   0.473  0.00  0.00     0.156 HD
ATOM     19  H10 <0> d           1.760  -2.535   1.772  0.00  0.00     0.156 HD
ENDBRANCH   7  17
BRANCH   9  20
ATOM     20  N1  <0> d          -1.238  -2.106   0.622  0.00  0.00    -0.398 N 
ATOM     21  H7  <0> d          -0.702  -2.591   1.268  0.00  0.00     0.156 HD
ATOM     22  H8  <0> d          -1.777  -2.591  -0.023  0.00  0.00     0.156 HD
ENDBRANCH   9  20
TORSDOF 2
