REMARK  3 active torsions:
REMARK  status: ('A' for Active; 'I' for Inactive)
REMARK    1  A    between atoms: C1_1  and  C2_2 
REMARK    2  A    between atoms: C7_7  and  O1_8 
REMARK    3  A    between atoms: O1_8  and  C8_9 
ROOT
ATOM      1  C2  <0> d           1.158   3.173   0.008  0.00  0.00    -0.027 A 
ATOM      2  C3  <0> d          -0.050   3.844   0.022  0.00  0.00    -0.054 A 
ATOM      3  C4  <0> d          -1.237   3.134   0.030  0.00  0.00     0.034 A 
ATOM      4  C5  <0> d          -1.218   1.751   0.017  0.00  0.00    -0.059 A 
ATOM      5  C6  <0> d          -0.013   1.076   0.008  0.00  0.00    -0.049 A 
ATOM      6  C7  <0> d           1.179   1.786   0.000  0.00  0.00     0.074 A 
ATOM      7 Cl1  <0> d          -2.753   3.980   0.048  0.00  0.00    -0.084 Cl
ATOM      8  H4  <0> d          -0.067   4.924   0.027  0.00  0.00     0.087 H 
ATOM      9  H5  <0> d          -2.146   1.198   0.019  0.00  0.00     0.086 H 
ATOM     10  H6  <0> d           0.002  -0.004   0.002  0.00  0.00     0.087 H 
ENDROOT
BRANCH   6  11
ATOM     11  O1  <0> d           2.366   1.124  -0.015  0.00  0.00    -0.355 OA
BRANCH  11  12
ATOM     12  C8  <0> d           2.312  -0.304  -0.022  0.00  0.00     0.010 C 
ATOM     13  H7  <0> d           1.794  -0.652   0.872  0.00  0.00     0.066 H 
ATOM     14  H8  <0> d           1.777  -0.643  -0.908  0.00  0.00     0.066 H 
ATOM     15  H9  <0> d           3.325  -0.706  -0.033  0.00  0.00     0.066 H 
ENDBRANCH  11  12
ENDBRANCH   6  11
BRANCH   1  16
ATOM     16  C1  <0> d           2.451   3.947  -0.000  0.00  0.00    -0.049 C 
ATOM     17  H1  <0> d           2.753   4.139  -1.030  0.00  0.00     0.033 H 
ATOM     18  H2  <0> d           2.310   4.895   0.520  0.00  0.00     0.033 H 
ATOM     19  H3  <0> d           3.224   3.368   0.504  0.00  0.00     0.033 H 
ENDBRANCH   1  16
TORSDOF 3
