REMARK  9 active torsions:
REMARK  status: ('A' for Active; 'I' for Inactive)
REMARK    1  A    between atoms: C1_1  and  C2_2 
REMARK    2  A    between atoms: C2_2  and  C3_4 
REMARK    3  A    between atoms: C2_2  and  C9_10 
REMARK    4  A    between atoms: C3_4  and  C4_5 
REMARK    5  A    between atoms: C4_5  and  C5_6 
REMARK    6  A    between atoms: C6_7  and  C7_8 
REMARK    7  A    between atoms: C6_7  and  C8_9 
REMARK    8  A    between atoms: C9_10  and  C10_11 
REMARK    9  A    between atoms: C10_11  and  O1_12 
ROOT
ATOM      1  C3  <0> d          -1.427  -0.713   0.019  0.00  0.00    -0.059 C 
ATOM      2  H5  <0> d          -1.405  -1.799  -0.063  0.00  0.00     0.034 H 
ATOM      3  H6  <0> d          -1.962  -0.427   0.924  0.00  0.00     0.034 H 
ENDROOT
BRANCH   1   4
ATOM      4  C2  <0> d           0.005  -0.177   0.082  0.00  0.00    -0.056 C 
ATOM      5  H1  <0> d           0.513  -0.386  -0.860  0.00  0.00     0.039 H 
BRANCH   4   6
ATOM      6  C1  <0> d          -0.026   1.334   0.321  0.00  0.00    -0.073 C 
ATOM      7  H2  <0> d           0.995   1.715   0.366  0.00  0.00     0.028 H 
ATOM      8  H3  <0> d          -0.560   1.820  -0.495  0.00  0.00     0.028 H 
ATOM      9  H4  <0> d          -0.533   1.542   1.263  0.00  0.00     0.028 H 
ENDBRANCH   4   6
BRANCH   4  10
ATOM     10  C9  <0> d           0.755  -0.860   1.227  0.00  0.00    -0.042 C 
ATOM     11  H16 <0> d           0.300  -0.580   2.177  0.00  0.00     0.036 H 
ATOM     12  H17 <0> d           0.700  -1.942   1.103  0.00  0.00     0.036 H 
BRANCH  10  13
ATOM     13  C10 <0> d           2.220  -0.418   1.213  0.00  0.00     0.017 C 
ATOM     14  H18 <0> d           2.674  -0.699   0.263  0.00  0.00     0.073 H 
ATOM     15  H19 <0> d           2.274   0.663   1.337  0.00  0.00     0.073 H 
BRANCH  13  16
ATOM     16  O1  <0> d           2.920  -1.056   2.283  0.00  0.00    -0.401 OA
ATOM     17  H20 <0> d           3.857  -0.822   2.335  0.00  0.00     0.209 HD
ENDBRANCH  13  16
ENDBRANCH  10  13
ENDBRANCH   4  10
ENDBRANCH   1   4
BRANCH   1  18
ATOM     18  C4  <0> d          -2.138  -0.124  -1.201  0.00  0.00    -0.049 C 
ATOM     19  H7  <0> d          -2.160   0.963  -1.120  0.00  0.00     0.038 H 
ATOM     20  H8  <0> d          -1.603  -0.409  -2.107  0.00  0.00     0.038 H 
BRANCH  18  21
ATOM     21  C5  <0> d          -3.549  -0.651  -1.263  0.00  0.00    -0.101 C 
ATOM     22  C6  <0> d          -4.556   0.181  -1.360  0.00  0.00    -0.091 C 
ATOM     23  H9  <0> d          -3.729  -1.715  -1.228  0.00  0.00     0.077 H 
BRANCH  22  24
ATOM     24  C7  <0> d          -4.301   1.650  -1.581  0.00  0.00    -0.055 C 
ATOM     25  H10 <0> d          -3.234   1.815  -1.734  0.00  0.00     0.033 H 
ATOM     26  H11 <0> d          -4.849   1.985  -2.461  0.00  0.00     0.033 H 
ATOM     27  H12 <0> d          -4.634   2.212  -0.709  0.00  0.00     0.033 H 
ENDBRANCH  22  24
BRANCH  22  28
ATOM     28  C8  <0> d          -5.969  -0.330  -1.250  0.00  0.00    -0.055 C 
ATOM     29  H13 <0> d          -6.284  -0.304  -0.206  0.00  0.00     0.033 H 
ATOM     30  H14 <0> d          -6.630   0.300  -1.845  0.00  0.00     0.033 H 
ATOM     31  H15 <0> d          -6.014  -1.355  -1.618  0.00  0.00     0.033 H 
ENDBRANCH  22  28
ENDBRANCH  18  21
ENDBRANCH   1  18
TORSDOF 9
