REMARK  2 active torsions:
REMARK  status: ('A' for Active; 'I' for Inactive)
REMARK    1  A    between atoms: C1_1  and  C2_2 
REMARK    2  A    between atoms: C4_5  and  C7_9 
ROOT
ATOM      1  C2  <0> d           0.002  -0.004   0.002  0.00  0.00     0.051 C 
ATOM      2  H1  <0> d          -1.021  -0.379   0.010  0.00  0.00     0.089 H 
ATOM      3  C3  <0> d           0.700  -0.486  -1.238  0.00  0.00    -0.074 C 
ATOM      4  C4  <0> d           1.575  -1.446  -1.227  0.00  0.00    -0.083 C 
ATOM      5  C5  <0> d           1.977  -2.159   0.035  0.00  0.00    -0.025 C 
ATOM      6  C6  <0> d           0.944  -1.884   1.131  0.00  0.00     0.024 C 
ATOM      7  O1  <0> d           0.688  -0.475   1.164  0.00  0.00    -0.382 OA
ATOM      8  H5  <0> d           0.463  -0.014  -2.180  0.00  0.00     0.081 H 
ATOM      9  H6  <0> d           2.028  -3.232  -0.154  0.00  0.00     0.042 H 
ATOM     10  H7  <0> d           2.954  -1.802   0.359  0.00  0.00     0.042 H 
ATOM     11  H8  <0> d           0.021  -2.421   0.910  0.00  0.00     0.074 H 
ATOM     12  H9  <0> d           1.336  -2.209   2.095  0.00  0.00     0.074 H 
ENDROOT
BRANCH   1  13
ATOM     13  C1  <0> d          -0.019   1.526   0.010  0.00  0.00    -0.049 C 
ATOM     14  H2  <0> d           1.004   1.903   0.003  0.00  0.00     0.031 H 
ATOM     15  H3  <0> d          -0.546   1.887  -0.873  0.00  0.00     0.031 H 
ATOM     16  H4  <0> d          -0.529   1.877   0.907  0.00  0.00     0.031 H 
ENDBRANCH   1  13
BRANCH   4  17
ATOM     17  C7  <0> d           2.212  -1.862  -2.528  0.00  0.00    -0.055 C 
ATOM     18  H10 <0> d           1.815  -1.251  -3.338  0.00  0.00     0.033 H 
ATOM     19  H11 <0> d           3.292  -1.724  -2.465  0.00  0.00     0.033 H 
ATOM     20  H12 <0> d           1.991  -2.912  -2.722  0.00  0.00     0.033 H 
ENDBRANCH   4  17
TORSDOF 2
