REMARK  4 active torsions:
REMARK  status: ('A' for Active; 'I' for Inactive)
REMARK    1  A    between atoms: C1_1  and  C2_2 
REMARK    2  A    between atoms: C2_2  and  C3_3 
REMARK    3  A    between atoms: C5_7  and  C8_10 
REMARK    4  A    between atoms: C6_8  and  C7_9 
ROOT
ATOM      1  C3  <0> d          -0.742   1.585  -1.213  0.00  0.00    -0.035 A 
ATOM      2  C4  <0> d          -1.678   0.914  -1.914  0.00  0.00    -0.016 A 
ATOM      3  N1  <0> d          -2.091   1.707  -2.943  0.00  0.00    -0.368 N 
ATOM      4  H1  <0> d          -2.759   1.472  -3.605  0.00  0.00     0.165 HD
ATOM      5  C5  <0> d          -1.408   2.886  -2.887  0.00  0.00     0.011 A 
ATOM      6  C6  <0> d          -0.575   2.841  -1.828  0.00  0.00    -0.032 A 
ATOM      7  H7  <0> d          -2.038  -0.081  -1.697  0.00  0.00     0.112 H 
ENDROOT
BRANCH   1   8
ATOM      8  C2  <0> d          -0.013   1.086   0.008  0.00  0.00    -0.043 C 
ATOM      9  H5  <0> d           0.002  -0.004   0.002  0.00  0.00     0.039 H 
ATOM     10  H6  <0> d           1.010   1.463   0.000  0.00  0.00     0.039 H 
BRANCH   8  11
ATOM     11  C1  <0> d          -0.729   1.579   1.267  0.00  0.00    -0.073 C 
ATOM     12  H2  <0> d          -0.744   2.669   1.273  0.00  0.00     0.028 H 
ATOM     13  H3  <0> d          -1.751   1.202   1.275  0.00  0.00     0.028 H 
ATOM     14  H4  <0> d          -0.202   1.218   2.150  0.00  0.00     0.028 H 
ENDBRANCH   8  11
ENDBRANCH   1   8
BRANCH   6  15
ATOM     15  C7  <0> d           0.365   3.933  -1.386  0.00  0.00    -0.049 C 
ATOM     16  H8  <0> d           1.329   3.805  -1.879  0.00  0.00     0.033 H 
ATOM     17  H9  <0> d          -0.053   4.903  -1.654  0.00  0.00     0.033 H 
ATOM     18  H10 <0> d           0.500   3.881  -0.306  0.00  0.00     0.033 H 
ENDBRANCH   6  15
BRANCH   5  19
ATOM     19  C8  <0> d          -1.563   4.042  -3.841  0.00  0.00    -0.037 C 
ATOM     20  H11 <0> d          -2.335   4.718  -3.471  0.00  0.00     0.035 H 
ATOM     21  H12 <0> d          -0.618   4.579  -3.919  0.00  0.00     0.035 H 
ATOM     22  H13 <0> d          -1.850   3.667  -4.824  0.00  0.00     0.035 H 
ENDBRANCH   5  19
TORSDOF 4
