REMARK  2 active torsions:
REMARK  status: ('A' for Active; 'I' for Inactive)
REMARK    1  A    between atoms: C2_2  and  C5_7 
REMARK    2  A    between atoms: C5_7  and  O1_8 
ROOT
ATOM      1  C1  <0> d          -0.019   1.534   0.011  0.00  0.00     0.001 C 
ATOM      2  C2  <0> d           1.518   1.476  -0.004  0.00  0.00    -0.023 C 
ATOM      3  C3  <0> d           1.381   0.097  -0.670  0.00  0.00     0.001 C 
ATOM      4  C4  <0> d           0.002  -0.004   0.002  0.00  0.00     0.244 C 
ATOM      5  F1  <0> d           0.042  -0.571   1.280  0.00  0.00    -0.206 F 
ATOM      6  F2  <0> d          -0.980  -0.573  -0.816  0.00  0.00    -0.206 F 
ATOM      7  H1  <0> d          -0.431   1.960   0.925  0.00  0.00     0.042 H 
ATOM      8  H2  <0> d          -0.448   1.969  -0.892  0.00  0.00     0.042 H 
ATOM      9  H3  <0> d           1.963   1.439   0.990  0.00  0.00     0.043 H 
ATOM     10  H4  <0> d           1.335   0.140  -1.758  0.00  0.00     0.042 H 
ATOM     11  H5  <0> d           2.100  -0.637  -0.305  0.00  0.00     0.042 H 
ENDROOT
BRANCH   2  12
ATOM     12  C5  <0> d           2.162   2.531  -0.906  0.00  0.00     0.020 C 
ATOM     13  H6  <0> d           1.892   2.335  -1.944  0.00  0.00     0.074 H 
ATOM     14  H7  <0> d           1.807   3.521  -0.619  0.00  0.00     0.074 H 
BRANCH  12  15
ATOM     15  O1  <0> d           3.583   2.475  -0.765  0.00  0.00    -0.400 OA
ATOM     16  H8  <0> d           4.058   3.118  -1.310  0.00  0.00     0.209 HD
ENDBRANCH  12  15
ENDBRANCH   2  12
TORSDOF 2
