REMARK  2 active torsions:
REMARK  status: ('A' for Active; 'I' for Inactive)
REMARK    1  A    between atoms: C1_1  and  N1_2 
REMARK    2  A    between atoms: N1_2  and  C2_3 
ROOT
ATOM      1  C2  <0> d           0.604  -0.685  -1.050  0.00  0.00     0.125 A 
ATOM      2  C3  <0> d           1.189   0.041  -2.088  0.00  0.00    -0.038 A 
ATOM      3  C4  <0> d           1.782  -0.626  -3.126  0.00  0.00    -0.066 A 
ATOM      4  C5  <0> d           1.778  -2.025  -3.103  0.00  0.00     0.011 A 
ATOM      5  C6  <0> d           2.294  -3.062  -4.000  0.00  0.00    -0.054 A 
ATOM      6  C7  <0> d           1.986  -4.244  -3.446  0.00  0.00    -0.020 A 
ATOM      7  N2  <0> d           1.315  -4.045  -2.267  0.00  0.00    -0.350 N 
ATOM      8  H1  <0> d           0.990  -4.751  -1.686  0.00  0.00     0.166 HD
ATOM      9  C8  <0> d           1.172  -2.700  -2.029  0.00  0.00     0.140 A 
ATOM     10  N3  <0> d           0.613  -2.007  -1.043  0.00  0.00    -0.213 NA
ATOM     11  H6  <0> d           1.173   1.120  -2.073  0.00  0.00     0.089 H 
ATOM     12  H7  <0> d           2.242  -0.087  -3.941  0.00  0.00     0.085 H 
ATOM     13  H8  <0> d           2.821  -2.905  -4.929  0.00  0.00     0.087 H 
ATOM     14  H9  <0> d           2.230  -5.209  -3.866  0.00  0.00     0.111 H 
ENDROOT
BRANCH   1  15
ATOM     15  N1  <0> d           0.002  -0.004   0.002  0.00  0.00    -0.379 N 
ATOM     16  H5  <0> d          -0.404  -0.499   0.731  0.00  0.00     0.160 HD
BRANCH  15  17
ATOM     17  C1  <0> d          -0.018   1.461   0.010  0.00  0.00    -0.020 C 
ATOM     18  H2  <0> d           1.005   1.838   0.002  0.00  0.00     0.056 H 
ATOM     19  H3  <0> d          -0.545   1.822  -0.873  0.00  0.00     0.056 H 
ATOM     20  H4  <0> d          -0.528   1.812   0.907  0.00  0.00     0.056 H 
ENDBRANCH  15  17
ENDBRANCH   1  15
TORSDOF 2
