REMARK  4 active torsions:
REMARK  status: ('A' for Active; 'I' for Inactive)
REMARK    1  A    between atoms: C1_1  and  C2_2 
REMARK    2  A    between atoms: C2_2  and  C3_3 
REMARK    3  A    between atoms: C3_3  and  C4_4 
REMARK    4  A    between atoms: C6_8  and  C7_11 
ROOT
ATOM      1  C4  <0> d          -1.878   2.732   0.675  0.00  0.00     0.131 C 
ATOM      2  H1  <0> d          -2.748   2.077   0.636  0.00  0.00     0.129 H 
ATOM      3  O1  <0> d          -1.535   3.182  -0.653  0.00  0.00    -0.359 OA
ATOM      4  C5  <0> d          -0.808   2.058  -1.206  0.00  0.00     0.046 C 
ATOM      5  C6  <0> d          -0.019   1.526   0.010  0.00  0.00     0.058 C 
ATOM      6  H2  <0> d           0.999   1.917   0.003  0.00  0.00     0.086 H 
ATOM      7  O2  <0> d          -0.732   2.010   1.163  0.00  0.00    -0.354 OA
ATOM      8  H10 <0> d          -0.128   2.387  -1.992  0.00  0.00     0.078 H 
ATOM      9  H11 <0> d          -1.496   1.301  -1.581  0.00  0.00     0.078 H 
ENDROOT
BRANCH   1  10
ATOM     10  C3  <0> d          -2.164   3.933   1.580  0.00  0.00    -0.019 C 
ATOM     11  H8  <0> d          -2.310   3.590   2.604  0.00  0.00     0.040 H 
ATOM     12  H9  <0> d          -1.323   4.624   1.544  0.00  0.00     0.040 H 
BRANCH  10  13
ATOM     13  C2  <0> d          -3.430   4.645   1.096  0.00  0.00    -0.064 C 
ATOM     14  H6  <0> d          -3.285   4.988   0.072  0.00  0.00     0.032 H 
ATOM     15  H7  <0> d          -4.272   3.954   1.132  0.00  0.00     0.032 H 
BRANCH  13  16
ATOM     16  C1  <0> d          -3.716   5.845   2.000  0.00  0.00    -0.076 C 
ATOM     17  H3  <0> d          -4.618   6.353   1.656  0.00  0.00     0.027 H 
ATOM     18  H4  <0> d          -3.861   5.502   3.025  0.00  0.00     0.027 H 
ATOM     19  H5  <0> d          -2.874   6.537   1.964  0.00  0.00     0.027 H 
ENDBRANCH  13  16
ENDBRANCH  10  13
ENDBRANCH   1  10
BRANCH   5  20
ATOM     20  C7  <0> d           0.002  -0.004   0.002  0.00  0.00    -0.050 C 
ATOM     21  H12 <0> d           0.501  -0.356  -0.901  0.00  0.00     0.031 H 
ATOM     22  H13 <0> d           0.540  -0.365   0.879  0.00  0.00     0.031 H 
ATOM     23  H14 <0> d          -1.020  -0.381   0.022  0.00  0.00     0.031 H 
ENDBRANCH   5  20
TORSDOF 4
