REMARK  2 active torsions:
REMARK  status: ('A' for Active; 'I' for Inactive)
REMARK    1  A    between atoms: C1_1  and  C2_2 
REMARK    2  A    between atoms: C4_4  and  C9_12 
ROOT
ATOM      1  C2  <0> d           0.041  -2.086   1.181  0.00  0.00    -0.059 A 
ATOM      2  C3  <0> d           0.023  -0.696   1.178  0.00  0.00    -0.070 A 
ATOM      3  C4  <0> d           0.002  -0.004   0.002  0.00  0.00    -0.048 A 
ATOM      4  C5  <0> d          -0.006  -0.701  -1.211  0.00  0.00     0.017 A 
ATOM      5  C6  <0> d          -0.018  -0.296  -2.614  0.00  0.00     0.034 A 
ATOM      6  N1  <0> d          -0.010  -1.378  -3.340  0.00  0.00    -0.186 NA
ATOM      7  N2  <0> d           0.012  -2.509  -2.517  0.00  0.00    -0.278 N 
ATOM      8  H1  <0> d           0.022  -3.457  -2.834  0.00  0.00     0.189 HD
ATOM      9  C7  <0> d           0.019  -2.109  -1.206  0.00  0.00     0.062 A 
ATOM     10  C8  <0> d           0.039  -2.788   0.010  0.00  0.00    -0.049 A 
ATOM     11  H5  <0> d           0.025  -0.159   2.115  0.00  0.00     0.085 H 
ATOM     12  H6  <0> d          -0.035   0.718  -2.983  0.00  0.00     0.118 H 
ATOM     13  H7  <0> d           0.054  -3.868   0.026  0.00  0.00     0.087 H 
ENDROOT
BRANCH   1  14
ATOM     14  C1  <0> d           0.063  -2.827   2.493  0.00  0.00    -0.051 C 
ATOM     15  H2  <0> d          -0.960  -3.019   2.819  0.00  0.00     0.033 H 
ATOM     16  H3  <0> d           0.588  -3.774   2.367  0.00  0.00     0.033 H 
ATOM     17  H4  <0> d           0.576  -2.224   3.242  0.00  0.00     0.033 H 
ENDBRANCH   1  14
BRANCH   3  18
ATOM     18  C9  <0> d          -0.018   1.503   0.010  0.00  0.00    -0.050 C 
ATOM     19  H8  <0> d           1.004   1.880   0.003  0.00  0.00     0.033 H 
ATOM     20  H9  <0> d          -0.545   1.864  -0.873  0.00  0.00     0.033 H 
ATOM     21  H10 <0> d          -0.529   1.854   0.907  0.00  0.00     0.033 H 
ENDBRANCH   3  18
TORSDOF 2
