REMARK  3 active torsions:
REMARK  status: ('A' for Active; 'I' for Inactive)
REMARK    1  A    between atoms: C1_1  and  C2_2 
REMARK    2  A    between atoms: C6_6  and  O1_8 
REMARK    3  A    between atoms: O1_8  and  C7_9 
ROOT
ATOM      1  C2  <0> d          -0.016   1.315   0.009  0.00  0.00     0.033 A 
ATOM      2  C3  <0> d           1.158   2.047   0.002  0.00  0.00    -0.058 A 
ATOM      3  C4  <0> d           2.373   1.385  -0.014  0.00  0.00    -0.057 A 
ATOM      4  C5  <0> d           2.367  -0.014  -0.021  0.00  0.00     0.097 A 
ATOM      5  C6  <0> d           1.135  -0.685  -0.013  0.00  0.00     0.185 A 
ATOM      6  N1  <0> d           0.002  -0.004   0.002  0.00  0.00    -0.229 NA
ATOM      7  C8  <0> d           3.597  -0.748  -0.038  0.00  0.00     0.104 C 
ATOM      8  N2  <0> d           4.572  -1.330  -0.051  0.00  0.00    -0.191 NA
ATOM      9  H4  <0> d           1.126   3.127   0.008  0.00  0.00     0.086 H 
ATOM     10  H5  <0> d           3.302   1.935  -0.020  0.00  0.00     0.086 H 
ENDROOT
BRANCH   5  11
ATOM     11  O1  <0> d           1.106  -2.040  -0.019  0.00  0.00    -0.338 OA
BRANCH  11  12
ATOM     12  C7  <0> d          -0.181  -2.661  -0.011  0.00  0.00     0.012 C 
ATOM     13  H6  <0> d          -0.060  -3.755  -0.018  0.00  0.00     0.067 H 
ATOM     14  H7  <0> d          -0.745  -2.349  -0.902  0.00  0.00     0.067 H 
ATOM     15  H8  <0> d          -0.728  -2.358   0.895  0.00  0.00     0.067 H 
ENDBRANCH  11  12
ENDBRANCH   5  11
BRANCH   1  16
ATOM     16  C1  <0> d          -1.339   2.037   0.019  0.00  0.00    -0.035 C 
ATOM     17  H1  <0> d          -1.163   3.123   0.025  0.00  0.00     0.035 H 
ATOM     18  H2  <0> d          -1.905   1.752   0.919  0.00  0.00     0.035 H 
ATOM     19  H3  <0> d          -1.913   1.762  -0.878  0.00  0.00     0.035 H 
ENDBRANCH   1  16
TORSDOF 3
