REMARK  1 active torsions:
REMARK  status: ('A' for Active; 'I' for Inactive)
REMARK    1  A    between atoms: C3_3  and  C4_4 
ROOT
ATOM      1  C1  <0> d          -0.019   1.526   0.010  0.00  0.00    -0.054 A 
ATOM      2  C2  <0> d           1.317   0.779  -0.006  0.00  0.00    -0.054 A 
ATOM      3  C3  <0> d           0.002  -0.004   0.002  0.00  0.00     0.005 A 
ATOM      4  H2  <0> d          -0.307   2.020   0.938  0.00  0.00     0.034 H 
ATOM      5  H3  <0> d          -0.325   2.030  -0.906  0.00  0.00     0.034 H 
ATOM      6  H4  <0> d           1.889   0.792  -0.934  0.00  0.00     0.034 H 
ATOM      7  H5  <0> d           1.906   0.782   0.910  0.00  0.00     0.034 H 
ATOM      8  H6  <0> d          -0.290  -0.506  -0.920  0.00  0.00     0.052 H 
ENDROOT
BRANCH   3   9
ATOM      9  C4  <0> d          -0.378  -0.712   1.277  0.00  0.00     0.127 A 
ATOM     10  N3  <0> d          -1.568  -1.166   1.578  0.00  0.00    -0.202 NA
ATOM     11  C5  <0> d          -1.542  -1.737   2.782  0.00  0.00     0.242 A 
ATOM     12  N2  <0> d          -0.331  -1.647   3.269  0.00  0.00    -0.140 NA
ATOM     13 Cl1  <0> d          -2.896  -2.476   3.578  0.00  0.00    -0.040 Cl
ATOM     14  N1  <0> d           0.445  -0.982   2.305  0.00  0.00    -0.261 N 
ATOM     15  H1  <0> d           1.387  -0.761   2.369  0.00  0.00     0.190 HD
ENDBRANCH   3   9
TORSDOF 1
