REMARK  4 active torsions:
REMARK  status: ('A' for Active; 'I' for Inactive)
REMARK    1  A    between atoms: C1_1  and  N1_2 
REMARK    2  A    between atoms: C3_4  and  C5_7 
REMARK    3  A    between atoms: C5_7  and  O2_9 
REMARK    4  A    between atoms: O2_9  and  C6_10 
ROOT
ATOM      1  N1  <0> d          -0.018   1.461   0.010  0.00  0.00    -0.353 N 
ATOM      2  C2  <0> d          -1.122   2.244   0.019  0.00  0.00     0.014 A 
ATOM      3  C3  <0> d          -0.689   3.538   0.026  0.00  0.00     0.148 A 
ATOM      4  N2  <0> d           0.669   3.515   0.014  0.00  0.00    -0.236 NA
ATOM      5  C4  <0> d           1.069   2.277   0.004  0.00  0.00     0.066 A 
ATOM      6  H4  <0> d          -2.148   1.908   0.022  0.00  0.00     0.115 H 
ATOM      7  H5  <0> d           2.098   1.950  -0.007  0.00  0.00     0.143 H 
ENDROOT
BRANCH   3   8
ATOM      8  C5  <0> d          -1.539   4.740   0.040  0.00  0.00     0.313 C 
ATOM      9  O1  <0> d          -2.749   4.628   0.050  0.00  0.00    -0.257 OA
BRANCH   8  10
ATOM     10  O2  <0> d          -0.975   5.964   0.040  0.00  0.00    -0.321 OA
BRANCH  10  11
ATOM     11  C6  <0> d          -1.874   7.104   0.054  0.00  0.00     0.013 C 
ATOM     12  H6  <0> d          -2.495   7.067   0.949  0.00  0.00     0.067 H 
ATOM     13  H7  <0> d          -1.292   8.026   0.053  0.00  0.00     0.067 H 
ATOM     14  H8  <0> d          -2.510   7.075  -0.831  0.00  0.00     0.067 H 
ENDBRANCH  10  11
ENDBRANCH   8  10
ENDBRANCH   3   8
BRANCH   1  15
ATOM     15  C1  <0> d           0.002  -0.004   0.002  0.00  0.00    -0.014 C 
ATOM     16  H1  <0> d           0.016  -0.373   1.028  0.00  0.00     0.057 H 
ATOM     17  H2  <0> d          -0.887  -0.377  -0.506  0.00  0.00     0.057 H 
ATOM     18  H3  <0> d           0.892  -0.352  -0.522  0.00  0.00     0.057 H 
ENDBRANCH   1  15
TORSDOF 4
