REMARK  2 active torsions:
REMARK  status: ('A' for Active; 'I' for Inactive)
REMARK    1  A    between atoms: C5_5  and  N1_8 
REMARK    2  A    between atoms: C6_6  and  O1_7 
ROOT
ATOM      1  C1  <0> d           1.173   2.066   0.002  0.00  0.00    -0.011 A 
ATOM      2  C2  <0> d           1.154   3.450   0.010  0.00  0.00     0.122 A 
ATOM      3  C3  <0> d          -0.053   4.129   0.025  0.00  0.00    -0.006 A 
ATOM      4  C4  <0> d          -1.245   3.425   0.032  0.00  0.00     0.148 A 
ATOM      5  C5  <0> d          -1.231   2.037   0.019  0.00  0.00     0.098 A 
ATOM      6  C6  <0> d          -0.016   1.356   0.009  0.00  0.00     0.097 A 
ATOM      7  F1  <0> d          -2.421   4.089   0.047  0.00  0.00    -0.203 F 
ATOM      8  F2  <0> d           2.315   4.141   0.002  0.00  0.00    -0.206 F 
ATOM      9  H1  <0> d           2.116   1.539  -0.010  0.00  0.00     0.092 H 
ATOM     10  H2  <0> d          -0.064   5.209   0.031  0.00  0.00     0.093 H 
ENDROOT
BRANCH   5  11
ATOM     11  N1  <0> d          -2.438   1.321   0.021  0.00  0.00    -0.394 N 
ATOM     12  H4  <0> d          -2.427   0.351   0.015  0.00  0.00     0.156 HD
ATOM     13  H5  <0> d          -3.283   1.797   0.027  0.00  0.00     0.156 HD
ENDBRANCH   5  11
BRANCH   6  14
ATOM     14  O1  <0> d           0.002  -0.004   0.002  0.00  0.00    -0.358 OA
ATOM     15  H3  <0> d           0.016  -0.402   0.883  0.00  0.00     0.217 HD
ENDBRANCH   6  14
TORSDOF 2
