REMARK  0 active torsions:
REMARK  status: ('A' for Active; 'I' for Inactive)
ROOT
ATOM      1  C1  <0> d           1.078   1.862   0.002  0.00  0.00    -0.056 A 
ATOM      2  C2  <0> d          -0.013   1.076   0.008  0.00  0.00    -0.022 A 
ATOM      3  N1  <0> d          -1.142   1.845   0.017  0.00  0.00    -0.363 N 
ATOM      4  H1  <0> d          -2.050   1.502   0.019  0.00  0.00     0.165 HD
ATOM      5  C3  <0> d          -0.801   3.178   0.025  0.00  0.00     0.083 A 
ATOM      6  C4  <0> d           0.607   3.244   0.013  0.00  0.00    -0.004 A 
ATOM      7  C5  <0> d           1.219   4.502   0.013  0.00  0.00    -0.054 A 
ATOM      8  C6  <0> d           0.429   5.617   0.026  0.00  0.00     0.005 A 
ATOM      9  N2  <0> d          -0.891   5.524   0.037  0.00  0.00    -0.246 NA
ATOM     10  C7  <0> d          -1.521   4.366   0.037  0.00  0.00     0.153 A 
ATOM     11 Cl1  <0> d          -3.257   4.326   0.053  0.00  0.00    -0.060 Cl
ATOM     12  H2  <0> d           2.107   1.534  -0.010  0.00  0.00     0.086 H 
ATOM     13  H3  <0> d           0.002  -0.004   0.002  0.00  0.00     0.111 H 
ATOM     14  H4  <0> d           2.295   4.590   0.004  0.00  0.00     0.087 H 
ATOM     15  H5  <0> d           0.891   6.593   0.026  0.00  0.00     0.114 H 
ENDROOT
TORSDOF 0
