REMARK  4 active torsions:
REMARK  status: ('A' for Active; 'I' for Inactive)
REMARK    1  A    between atoms: C1_1  and  C2_2 
REMARK    2  A    between atoms: C2_2  and  C3_3 
REMARK    3  A    between atoms: C3_3  and  C4_4 
REMARK    4  A    between atoms: C7_7  and  N2_10 
ROOT
ATOM      1  C4  <0> d          -1.413  -2.041   0.005  0.00  0.00     0.034 A 
ATOM      2  C5  <0> d          -2.089  -2.737   0.990  0.00  0.00    -0.057 A 
ATOM      3  C6  <0> d          -2.066  -4.122   0.976  0.00  0.00    -0.054 A 
ATOM      4  C7  <0> d          -1.357  -4.762  -0.038  0.00  0.00     0.043 A 
ATOM      5  C8  <0> d          -0.703  -3.993  -0.992  0.00  0.00     0.028 A 
ATOM      6  N1  <0> d          -0.755  -2.676  -0.945  0.00  0.00    -0.263 NA
ATOM      7  H8  <0> d          -2.628  -2.207   1.761  0.00  0.00     0.086 H 
ATOM      8  H9  <0> d          -2.585  -4.691   1.733  0.00  0.00     0.087 H 
ATOM      9  H10 <0> d          -0.150  -4.478  -1.782  0.00  0.00     0.118 H 
ENDROOT
BRANCH   1  10
ATOM     10  C3  <0> d          -1.433  -0.534   0.013  0.00  0.00    -0.025 C 
ATOM     11  H6  <0> d          -1.944  -0.182   0.910  0.00  0.00     0.042 H 
ATOM     12  H7  <0> d          -1.960  -0.173  -0.870  0.00  0.00     0.042 H 
BRANCH  10  13
ATOM     13  C2  <0> d           0.002  -0.004   0.002  0.00  0.00    -0.063 C 
ATOM     14  H4  <0> d           0.512  -0.356  -0.895  0.00  0.00     0.033 H 
ATOM     15  H5  <0> d           0.529  -0.365   0.885  0.00  0.00     0.033 H 
BRANCH  13  16
ATOM     16  C1  <0> d          -0.019   1.526   0.010  0.00  0.00    -0.076 C 
ATOM     17  H1  <0> d           1.004   1.903   0.003  0.00  0.00     0.027 H 
ATOM     18  H2  <0> d          -0.546   1.887  -0.873  0.00  0.00     0.027 H 
ATOM     19  H3  <0> d          -0.529   1.877   0.907  0.00  0.00     0.027 H 
ENDBRANCH  13  16
ENDBRANCH  10  13
ENDBRANCH   1  10
BRANCH   4  20
ATOM     20  N2  <0> d          -1.304  -6.157  -0.094  0.00  0.00    -0.398 N 
ATOM     21  H11 <0> d          -1.763  -6.687   0.576  0.00  0.00     0.156 HD
ATOM     22  H12 <0> d          -0.808  -6.595  -0.803  0.00  0.00     0.156 HD
ENDBRANCH   4  20
TORSDOF 4
