REMARK  1 active torsions:
REMARK  status: ('A' for Active; 'I' for Inactive)
REMARK    1  A    between atoms: C6_7  and  O1_14 
ROOT
ATOM      1  C1  <0> d          -0.019   1.526   0.010  0.00  0.00    -0.065 C 
ATOM      2  C2  <0> d           1.417   2.055  -0.000  0.00  0.00    -0.065 C 
ATOM      3  C3  <0> d           2.133   1.562  -1.259  0.00  0.00    -0.061 C 
ATOM      4  C4  <0> d           2.154   0.032  -1.268  0.00  0.00    -0.048 C 
ATOM      5  H1  <0> d           2.681  -0.329  -0.385  0.00  0.00     0.040 H 
ATOM      6  C5  <0> d           2.870  -0.461  -2.526  0.00  0.00    -0.037 C 
ATOM      7  C6  <0> d           2.890  -1.991  -2.535  0.00  0.00     0.036 C 
ATOM      8  H2  <0> d           3.401  -2.343  -3.432  0.00  0.00     0.082 H 
ATOM      9  C7  <0> d           1.455  -2.521  -2.524  0.00  0.00    -0.041 C 
ATOM     10  C8  <0> d           0.739  -2.027  -1.265  0.00  0.00    -0.059 C 
ATOM     11  C9  <0> d           0.718  -0.497  -1.257  0.00  0.00    -0.051 C 
ATOM     12  H3  <0> d           0.191  -0.136  -2.140  0.00  0.00     0.040 H 
ATOM     13  C10 <0> d           0.002  -0.004   0.002  0.00  0.00    -0.061 C 
ATOM     14  H4  <0> d          -0.546   1.887  -0.873  0.00  0.00     0.033 H 
ATOM     15  H5  <0> d          -0.529   1.877   0.907  0.00  0.00     0.033 H 
ATOM     16  H6  <0> d           1.402   3.145   0.006  0.00  0.00     0.033 H 
ATOM     17  H7  <0> d           1.944   1.694   0.883  0.00  0.00     0.033 H 
ATOM     18  H8  <0> d           3.155   1.939  -1.267  0.00  0.00     0.033 H 
ATOM     19  H9  <0> d           1.606   1.923  -2.142  0.00  0.00     0.033 H 
ATOM     20  H10 <0> d           3.892  -0.084  -2.534  0.00  0.00     0.037 H 
ATOM     21  H11 <0> d           2.343  -0.100  -3.409  0.00  0.00     0.037 H 
ATOM     22  H12 <0> d           1.470  -3.611  -2.530  0.00  0.00     0.036 H 
ATOM     23  H13 <0> d           0.928  -2.160  -3.407  0.00  0.00     0.036 H 
ATOM     24  H14 <0> d           1.266  -2.388  -0.382  0.00  0.00     0.033 H 
ATOM     25  H15 <0> d          -0.284  -2.405  -1.258  0.00  0.00     0.033 H 
ATOM     26  H16 <0> d           0.529  -0.365   0.885  0.00  0.00     0.033 H 
ATOM     27  H17 <0> d          -1.020  -0.381   0.010  0.00  0.00     0.033 H 
ENDROOT
BRANCH   7  28
ATOM     28  O1  <0> d           3.582  -2.465  -1.377  0.00  0.00    -0.396 OA
ATOM     29  H18 <0> d           3.634  -3.428  -1.317  0.00  0.00     0.210 HD
ENDBRANCH   7  28
TORSDOF 1
