REMARK  1 active torsions:
REMARK  status: ('A' for Active; 'I' for Inactive)
REMARK    1  A    between atoms: C4_5  and  C6_7 
ROOT
ATOM      1  C1  <0> d           2.620  -4.141  -0.046  0.00  0.00    -0.079 A 
ATOM      2  C2  <0> d           1.429  -4.853  -0.039  0.00  0.00    -0.066 A 
ATOM      3  C3  <0> d           0.229  -4.166  -0.024  0.00  0.00     0.003 A 
ATOM      4  N1  <0> d           0.203  -2.849  -0.016  0.00  0.00    -0.260 NA
ATOM      5  C4  <0> d           1.319  -2.132  -0.022  0.00  0.00     0.068 A 
ATOM      6  C5  <0> d           2.564  -2.758  -0.043  0.00  0.00    -0.054 A 
ATOM      7  H1  <0> d           3.571  -4.654  -0.058  0.00  0.00     0.083 H 
ATOM      8  H2  <0> d           1.439  -5.933  -0.045  0.00  0.00     0.085 H 
ATOM      9  H3  <0> d          -0.700  -4.717  -0.018  0.00  0.00     0.114 H 
ATOM     10  H4  <0> d           3.471  -2.173  -0.053  0.00  0.00     0.087 H 
ENDROOT
BRANCH   5  11
ATOM     11  C6  <0> d           1.242  -0.650  -0.013  0.00  0.00     0.010 A 
ATOM     12  C10 <0> d           2.403   0.120  -0.020  0.00  0.00     0.014 A 
ATOM     13  N2  <0> d           2.335   1.435  -0.013  0.00  0.00    -0.272 NA
ATOM     14  H8  <0> d           3.367  -0.366  -0.032  0.00  0.00     0.116 H 
ATOM     15  C9  <0> d           1.180   2.073   0.002  0.00  0.00     0.002 A 
ATOM     16  C8  <0> d          -0.017   1.380   0.010  0.00  0.00    -0.065 A 
ATOM     17  H7  <0> d           1.169   3.153   0.008  0.00  0.00     0.114 H 
ATOM     18  C7  <0> d           0.002  -0.004   0.002  0.00  0.00    -0.068 A 
ATOM     19  H6  <0> d          -0.956   1.913   0.017  0.00  0.00     0.085 H 
ATOM     20  H5  <0> d          -0.917  -0.570   0.007  0.00  0.00     0.085 H 
ENDBRANCH   5  11
TORSDOF 1
