REMARK  1 active torsions:
REMARK  status: ('A' for Active; 'I' for Inactive)
REMARK    1  A    between atoms: C1_1  and  C2_2 
ROOT
ATOM      1  C2  <0> d           1.196   2.087   0.002  0.00  0.00     0.051 A 
ATOM      2  C3  <0> d          -0.017   1.396   0.010  0.00  0.00     0.068 A 
ATOM      3  C4  <0> d           0.002  -0.004   0.002  0.00  0.00    -0.059 A 
ATOM      4  C5  <0> d           1.230  -0.643  -0.013  0.00  0.00    -0.065 A 
ATOM      5  C6  <0> d           2.387   0.114  -0.020  0.00  0.00     0.003 A 
ATOM      6  N1  <0> d           2.339   1.433  -0.013  0.00  0.00    -0.264 NA
ATOM      7  C7  <0> d          -1.260   2.107   0.019  0.00  0.00     0.101 C 
ATOM      8  N2  <0> d          -2.246   2.672   0.027  0.00  0.00    -0.191 NA
ATOM      9  H4  <0> d          -0.917  -0.571   0.007  0.00  0.00     0.086 H 
ATOM     10  H5  <0> d           1.283  -1.722  -0.020  0.00  0.00     0.085 H 
ATOM     11  H6  <0> d           3.346  -0.383  -0.032  0.00  0.00     0.114 H 
ENDROOT
BRANCH   1  12
ATOM     12  C1  <0> d           1.199   3.594   0.009  0.00  0.00    -0.034 C 
ATOM     13  H1  <0> d           1.209   3.952   1.039  0.00  0.00     0.035 H 
ATOM     14  H2  <0> d           2.084   3.958  -0.511  0.00  0.00     0.035 H 
ATOM     15  H3  <0> d           0.304   3.961  -0.494  0.00  0.00     0.035 H 
ENDBRANCH   1  12
TORSDOF 1
