REMARK  6 active torsions:
REMARK  status: ('A' for Active; 'I' for Inactive)
REMARK    1  A    between atoms: C1_1  and  C2_2 
REMARK    2  A    between atoms: C2_2  and  C7_8 
REMARK    3  A    between atoms: C4_4  and  C5_5 
REMARK    4  A    between atoms: C4_4  and  C6_6 
REMARK    5  A    between atoms: C6_6  and  O1_7 
REMARK    6  A    between atoms: C7_8  and  O2_9 
ROOT
ATOM      1  C2  <0> d          -0.019   1.526   0.010  0.00  0.00    -0.013 A 
ATOM      2  C3  <0> d           1.317   0.779  -0.006  0.00  0.00    -0.046 A 
ATOM      3  C4  <0> d           0.002  -0.004   0.002  0.00  0.00    -0.013 A 
ATOM      4  H4  <0> d           1.889   0.792  -0.934  0.00  0.00     0.035 H 
ATOM      5  H5  <0> d           1.906   0.782   0.910  0.00  0.00     0.035 H 
ENDROOT
BRANCH   1   6
ATOM      6  C1  <0> d          -0.424   2.220   1.312  0.00  0.00    -0.066 C 
ATOM      7  H1  <0> d           0.268   1.937   2.106  0.00  0.00     0.028 H 
ATOM      8  H2  <0> d          -0.394   3.300   1.173  0.00  0.00     0.028 H 
ATOM      9  H3  <0> d          -1.434   1.916   1.587  0.00  0.00     0.028 H 
ENDBRANCH   1   6
BRANCH   1  10
ATOM     10  C7  <0> d          -0.448   2.233  -1.276  0.00  0.00     0.024 C 
ATOM     11  H12 <0> d           0.228   1.959  -2.085  0.00  0.00     0.075 H 
ATOM     12  H13 <0> d          -1.464   1.933  -1.534  0.00  0.00     0.075 H 
BRANCH  10  13
ATOM     13  O2  <0> d          -0.406   3.648  -1.079  0.00  0.00    -0.400 OA
ATOM     14  H14 <0> d          -0.667   4.162  -1.855  0.00  0.00     0.209 HD
ENDBRANCH  10  13
ENDBRANCH   1  10
BRANCH   3  15
ATOM     15  C5  <0> d          -0.408  -0.709  -1.292  0.00  0.00    -0.066 C 
ATOM     16  H6  <0> d           0.261  -0.407  -2.098  0.00  0.00     0.028 H 
ATOM     17  H7  <0> d          -0.347  -1.788  -1.153  0.00  0.00     0.028 H 
ATOM     18  H8  <0> d          -1.432  -0.433  -1.547  0.00  0.00     0.028 H 
ENDBRANCH   3  15
BRANCH   3  19
ATOM     19  C6  <0> d          -0.384  -0.723   1.296  0.00  0.00     0.024 C 
ATOM     20  H9  <0> d           0.300  -0.430   2.092  0.00  0.00     0.075 H 
ATOM     21  H10 <0> d          -1.402  -0.450   1.574  0.00  0.00     0.075 H 
BRANCH  19  22
ATOM     22  O1  <0> d          -0.306  -2.136   1.098  0.00  0.00    -0.400 OA
ATOM     23  H11 <0> d          -0.538  -2.656   1.879  0.00  0.00     0.209 HD
ENDBRANCH  19  22
ENDBRANCH   3  19
TORSDOF 6
