REMARK  1 active torsions:
REMARK  status: ('A' for Active; 'I' for Inactive)
REMARK    1  A    between atoms: C3_3  and  C5_7 
REMARK       I    between atoms: C5_7  and  N2_9 
ROOT
ATOM      1  C1  <0> d          -4.617   0.342   0.026  0.00  0.00    -0.066 A 
ATOM      2  C2  <0> d          -3.717   1.412   0.033  0.00  0.00    -0.050 A 
ATOM      3  C3  <0> d          -2.447   0.873   0.018  0.00  0.00     0.100 A 
ATOM      4  N1  <0> d          -2.578  -0.497   0.012  0.00  0.00    -0.362 N 
ATOM      5  H1  <0> d          -1.848  -1.135   0.004  0.00  0.00     0.165 HD
ATOM      6  C4  <0> d          -3.898  -0.806   0.016  0.00  0.00    -0.022 A 
ATOM      7  H2  <0> d          -5.694   0.417   0.031  0.00  0.00     0.085 H 
ATOM      8  H3  <0> d          -3.968   2.462   0.046  0.00  0.00     0.087 H 
ATOM      9  H4  <0> d          -4.309  -1.805   0.013  0.00  0.00     0.111 H 
ENDROOT
BRANCH   3  10
ATOM     10  C5  <0> d          -1.187   1.624   0.017  0.00  0.00     0.265 C 
ATOM     11  O1  <0> d          -1.204   2.841   0.023  0.00  0.00    -0.266 OA
ATOM     12  N2  <0> d          -0.011   0.966   0.007  0.00  0.00    -0.365 N 
ATOM     13  H5  <0> d           0.002  -0.004   0.002  0.00  0.00     0.159 HD
ATOM     14  H6  <0> d           0.822   1.462   0.002  0.00  0.00     0.159 HD
ENDBRANCH   3  10
TORSDOF 1
