REMARK  3 active torsions:
REMARK  status: ('A' for Active; 'I' for Inactive)
REMARK    1  A    between atoms: C1_1  and  C2_2 
REMARK    2  A    between atoms: C3_3  and  C5_7 
REMARK    3  A    between atoms: C5_7  and  O1_8 
ROOT
ATOM      1  C2  <0> d          -1.074   2.356   0.019  0.00  0.00     0.046 A 
ATOM      2  C3  <0> d          -0.018   1.503   0.010  0.00  0.00     0.031 A 
ATOM      3  S1  <0> d           1.341   2.663   0.004  0.00  0.00    -0.083 SA
ATOM      4  C4  <0> d           0.393   4.118   0.020  0.00  0.00     0.041 A 
ATOM      5  N1  <0> d          -0.833   3.650   0.029  0.00  0.00    -0.258 NA
ATOM      6  H4  <0> d           0.728   5.145   0.022  0.00  0.00     0.126 H 
ENDROOT
BRANCH   2   7
ATOM      7  C5  <0> d           0.002  -0.004   0.002  0.00  0.00     0.048 C 
ATOM      8  H5  <0> d           0.902  -0.358   0.506  0.00  0.00     0.082 H 
ATOM      9  H6  <0> d          -0.878  -0.382   0.522  0.00  0.00     0.082 H 
BRANCH   7  10
ATOM     10  O1  <0> d          -0.004  -0.473  -1.348  0.00  0.00    -0.396 OA
ATOM     11  H7  <0> d           0.009  -1.437  -1.429  0.00  0.00     0.209 HD
ENDBRANCH   7  10
ENDBRANCH   2   7
BRANCH   1  12
ATOM     12  C1  <0> d          -2.488   1.834   0.021  0.00  0.00    -0.034 C 
ATOM     13  H1  <0> d          -2.825   1.702   1.050  0.00  0.00     0.035 H 
ATOM     14  H2  <0> d          -3.139   2.546  -0.486  0.00  0.00     0.035 H 
ATOM     15  H3  <0> d          -2.523   0.876  -0.497  0.00  0.00     0.035 H 
ENDBRANCH   1  12
TORSDOF 3
