REMARK  2 active torsions:
REMARK  status: ('A' for Active; 'I' for Inactive)
REMARK    1  A    between atoms: C1_1  and  C2_2 
REMARK    2  A    between atoms: C2_2  and  C3_4 
ROOT
ATOM      1  C3  <0> d          -2.170   1.797   1.227  0.00  0.00     0.051 A 
ATOM      2  C4  <0> d          -2.901   1.567   0.055  0.00  0.00    -0.029 A 
ATOM      3  C5  <0> d          -4.265   1.777   0.045  0.00  0.00     0.117 A 
ATOM      4  C6  <0> d          -4.911   2.224   1.188  0.00  0.00    -0.043 A 
ATOM      5  C7  <0> d          -4.197   2.458   2.348  0.00  0.00    -0.042 A 
ATOM      6  C8  <0> d          -2.830   2.249   2.377  0.00  0.00     0.130 A 
ATOM      7  F1  <0> d          -2.133   2.479   3.511  0.00  0.00    -0.205 F 
ATOM      8  F2  <0> d          -4.972   1.550  -1.083  0.00  0.00    -0.206 F 
ATOM      9  H4  <0> d          -2.399   1.223  -0.837  0.00  0.00     0.089 H 
ATOM     10  H5  <0> d          -5.978   2.389   1.172  0.00  0.00     0.088 H 
ATOM     11  H6  <0> d          -4.707   2.807   3.234  0.00  0.00     0.088 H 
ENDROOT
BRANCH   1  12
ATOM     12  C2  <0> d          -0.718   1.572   1.248  0.00  0.00     0.158 C 
ATOM     13  O1  <0> d          -0.087   1.777   2.263  0.00  0.00    -0.293 OA
BRANCH  12  14
ATOM     14  C1  <0> d          -0.013   1.086   0.008  0.00  0.00    -0.016 C 
ATOM     15  H1  <0> d           0.001   0.086   0.003  0.00  0.00     0.038 H 
ATOM     16  H2  <0> d           1.010   1.463   0.000  0.00  0.00     0.038 H 
ATOM     17  H3  <0> d          -0.540   1.447  -0.875  0.00  0.00     0.038 H 
ENDBRANCH  12  14
ENDBRANCH   1  12
TORSDOF 2
