REMARK  5 active torsions:
REMARK  status: ('A' for Active; 'I' for Inactive)
REMARK    1  A    between atoms: C1_1  and  C2_2 
REMARK    2  A    between atoms: C2_2  and  C3_3 
REMARK    3  A    between atoms: C3_3  and  C4_4 
REMARK    4  A    between atoms: C5_5  and  C6_6 
REMARK    5  A    between atoms: C6_6  and  O1_7 
ROOT
ATOM      1  C4  <0> d           0.018  -2.020  -1.249  0.00  0.00    -0.086 C 
ATOM      2  C5  <0> d           0.016  -2.602  -2.269  0.00  0.00    -0.079 C 
ENDROOT
BRANCH   1   3
ATOM      3  C3  <0> d           0.020  -1.311  -0.005  0.00  0.00     0.076 C 
ATOM      4  H3  <0> d           0.036  -1.856   0.927  0.00  0.00     0.081 H 
BRANCH   3   5
ATOM      5  C2  <0> d           0.002  -0.004   0.002  0.00  0.00    -0.163 C 
BRANCH   5   6
ATOM      6  C1  <0> d          -0.016   1.303   0.009  0.00  0.00    -0.010 C 
ATOM      7  H1  <0> d           0.912   1.855   0.003  0.00  0.00     0.051 H 
ATOM      8  H2  <0> d          -0.958   1.830   0.017  0.00  0.00     0.051 H 
ENDBRANCH   5   6
ENDBRANCH   3   5
ENDBRANCH   1   3
BRANCH   2   9
ATOM      9  C6  <0> d           0.014  -3.331  -3.548  0.00  0.00     0.071 C 
ATOM     10  H4  <0> d          -0.885  -3.076  -4.109  0.00  0.00     0.093 H 
ATOM     11  H5  <0> d           0.895  -3.052  -4.126  0.00  0.00     0.093 H 
BRANCH   9  12
ATOM     12  O1  <0> d           0.035  -4.737  -3.294  0.00  0.00    -0.389 OA
ATOM     13  H6  <0> d           0.035  -5.281  -4.094  0.00  0.00     0.210 HD
ENDBRANCH   9  12
ENDBRANCH   2   9
TORSDOF 5
