REMARK  1 active torsions:
REMARK  status: ('A' for Active; 'I' for Inactive)
REMARK    1  A    between atoms: C2_2  and  C4_6 
ROOT
ATOM      1  C1  <0> d           2.443   3.758  -0.001  0.00  0.00     0.027 A 
ATOM      2  C2  <0> d           1.238   3.062   0.007  0.00  0.00     0.066 A 
ATOM      3  C3  <0> d           0.094   3.847   0.016  0.00  0.00    -0.009 A 
ATOM      4  S1  <0> d           0.755   5.449   0.024  0.00  0.00    -0.000 SA
ATOM      5  N1  <0> d           2.418   5.062   0.006  0.00  0.00    -0.223 NA
ATOM      6  H1  <0> d           3.384   3.228  -0.013  0.00  0.00     0.117 H 
ATOM      7  H2  <0> d          -0.942   3.540   0.019  0.00  0.00     0.099 H 
ENDROOT
BRANCH   2   8
ATOM      8  C4  <0> d           1.181   1.591  -0.001  0.00  0.00     0.211 C 
ATOM      9  O1  <0> d           2.209   0.943  -0.014  0.00  0.00    -0.644 OA
ATOM     10  O2  <0> d          -0.011   0.963   0.007  0.00  0.00    -0.644 OA
ENDBRANCH   2   8
TORSDOF 1
