REMARK  1 active torsions:
REMARK  status: ('A' for Active; 'I' for Inactive)
REMARK    1  A    between atoms: C1_1  and  C2_2 
ROOT
ATOM      1  C2  <0> d          -0.742   1.585  -1.213  0.00  0.00     0.062 A 
ATOM      2  C3  <0> d          -2.127   1.806  -1.182  0.00  0.00     0.256 A 
ATOM      3  N1  <0> d          -2.738   2.253  -2.299  0.00  0.00    -0.317 N 
ATOM      4  C4  <0> d          -2.022   2.481  -3.418  0.00  0.00     0.069 A 
ATOM      5  N2  <0> d          -0.733   2.280  -3.461  0.00  0.00    -0.217 NA
ATOM      6  C5  <0> d          -0.060   1.842  -2.387  0.00  0.00     0.212 A 
ATOM      7  O1  <0> d           1.277   1.647  -2.455  0.00  0.00    -0.169 OA
ATOM      8  O2  <0> d          -2.768   1.596  -0.164  0.00  0.00    -0.267 OA
ATOM      9  H4  <0> d          -2.528   2.839  -4.303  0.00  0.00     0.143 H 
ATOM     10  H5  <0> d          -3.695   2.411  -2.297  0.00  0.00     0.169 HD
ENDROOT
BRANCH   1  11
ATOM     11  C1  <0> d          -0.013   1.086   0.008  0.00  0.00    -0.042 C 
ATOM     12  H1  <0> d           0.002  -0.004   0.002  0.00  0.00     0.034 H 
ATOM     13  H2  <0> d           1.010   1.463   0.000  0.00  0.00     0.034 H 
ATOM     14  H3  <0> d          -0.523   1.437   0.905  0.00  0.00     0.034 H 
ENDBRANCH   1  11
TORSDOF 1
