REMARK  4 active torsions:
REMARK  status: ('A' for Active; 'I' for Inactive)
REMARK    1  A    between atoms: C2_2  and  C3_3 
REMARK    2  A    between atoms: C3_3  and  C4_5 
REMARK    3  A    between atoms: C3_3  and  O1_12 
REMARK    4  A    between atoms: C4_5  and  C5_6 
ROOT
ATOM      1  C1  <0> d          -5.322  -0.452   1.471  0.00  0.00    -0.151 C 
ATOM      2  C2  <0> d          -4.267   0.064   1.467  0.00  0.00    -0.085 C 
ATOM      3  H2  <0> d          -6.310  -0.935   1.474  0.00  0.00     0.166 H 
ENDROOT
BRANCH   2   4
ATOM      4  C3  <0> d          -2.945   0.711   1.462  0.00  0.00     0.097 C 
ATOM      5  H1  <0> d          -2.991   1.631   2.064  0.00  0.00     0.103 H 
BRANCH   4   6
ATOM      6  C4  <0> d          -2.514   0.980   0.019  0.00  0.00    -0.007 C 
ATOM      7  H3  <0> d          -2.372   0.023  -0.505  0.00  0.00     0.045 H 
ATOM      8  H4  <0> d          -3.291   1.566  -0.492  0.00  0.00     0.045 H 
BRANCH   6   9
ATOM      9  C5  <0> d          -1.219   1.751   0.017  0.00  0.00    -0.055 A 
ATOM     10  C10 <0> d          -1.238   3.133   0.030  0.00  0.00    -0.077 A 
ATOM     11  C9  <0> d          -0.050   3.840   0.022  0.00  0.00    -0.082 A 
ATOM     12  H9  <0> d          -2.180   3.660   0.041  0.00  0.00     0.084 H 
ATOM     13  C8  <0> d           1.156   3.165   0.008  0.00  0.00    -0.083 A 
ATOM     14  H8  <0> d          -0.065   4.920   0.028  0.00  0.00     0.083 H 
ATOM     15  C7  <0> d           1.175   1.783   0.000  0.00  0.00    -0.082 A 
ATOM     16  H7  <0> d           2.084   3.718   0.001  0.00  0.00     0.083 H 
ATOM     17  C6  <0> d          -0.013   1.076   0.008  0.00  0.00    -0.077 A 
ATOM     18  H6  <0> d           2.118   1.256  -0.011  0.00  0.00     0.083 H 
ATOM     19  H5  <0> d           0.002  -0.004   0.002  0.00  0.00     0.084 H 
ENDBRANCH   6   9
ENDBRANCH   4   6
BRANCH   4  20
ATOM     20  O1  <0> d          -1.992  -0.148   2.092  0.00  0.00    -0.383 OA
ATOM     21  H10 <0> d          -0.943   0.167   2.183  0.00  0.00     0.211 HD
ENDBRANCH   4  20
ENDBRANCH   2   4
TORSDOF 4
