REMARK  2 active torsions:
REMARK  status: ('A' for Active; 'I' for Inactive)
REMARK    1  A    between atoms: C2_2  and  C3_3 
REMARK    2  A    between atoms: C4_4  and  N2_10 
ROOT
ATOM      1  C1  <0> d           0.123   7.065   0.037  0.00  0.00    -0.147 C 
ATOM      2  C2  <0> d           0.084   5.892   0.032  0.00  0.00    -0.055 C 
ATOM      3  H1  <0> d           0.160   8.165   0.042  0.00  0.00     0.167 H 
ENDROOT
BRANCH   2   4
ATOM      4  C3  <0> d           0.036   4.461   0.025  0.00  0.00     0.135 A 
ATOM      5  N1  <0> d           1.165   3.763   0.011  0.00  0.00    -0.248 NA
ATOM      6  C7  <0> d           1.165   2.446   0.004  0.00  0.00     0.025 A 
ATOM      7  C6  <0> d          -0.021   1.732   0.012  0.00  0.00     0.053 A 
ATOM      8  H3  <0> d           2.105   1.915  -0.007  0.00  0.00     0.117 H 
ATOM      9  C5  <0> d          -1.229   2.415   0.021  0.00  0.00    -0.032 A 
ATOM     10 Cl1  <0> d           0.002  -0.004   0.002  0.00  0.00    -0.083 Cl
ATOM     11  C4  <0> d          -1.204   3.805   0.033  0.00  0.00     0.065 A 
ATOM     12  H2  <0> d          -2.167   1.879   0.023  0.00  0.00     0.089 H 
BRANCH  11  13
ATOM     13  N2  <0> d          -2.391   4.535   0.046  0.00  0.00    -0.397 N 
ATOM     14  H4  <0> d          -3.359   4.012   0.052  0.00  0.00     0.156 HD
ATOM     15  H5  <0> d          -2.361   5.635   0.051  0.00  0.00     0.156 HD
ENDBRANCH  11  13
ENDBRANCH   2   4
TORSDOF 2
