REMARK  4 active torsions:
REMARK  status: ('A' for Active; 'I' for Inactive)
REMARK    1  A    between atoms: C1_1  and  O1_2 
REMARK    2  A    between atoms: O1_2  and  C2_3 
REMARK    3  A    between atoms: C2_3  and  C3_5 
REMARK    4  A    between atoms: C4_8  and  O3_9 
ROOT
ATOM      1  C3  <0> d           0.680  -2.081   1.091  0.00  0.00     0.129 A 
ATOM      2  N1  <0> d           0.155  -2.952   0.177  0.00  0.00    -0.270 N 
ATOM      3  N2  <0> d           0.436  -4.252   0.615  0.00  0.00    -0.149 NA
ATOM      4  C4  <0> d           1.101  -4.184   1.744  0.00  0.00     0.183 A 
ATOM      5  C5  <0> d           1.280  -2.840   2.076  0.00  0.00     0.003 A 
ATOM      6  H4  <0> d          -0.326  -2.712  -0.630  0.00  0.00     0.189 HD
ATOM      7  H6  <0> d           1.794  -2.461   2.948  0.00  0.00     0.094 H 
ENDROOT
BRANCH   1   8
ATOM      8  C2  <0> d           0.621  -0.614   1.033  0.00  0.00     0.311 C 
ATOM      9  O2  <0> d           1.130   0.051   1.915  0.00  0.00    -0.258 OA
BRANCH   8  10
ATOM     10  O1  <0> d           0.002  -0.004   0.002  0.00  0.00    -0.321 OA
BRANCH  10  11
ATOM     11  C1  <0> d          -0.017   1.425   0.010  0.00  0.00     0.013 C 
ATOM     12  H1  <0> d           1.005   1.802   0.002  0.00  0.00     0.067 H 
ATOM     13  H2  <0> d          -0.544   1.786  -0.873  0.00  0.00     0.067 H 
ATOM     14  H3  <0> d          -0.527   1.776   0.907  0.00  0.00     0.067 H 
ENDBRANCH  10  11
ENDBRANCH   8  10
ENDBRANCH   1   8
BRANCH   4  15
ATOM     15  O3  <0> d           1.547  -5.246   2.467  0.00  0.00    -0.344 OA
ATOM     16  H5  <0> d           2.436  -5.540   2.227  0.00  0.00     0.219 HD
ENDBRANCH   4  15
TORSDOF 4
