REMARK  2 active torsions:
REMARK  status: ('A' for Active; 'I' for Inactive)
REMARK    1  A    between atoms: C3_3  and  O2_8 
REMARK    2  A    between atoms: C5_5  and  O1_7 
ROOT
ATOM      1  C1  <0> d          -0.017   1.377   0.010  0.00  0.00    -0.078 A 
ATOM      2  C2  <0> d           1.169   2.087   0.002  0.00  0.00    -0.051 A 
ATOM      3  C3  <0> d           2.382   1.413  -0.013  0.00  0.00     0.068 A 
ATOM      4  C4  <0> d           2.404   0.027  -0.021  0.00  0.00    -0.019 A 
ATOM      5  C5  <0> d           1.212  -0.683  -0.013  0.00  0.00     0.068 A 
ATOM      6  C6  <0> d           0.002  -0.004   0.002  0.00  0.00    -0.051 A 
ATOM      7  H1  <0> d          -0.960   1.904   0.026  0.00  0.00     0.083 H 
ATOM      8  H2  <0> d           1.152   3.167   0.008  0.00  0.00     0.087 H 
ATOM      9  H3  <0> d           3.346  -0.499  -0.033  0.00  0.00     0.092 H 
ATOM     10  H4  <0> d          -0.926  -0.556   0.008  0.00  0.00     0.087 H 
ENDROOT
BRANCH   3  11
ATOM     11  O2  <0> d           3.548   2.111  -0.021  0.00  0.00    -0.361 OA
ATOM     12  H6  <0> d           3.894   2.309   0.860  0.00  0.00     0.217 HD
ENDBRANCH   3  11
BRANCH   5  13
ATOM     13  O1  <0> d           1.230  -2.042  -0.021  0.00  0.00    -0.361 OA
ATOM     14  H5  <0> d           1.244  -2.440   0.860  0.00  0.00     0.217 HD
ENDBRANCH   5  13
TORSDOF 2
