REMARK  1 active torsions:
REMARK  status: ('A' for Active; 'I' for Inactive)
REMARK    1  A    between atoms: C1_1  and  C2_2 
ROOT
ATOM      1  C2  <0> d           1.097   2.024   0.003  0.00  0.00     0.032 A 
ATOM      2  C3  <0> d           2.331   1.402  -0.013  0.00  0.00    -0.059 A 
ATOM      3  C4  <0> d           2.390   0.017  -0.020  0.00  0.00    -0.078 A 
ATOM      4  C5  <0> d           1.201  -0.695  -0.013  0.00  0.00    -0.044 A 
ATOM      5  C6  <0> d           0.002  -0.004   0.002  0.00  0.00     0.126 A 
ATOM      6  N1  <0> d          -0.016   1.316   0.009  0.00  0.00    -0.242 NA
ATOM      7 Cl1  <0> d          -1.495  -0.883   0.012  0.00  0.00    -0.062 Cl
ATOM      8  H4  <0> d           3.238   1.988  -0.018  0.00  0.00     0.086 H 
ATOM      9  H5  <0> d           3.341  -0.495  -0.032  0.00  0.00     0.083 H 
ATOM     10  H6  <0> d           1.210  -1.775  -0.019  0.00  0.00     0.088 H 
ENDROOT
BRANCH   1  11
ATOM     11  C1  <0> d           1.021   3.529   0.011  0.00  0.00    -0.035 C 
ATOM     12  H1  <0> d           1.013   3.886   1.041  0.00  0.00     0.035 H 
ATOM     13  H2  <0> d           1.887   3.939  -0.509  0.00  0.00     0.035 H 
ATOM     14  H3  <0> d           0.109   3.850  -0.492  0.00  0.00     0.035 H 
ENDBRANCH   1  11
TORSDOF 1
