REMARK  0 active torsions:
REMARK  status: ('A' for Active; 'I' for Inactive)
ROOT
ATOM      1  C1  <0> d          -0.017   1.399   0.010  0.00  0.00     0.036 A 
ATOM      2  C2  <0> d           0.002  -0.004   0.002  0.00  0.00     0.250 A 
ATOM      3  N1  <0> d          -1.173  -0.668   0.010  0.00  0.00    -0.318 N 
ATOM      4  C3  <0> d          -2.336   0.011   0.024  0.00  0.00     0.069 A 
ATOM      5  N2  <0> d          -2.368   1.316   0.031  0.00  0.00    -0.217 NA
ATOM      6  C4  <0> d          -1.240   2.041   0.031  0.00  0.00     0.206 A 
ATOM      7  O1  <0> d          -1.300   3.393   0.039  0.00  0.00    -0.170 OA
ATOM      8  O2  <0> d           1.060  -0.612  -0.012  0.00  0.00    -0.268 OA
ATOM      9  H1  <0> d           0.903   1.965   0.004  0.00  0.00     0.099 H 
ATOM     10  H2  <0> d          -3.266  -0.538   0.030  0.00  0.00     0.143 H 
ATOM     11  H3  <0> d          -1.180  -1.638   0.004  0.00  0.00     0.169 HD
ENDROOT
TORSDOF 0
