REMARK  2 active torsions:
REMARK  status: ('A' for Active; 'I' for Inactive)
REMARK    1  A    between atoms: C1_1  and  N1_2 
REMARK    2  A    between atoms: N1_2  and  C2_3 
ROOT
ATOM      1  C2  <0> d           1.243  -0.664  -0.013  0.00  0.00     0.143 A 
ATOM      2  C3  <0> d           0.002  -0.004   0.002  0.00  0.00     0.090 A 
ATOM      3  C4  <0> d          -0.017   1.395   0.010  0.00  0.00    -0.058 A 
ATOM      4  C5  <0> d           1.192   2.069   0.002  0.00  0.00    -0.064 A 
ATOM      5  C6  <0> d           2.373   1.350  -0.013  0.00  0.00     0.004 A 
ATOM      6  N2  <0> d           2.370   0.030  -0.020  0.00  0.00    -0.242 NA
ATOM      7  C7  <0> d          -1.220  -0.750   0.010  0.00  0.00     0.103 C 
ATOM      8  N3  <0> d          -2.190  -1.342   0.017  0.00  0.00    -0.191 NA
ATOM      9  H5  <0> d          -0.952   1.936   0.017  0.00  0.00     0.086 H 
ATOM     10  H6  <0> d           1.213   3.149   0.007  0.00  0.00     0.085 H 
ATOM     11  H7  <0> d           3.315   1.878  -0.019  0.00  0.00     0.114 H 
ENDROOT
BRANCH   1  12
ATOM     12  N1  <0> d           1.287  -2.047  -0.021  0.00  0.00    -0.378 N 
ATOM     13  H4  <0> d           0.353  -2.627  -0.015  0.00  0.00     0.160 HD
BRANCH  12  14
ATOM     14  C1  <0> d           2.579  -2.739  -0.037  0.00  0.00    -0.020 C 
ATOM     15  H1  <0> d           2.412  -3.826  -0.042  0.00  0.00     0.056 H 
ATOM     16  H2  <0> d           3.155  -2.460   0.857  0.00  0.00     0.056 H 
ATOM     17  H3  <0> d           3.138  -2.450  -0.939  0.00  0.00     0.056 H 
ENDBRANCH  12  14
ENDBRANCH   1  12
TORSDOF 2
