REMARK  5 active torsions:
REMARK  status: ('A' for Active; 'I' for Inactive)
REMARK    1  A    between atoms: C1_1  and  C2_2 
REMARK    2  A    between atoms: C2_2  and  C3_4 
REMARK    3  A    between atoms: C2_2  and  O3_9 
REMARK    4  A    between atoms: C3_4  and  C4_6 
REMARK    5  A    between atoms: C3_4  and  O2_8 
ROOT
ATOM      1  C2  <0> d           0.633   3.635  -1.292  0.00  0.00     0.066 C 
ATOM      2  H1  <0> d          -0.428   3.387  -1.331  0.00  0.00     0.087 H 
ENDROOT
BRANCH   1   3
ATOM      3  C1  <0> d           0.805   5.154  -1.340  0.00  0.00    -0.050 C 
ATOM      4  H3  <0> d           0.376   5.539  -2.265  0.00  0.00     0.031 H 
ATOM      5  H4  <0> d           0.295   5.605  -0.488  0.00  0.00     0.031 H 
ATOM      6  H5  <0> d           1.866   5.401  -1.301  0.00  0.00     0.031 H 
ENDBRANCH   1   3
BRANCH   1   7
ATOM      7  C3  <0> d           1.235   3.094   0.007  0.00  0.00     0.143 C 
ATOM      8  H2  <0> d           0.668   3.476   0.856  0.00  0.00     0.104 H 
BRANCH   7   9
ATOM      9  C4  <0> d           1.177   1.588  -0.001  0.00  0.00     0.205 C 
ATOM     10  O1  <0> d           2.199   0.944  -0.014  0.00  0.00    -0.646 OA
ATOM     11  O4  <0> d          -0.011   0.963   0.007  0.00  0.00    -0.646 OA
ENDBRANCH   7   9
BRANCH   7  12
ATOM     12  O2  <0> d           2.596   3.518   0.114  0.00  0.00    -0.382 OA
ATOM     13  H6  <0> d           3.160   3.214  -0.611  0.00  0.00     0.210 HD
ENDBRANCH   7  12
ENDBRANCH   1   7
BRANCH   1  14
ATOM     14  O3  <0> d           1.302   3.044  -2.408  0.00  0.00    -0.393 OA
ATOM     15  H7  <0> d           0.971   3.341  -3.267  0.00  0.00     0.210 HD
ENDBRANCH   1  14
TORSDOF 5
