REMARK  3 active torsions:
REMARK  status: ('A' for Active; 'I' for Inactive)
REMARK    1  A    between atoms: C1_1  and  C2_2 
REMARK    2  A    between atoms: C1_1  and  C4_8 
REMARK    3  A    between atoms: C3_3  and  N3_7 
ROOT
ATOM      1  C2  <0> d          -2.549   1.028   0.020  0.00  0.00     0.121 A 
ATOM      2  C3  <0> d          -1.225   1.645   0.017  0.00  0.00     0.178 A 
ATOM      3  N1  <0> d          -1.375   2.942   0.030  0.00  0.00    -0.085 NA
ATOM      4  O1  <0> d          -2.765   3.215   0.033  0.00  0.00    -0.105 OA
ATOM      5  N2  <0> d          -3.443   1.970   0.030  0.00  0.00    -0.105 NA
ENDROOT
BRANCH   1   6
ATOM      6  C1  <0> d          -2.831  -0.452   0.012  0.00  0.00     0.061 C 
ATOM      7  H1  <0> d          -3.776  -0.639  -0.498  0.00  0.00     0.059 H 
ATOM      8  H2  <0> d          -2.027  -0.972  -0.509  0.00  0.00     0.059 H 
BRANCH   6   9
ATOM      9  C4  <0> d          -2.918  -0.954   1.430  0.00  0.00     0.178 C 
ATOM     10  O2  <0> d          -2.767  -0.189   2.353  0.00  0.00    -0.648 OA
ATOM     11  O3  <0> d          -3.163  -2.252   1.669  0.00  0.00    -0.648 OA
ENDBRANCH   6   9
ENDBRANCH   1   6
BRANCH   2  12
ATOM     12  N3  <0> d          -0.011   0.966   0.007  0.00  0.00    -0.380 N 
ATOM     13  H3  <0> d           0.002  -0.004   0.002  0.00  0.00     0.157 HD
ATOM     14  H4  <0> d           0.822   1.462   0.002  0.00  0.00     0.157 HD
ENDBRANCH   2  12
TORSDOF 3
