REMARK  0 active torsions:
REMARK  status: ('A' for Active; 'I' for Inactive)
ROOT
ATOM      1  C1  <0> d          -0.016   1.329   0.009  0.00  0.00     0.020 A 
ATOM      2  C2  <0> d           1.261   1.779  -0.000  0.00  0.00     0.005 A 
ATOM      3  N1  <0> d           2.072   0.686  -0.014  0.00  0.00    -0.293 N 
ATOM      4  C3  <0> d           1.258  -0.421  -0.012  0.00  0.00     0.152 A 
ATOM      5  N2  <0> d           0.002  -0.004   0.002  0.00  0.00    -0.240 NA
ATOM      6  C4  <0> d           1.850  -1.699  -0.025  0.00  0.00     0.046 A 
ATOM      7  N3  <0> d           3.157  -1.810  -0.039  0.00  0.00    -0.266 NA
ATOM      8  C5  <0> d           3.946  -0.734  -0.040  0.00  0.00     0.040 A 
ATOM      9  C6  <0> d           3.428   0.515  -0.028  0.00  0.00     0.129 A 
ATOM     10 Cl1  <0> d           4.481   1.895  -0.031  0.00  0.00    -0.062 Cl
ATOM     11  H1  <0> d          -0.901   1.948   0.025  0.00  0.00     0.117 H 
ATOM     12  H2  <0> d           1.577   2.812   0.002  0.00  0.00     0.114 H 
ATOM     13  H3  <0> d           1.231  -2.584  -0.024  0.00  0.00     0.120 H 
ATOM     14  H4  <0> d           5.018  -0.863  -0.052  0.00  0.00     0.119 H 
ENDROOT
TORSDOF 0
