REMARK  4 active torsions:
REMARK  status: ('A' for Active; 'I' for Inactive)
REMARK    1  A    between atoms: C6_8  and  C9_14 
REMARK    2  A    between atoms: C7_10  and  C8_12 
REMARK    3  A    between atoms: C8_12  and  O1_13 
REMARK    4  A    between atoms: C9_14  and  O2_15 
ROOT
ATOM      1  C1  <0> d           0.149   1.627   0.377  0.00  0.00    -0.061 C 
ATOM      2  C2  <0> d           1.656   1.965   0.305  0.00  0.00    -0.061 C 
ATOM      3  C3  <0> d           2.361   0.585   0.125  0.00  0.00    -0.048 C 
ATOM      4  H1  <0> d           3.419   0.553   0.386  0.00  0.00     0.040 H 
ATOM      5  C4  <0> d           1.411  -0.338   0.967  0.00  0.00    -0.058 C 
ATOM      6  C5  <0> d           0.086   0.076   0.234  0.00  0.00    -0.048 C 
ATOM      7  H2  <0> d          -0.830  -0.398   0.590  0.00  0.00     0.040 H 
ATOM      8  C6  <0> d           0.480  -0.196  -1.250  0.00  0.00    -0.024 C 
ATOM      9  H3  <0> d           0.312  -1.244  -1.501  0.00  0.00     0.044 H 
ATOM     10  C7  <0> d           2.004   0.151  -1.329  0.00  0.00    -0.024 C 
ATOM     11  H4  <0> d           2.580  -0.730  -1.615  0.00  0.00     0.044 H 
ATOM     12  H5  <0> d          -0.264   1.938   1.336  0.00  0.00     0.033 H 
ATOM     13  H6  <0> d          -0.387   2.107  -0.442  0.00  0.00     0.033 H 
ATOM     14  H7  <0> d           1.861   2.610  -0.550  0.00  0.00     0.033 H 
ATOM     15  H8  <0> d           1.984   2.441   1.229  0.00  0.00     0.033 H 
ATOM     16  H9  <0> d           1.641  -1.394   0.831  0.00  0.00     0.034 H 
ATOM     17  H10 <0> d           1.399  -0.059   2.021  0.00  0.00     0.034 H 
ENDROOT
BRANCH   8  18
ATOM     18  C9  <0> d          -0.318   0.711  -2.189  0.00  0.00     0.021 C 
ATOM     19  H14 <0> d          -1.383   0.599  -1.984  0.00  0.00     0.074 H 
ATOM     20  H15 <0> d          -0.024   1.748  -2.028  0.00  0.00     0.074 H 
BRANCH  18  21
ATOM     21  O2  <0> d          -0.052   0.344  -3.544  0.00  0.00    -0.400 OA
ATOM     22  H16 <0> d          -0.526   0.879  -4.196  0.00  0.00     0.209 HD
ENDBRANCH  18  21
ENDBRANCH   8  18
BRANCH  10  23
ATOM     23  C8  <0> d           2.263   1.299  -2.307  0.00  0.00     0.021 C 
ATOM     24  H11 <0> d           2.015   0.977  -3.319  0.00  0.00     0.074 H 
ATOM     25  H12 <0> d           1.643   2.154  -2.036  0.00  0.00     0.074 H 
BRANCH  23  26
ATOM     26  O1  <0> d           3.641   1.672  -2.250  0.00  0.00    -0.400 OA
ATOM     27  H13 <0> d           3.877   2.396  -2.846  0.00  0.00     0.209 HD
ENDBRANCH  23  26
ENDBRANCH  10  23
TORSDOF 4
