REMARK  2 active torsions:
REMARK  status: ('A' for Active; 'I' for Inactive)
REMARK    1  A    between atoms: C2_2  and  C3_3 
REMARK    2  A    between atoms: C7_7  and  C8_9 
ROOT
ATOM      1  C1  <0> d           0.018  -1.178  -0.004  0.00  0.00    -0.147 C 
ATOM      2  C2  <0> d           0.002  -0.004   0.002  0.00  0.00    -0.058 C 
ATOM      3  H1  <0> d           0.032  -2.228  -0.010  0.00  0.00     0.167 H 
ENDROOT
BRANCH   2   4
ATOM      4  C3  <0> d          -0.017   1.428   0.010  0.00  0.00     0.109 A 
ATOM      5  N1  <0> d           1.127   2.102   0.003  0.00  0.00    -0.244 NA
ATOM      6  C7  <0> d           1.151   3.420   0.005  0.00  0.00     0.049 A 
ATOM      7  C6  <0> d          -0.021   4.152   0.025  0.00  0.00    -0.058 A 
ATOM      8  C5  <0> d          -1.240   3.487   0.039  0.00  0.00    -0.078 A 
ATOM      9  H4  <0> d           0.010   5.231   0.031  0.00  0.00     0.086 H 
ATOM     10  C4  <0> d          -1.238   2.103   0.031  0.00  0.00    -0.047 A 
ATOM     11  H3  <0> d          -2.169   4.037   0.055  0.00  0.00     0.083 H 
ATOM     12  H2  <0> d          -2.168   1.554   0.041  0.00  0.00     0.088 H 
BRANCH   6  13
ATOM     13  C8  <0> d           2.476   4.138  -0.010  0.00  0.00     0.054 C 
ATOM     14  C9  <0> d           3.303   3.666   1.113  0.00  0.00     0.065 C 
ATOM     15  N2  <0> d           3.941   3.301   1.979  0.00  0.00    -0.197 NA
ATOM     16  H5  <0> d           2.989   3.935  -0.950  0.00  0.00     0.064 H 
ATOM     17  H6  <0> d           2.308   5.211   0.088  0.00  0.00     0.064 H 
ENDBRANCH   6  13
ENDBRANCH   2   4
TORSDOF 2
