REMARK  3 active torsions:
REMARK  status: ('A' for Active; 'I' for Inactive)
REMARK    1  A    between atoms: C1_1  and  C2_2 
REMARK    2  A    between atoms: C3_3  and  N3_9 
REMARK    3  A    between atoms: C4_4  and  C6_8 
ROOT
ATOM      1  C2  <0> d          -0.718   1.572   1.248  0.00  0.00     0.060 A 
ATOM      2  C3  <0> d          -2.093   1.794   1.238  0.00  0.00     0.075 A 
ATOM      3  C4  <0> d          -2.698   2.239   2.411  0.00  0.00     0.060 A 
ATOM      4  N1  <0> d          -1.948   2.441   3.482  0.00  0.00    -0.245 NA
ATOM      5  C5  <0> d          -0.649   2.224   3.449  0.00  0.00     0.087 A 
ATOM      6  N2  <0> d          -0.040   1.799   2.361  0.00  0.00    -0.245 NA
ATOM      7  H4  <0> d          -0.066   2.400   4.341  0.00  0.00     0.146 H 
ENDROOT
BRANCH   1   8
ATOM      8  C1  <0> d          -0.013   1.086   0.008  0.00  0.00    -0.033 C 
ATOM      9  H1  <0> d          -0.744   0.958  -0.804  0.00  0.00     0.035 H 
ATOM     10  H2  <0> d           0.475   0.122   0.217  0.00  0.00     0.035 H 
ATOM     11  H3  <0> d           0.746   1.822  -0.295  0.00  0.00     0.035 H 
ENDBRANCH   1   8
BRANCH   2  12
ATOM     12  N3  <0> d          -2.846   1.572   0.082  0.00  0.00    -0.396 N 
ATOM     13  H8  <0> d          -3.932   1.753   0.090  0.00  0.00     0.156 HD
ATOM     14  H9  <0> d          -2.355   1.217  -0.836  0.00  0.00     0.156 HD
ENDBRANCH   2  12
BRANCH   3  15
ATOM     15  C6  <0> d          -4.183   2.489   2.458  0.00  0.00    -0.033 C 
ATOM     16  H5  <0> d          -4.465   2.833   3.465  0.00  0.00     0.035 H 
ATOM     17  H6  <0> d          -4.720   1.558   2.225  0.00  0.00     0.035 H 
ATOM     18  H7  <0> d          -4.448   3.260   1.720  0.00  0.00     0.035 H 
ENDBRANCH   3  15
TORSDOF 3
