REMARK  2 active torsions:
REMARK  status: ('A' for Active; 'I' for Inactive)
REMARK    1  A    between atoms: C1_1  and  C2_2 
REMARK    2  A    between atoms: C5_6  and  C6_7 
ROOT
ATOM      1  C2  <0> d           2.349   3.886   0.006  0.00  0.00    -0.038 A 
ATOM      2  C3  <0> d           2.116   5.239   0.011  0.00  0.00    -0.069 A 
ATOM      3  C4  <0> d           0.835   5.691   0.026  0.00  0.00    -0.043 A 
ATOM      4  S1  <0> d          -0.101   4.232   0.026  0.00  0.00    -0.095 SA
ATOM      5  C5  <0> d           1.239   3.054   0.007  0.00  0.00     0.087 A 
ATOM      6  H4  <0> d           2.942   5.935   0.008  0.00  0.00     0.085 H 
ATOM      7  H5  <0> d           0.484   6.713   0.035  0.00  0.00     0.095 H 
ENDROOT
BRANCH   1   8
ATOM      8  C1  <0> d           3.749   3.329  -0.003  0.00  0.00    -0.050 C 
ATOM      9  H1  <0> d           4.082   3.201  -1.033  0.00  0.00     0.033 H 
ATOM     10  H2  <0> d           4.418   4.019   0.511  0.00  0.00     0.033 H 
ATOM     11  H3  <0> d           3.760   2.365   0.505  0.00  0.00     0.033 H 
ENDBRANCH   1   8
BRANCH   5  12
ATOM     12  C6  <0> d           1.182   1.591  -0.001  0.00  0.00     0.217 C 
ATOM     13  O1  <0> d           2.211   0.943  -0.014  0.00  0.00    -0.643 OA
ATOM     14  O2  <0> d          -0.011   0.963   0.007  0.00  0.00    -0.643 OA
ENDBRANCH   5  12
TORSDOF 2
