REMARK  3 active torsions:
REMARK  status: ('A' for Active; 'I' for Inactive)
REMARK    1  A    between atoms: C2_2  and  O2_10 
REMARK    2  A    between atoms: C3_4  and  C4_6 
REMARK    3  A    between atoms: C4_6  and  C5_7 
REMARK       I    between atoms: C5_7  and  N2_9 
ROOT
ATOM      1  C1  <0> d           1.848   1.832  -1.174  0.00  0.00     0.007 A 
ATOM      2  C2  <0> d           1.225   1.533  -0.001  0.00  0.00     0.169 A 
ATOM      3  N1  <0> d           1.847   1.816   1.126  0.00  0.00    -0.221 NA
ATOM      4  C3  <0> d           3.042   2.362   1.130  0.00  0.00     0.086 A 
ATOM      5  S1  <0> d           3.375   2.532  -0.566  0.00  0.00    -0.082 SA
ATOM      6  H1  <0> d           1.512   1.686  -2.190  0.00  0.00     0.101 H 
ENDROOT
BRANCH   4   7
ATOM      7  C4  <0> d           3.902   2.748   2.306  0.00  0.00     0.055 C 
ATOM      8  H2  <0> d           4.522   3.603   2.037  0.00  0.00     0.057 H 
ATOM      9  H3  <0> d           3.265   3.012   3.150  0.00  0.00     0.057 H 
BRANCH   7  10
ATOM     10  C5  <0> d           4.784   1.587   2.686  0.00  0.00     0.221 C 
ATOM     11  O1  <0> d           4.721   0.548   2.063  0.00  0.00    -0.273 OA
ATOM     12  N2  <0> d           5.643   1.702   3.718  0.00  0.00    -0.370 N 
ATOM     13  H4  <0> d           5.693   2.533   4.216  0.00  0.00     0.159 HD
ATOM     14  H5  <0> d           6.210   0.955   3.963  0.00  0.00     0.159 HD
ENDBRANCH   7  10
ENDBRANCH   4   7
BRANCH   2  15
ATOM     15  O2  <0> d          -0.011   0.963   0.007  0.00  0.00    -0.344 OA
ATOM     16  H6  <0> d           0.002  -0.004   0.002  0.00  0.00     0.219 HD
ENDBRANCH   2  15
TORSDOF 3
