REMARK  2 active torsions:
REMARK  status: ('A' for Active; 'I' for Inactive)
REMARK    1  A    between atoms: C1_1  and  C2_2 
REMARK    2  A    between atoms: C2_2  and  C3_4 
ROOT
ATOM      1  C3  <0> d          -0.018   1.469   0.012  0.00  0.00     0.093 A 
ATOM      2  C4  <0> d           1.197   2.137  -0.006  0.00  0.00     0.001 A 
ATOM      3  N1  <0> d           2.348   1.419  -0.018  0.00  0.00    -0.318 N 
ATOM      4  H1  <0> d           3.224   1.901  -0.031  0.00  0.00     0.170 HD
ATOM      5  C5  <0> d           2.338   0.077  -0.013  0.00  0.00     0.327 A 
ATOM      6  O2  <0> d           3.399  -0.517  -0.024  0.00  0.00    -0.247 OA
ATOM      7  N2  <0> d           1.197  -0.632   0.004  0.00  0.00    -0.275 N 
ATOM      8  H2  <0> d           1.233  -1.631   0.007  0.00  0.00     0.173 HD
ATOM      9  C6  <0> d           0.002  -0.004   0.018  0.00  0.00     0.264 A 
ATOM     10  O3  <0> d          -1.035  -0.640   0.034  0.00  0.00    -0.267 OA
ATOM     11  H6  <0> d           1.226   3.216  -0.011  0.00  0.00     0.113 H 
ENDROOT
BRANCH   1  12
ATOM     12  C2  <0> d          -1.281   2.205   0.020  0.00  0.00     0.162 C 
ATOM     13  O1  <0> d          -2.333   1.606  -0.066  0.00  0.00    -0.293 OA
BRANCH  12  14
ATOM     14  C1  <0> d          -1.277   3.708   0.136  0.00  0.00    -0.016 C 
ATOM     15  H3  <0> d          -0.335   4.041   0.113  0.00  0.00     0.038 H 
ATOM     16  H4  <0> d          -1.835   4.138  -0.697  0.00  0.00     0.038 H 
ATOM     17  H5  <0> d          -1.745   4.001   1.076  0.00  0.00     0.038 H 
ENDBRANCH  12  14
ENDBRANCH   1  12
TORSDOF 2
