REMARK  3 active torsions:
REMARK  status: ('A' for Active; 'I' for Inactive)
REMARK    1  A    between atoms: C1_1  and  C2_2 
REMARK    2  A    between atoms: C2_2  and  O1_3 
REMARK    3  A    between atoms: O1_3  and  C3_4 
ROOT
ATOM      1  C3  <0> d          -1.498  -1.849   0.006  0.00  0.00     0.110 A 
ATOM      2  C4  <0> d          -0.388  -2.680  -0.009  0.00  0.00    -0.048 A 
ATOM      3  C5  <0> d          -0.551  -4.052  -0.015  0.00  0.00    -0.077 A 
ATOM      4  C6  <0> d          -1.821  -4.599  -0.006  0.00  0.00    -0.042 A 
ATOM      5  C7  <0> d          -2.932  -3.774   0.009  0.00  0.00     0.157 A 
ATOM      6  C8  <0> d          -2.773  -2.398   0.021  0.00  0.00     0.188 A 
ATOM      7  F1  <0> d          -3.857  -1.592   0.042  0.00  0.00    -0.200 F 
ATOM      8  F2  <0> d          -4.172  -4.311   0.017  0.00  0.00    -0.203 F 
ATOM      9  H6  <0> d           0.605  -2.254  -0.016  0.00  0.00     0.087 H 
ATOM     10  H7  <0> d           0.314  -4.697  -0.026  0.00  0.00     0.083 H 
ATOM     11  H8  <0> d          -1.945  -5.672  -0.011  0.00  0.00     0.088 H 
ENDROOT
BRANCH   1  12
ATOM     12  O1  <0> d          -1.339  -0.499   0.012  0.00  0.00    -0.348 OA
BRANCH  12  13
ATOM     13  C2  <0> d           0.002  -0.004   0.002  0.00  0.00     0.023 C 
ATOM     14  H4  <0> d           0.512  -0.356  -0.895  0.00  0.00     0.074 H 
ATOM     15  H5  <0> d           0.529  -0.365   0.885  0.00  0.00     0.074 H 
BRANCH  13  16
ATOM     16  C1  <0> d          -0.019   1.526   0.010  0.00  0.00    -0.056 C 
ATOM     17  H1  <0> d           1.004   1.903   0.003  0.00  0.00     0.030 H 
ATOM     18  H2  <0> d          -0.546   1.887  -0.873  0.00  0.00     0.030 H 
ATOM     19  H3  <0> d          -0.529   1.877   0.907  0.00  0.00     0.030 H 
ENDBRANCH  13  16
ENDBRANCH  12  13
ENDBRANCH   1  12
TORSDOF 3
