REMARK  5 active torsions:
REMARK  status: ('A' for Active; 'I' for Inactive)
REMARK    1  A    between atoms: C1_1  and  C2_2 
REMARK    2  A    between atoms: C2_2  and  N1_3 
REMARK    3  A    between atoms: N1_3  and  C3_4 
REMARK    4  A    between atoms: C3_4  and  C4_5 
REMARK    5  A    between atoms: C3_4  and  C5_6 
ROOT
ATOM      1  C3  <0> d           1.353   1.550  -0.003  0.00  0.00     0.237 C 
ATOM      2  C6  <0> d           2.107   1.006   1.139  0.00  0.00     0.100 C 
ATOM      3  N2  <0> d           2.689   0.586   2.019  0.00  0.00    -0.195 NA
ENDROOT
BRANCH   1   4
ATOM      4  N1  <0> d          -0.012   1.005   0.008  0.00  0.00     0.105 N 
ATOM      5  H6  <0> d          -0.497   1.287   0.954  0.00  0.00     0.318 HD
BRANCH   4   6
ATOM      6  C2  <0> d          -0.795   1.527  -1.120  0.00  0.00     0.110 C 
ATOM      7  H4  <0> d          -0.310   1.245  -2.066  0.00  0.00     0.079 H 
ATOM      8  H5  <0> d          -0.853   2.623  -1.050  0.00  0.00     0.079 H 
BRANCH   6   9
ATOM      9  C1  <0> d          -2.207   0.938  -1.076  0.00  0.00    -0.051 C 
ATOM     10  H1  <0> d          -2.794   1.329  -1.920  0.00  0.00     0.029 H 
ATOM     11  H2  <0> d          -2.692   1.220  -0.130  0.00  0.00     0.029 H 
ATOM     12  H3  <0> d          -2.149  -0.158  -1.146  0.00  0.00     0.029 H 
ENDBRANCH   6   9
ENDBRANCH   4   6
ENDBRANCH   1   4
BRANCH   1  13
ATOM     13  C4  <0> d           2.049   1.158  -1.307  0.00  0.00    -0.031 C 
ATOM     14  H7  <0> d           3.070   1.566  -1.315  0.00  0.00     0.032 H 
ATOM     15  H8  <0> d           1.485   1.564  -2.160  0.00  0.00     0.032 H 
ATOM     16  H9  <0> d           2.091   0.061  -1.385  0.00  0.00     0.032 H 
ENDBRANCH   1  13
BRANCH   1  17
ATOM     17  C5  <0> d           1.293   3.075   0.106  0.00  0.00    -0.031 C 
ATOM     18  H10 <0> d           2.315   3.483   0.098  0.00  0.00     0.032 H 
ATOM     19  H11 <0> d           0.793   3.357   1.044  0.00  0.00     0.032 H 
ATOM     20  H12 <0> d           0.730   3.481  -0.747  0.00  0.00     0.032 H 
ENDBRANCH   1  17
TORSDOF 5
