REMARK  4 active torsions:
REMARK  status: ('A' for Active; 'I' for Inactive)
REMARK    1  A    between atoms: C1_1  and  C2_2 
REMARK    2  A    between atoms: C5_6  and  C9_12 
REMARK    3  A    between atoms: C6_8  and  C8_11 
REMARK    4  A    between atoms: C9_12  and  O1_13 
ROOT
ATOM      1  C2  <0> d           0.317   0.759   0.293  0.00  0.00    -0.057 C 
ATOM      2  H1  <0> d           0.379  -0.348   0.234  0.00  0.00     0.039 H 
ATOM      3  C3  <0> d          -0.575   1.217  -0.853  0.00  0.00    -0.062 C 
ATOM      4  C4  <0> d          -0.522   2.735  -1.014  0.00  0.00    -0.059 C 
ATOM      5  C5  <0> d           0.915   3.160  -1.310  0.00  0.00    -0.030 C 
ATOM      6  H2  <0> d           1.256   2.666  -2.224  0.00  0.00     0.043 H 
ATOM      7  C6  <0> d           1.831   2.773  -0.154  0.00  0.00    -0.052 C 
ATOM      8  H3  <0> d           2.873   2.968  -0.486  0.00  0.00     0.040 H 
ATOM      9  C7  <0> d           1.733   1.296   0.184  0.00  0.00    -0.059 C 
ATOM     10  H7  <0> d          -0.245   0.745  -1.783  0.00  0.00     0.033 H 
ATOM     11  H8  <0> d          -1.606   0.912  -0.658  0.00  0.00     0.033 H 
ATOM     12  H9  <0> d          -0.889   3.226  -0.118  0.00  0.00     0.033 H 
ATOM     13  H10 <0> d          -1.159   3.026  -1.857  0.00  0.00     0.033 H 
ATOM     14  H11 <0> d           2.256   1.114   1.135  0.00  0.00     0.034 H 
ATOM     15  H12 <0> d           2.272   0.720  -0.584  0.00  0.00     0.034 H 
ENDROOT
BRANCH   5  16
ATOM     16  C9  <0> d           0.964   4.677  -1.516  0.00  0.00     0.020 C 
ATOM     17  H16 <0> d           0.549   5.176  -0.641  0.00  0.00     0.074 H 
ATOM     18  H17 <0> d           1.998   4.991  -1.658  0.00  0.00     0.074 H 
BRANCH  16  19
ATOM     19  O1  <0> d           0.198   5.025  -2.671  0.00  0.00    -0.400 OA
ATOM     20  H18 <0> d           0.184   5.973  -2.863  0.00  0.00     0.209 HD
ENDBRANCH  16  19
ENDBRANCH   5  16
BRANCH   7  21
ATOM     21  C8  <0> d           1.579   3.659   1.062  0.00  0.00    -0.072 C 
ATOM     22  H13 <0> d           2.231   3.350   1.879  0.00  0.00     0.028 H 
ATOM     23  H14 <0> d           1.786   4.698   0.804  0.00  0.00     0.028 H 
ATOM     24  H15 <0> d           0.538   3.563   1.372  0.00  0.00     0.028 H 
ENDBRANCH   7  21
BRANCH   1  25
ATOM     25  C1  <0> d          -0.318   1.093   1.641  0.00  0.00    -0.073 C 
ATOM     26  H4  <0> d          -0.461   2.171   1.718  0.00  0.00     0.028 H 
ATOM     27  H5  <0> d          -1.282   0.592   1.722  0.00  0.00     0.028 H 
ATOM     28  H6  <0> d           0.337   0.755   2.444  0.00  0.00     0.028 H 
ENDBRANCH   1  25
TORSDOF 4
