REMARK  2 active torsions:
REMARK  status: ('A' for Active; 'I' for Inactive)
REMARK    1  A    between atoms: C6_6  and  N1_12 
REMARK    2  A    between atoms: C9_9  and  O1_11 
ROOT
ATOM      1  C1  <0> d           0.018  -2.077  -1.207  0.00  0.00    -0.080 A 
ATOM      2  C2  <0> d           0.039  -2.800  -0.053  0.00  0.00    -0.072 A 
ATOM      3  C3  <0> d           0.042  -2.137   1.187  0.00  0.00    -0.023 A 
ATOM      4  C4  <0> d           0.064  -2.856   2.395  0.00  0.00    -0.070 A 
ATOM      5  C5  <0> d           0.067  -2.189   3.580  0.00  0.00    -0.057 A 
ATOM      6  C6  <0> d           0.048  -0.790   3.618  0.00  0.00     0.026 A 
ATOM      7  C7  <0> d           0.027  -0.055   2.453  0.00  0.00    -0.044 A 
ATOM      8  C8  <0> d           0.023  -0.720   1.216  0.00  0.00     0.009 A 
ATOM      9  C9  <0> d           0.002  -0.004   0.002  0.00  0.00     0.076 A 
ATOM     10  C10 <0> d          -0.006  -0.685  -1.182  0.00  0.00    -0.050 A 
ATOM     11  H1  <0> d           0.015  -2.592  -2.156  0.00  0.00     0.083 H 
ATOM     12  H2  <0> d           0.053  -3.879  -0.090  0.00  0.00     0.084 H 
ATOM     13  H3  <0> d           0.078  -3.935   2.382  0.00  0.00     0.084 H 
ATOM     14  H4  <0> d           0.083  -2.747   4.504  0.00  0.00     0.086 H 
ATOM     15  H5  <0> d           0.013   1.024   2.490  0.00  0.00     0.088 H 
ATOM     16  H6  <0> d          -0.026  -0.137  -2.112  0.00  0.00     0.087 H 
ENDROOT
BRANCH   6  17
ATOM     17  N1  <0> d           0.051  -0.132   4.850  0.00  0.00    -0.399 N 
ATOM     18  H8  <0> d           0.066  -0.644   5.674  0.00  0.00     0.156 HD
ATOM     19  H9  <0> d           0.038   0.838   4.882  0.00  0.00     0.156 HD
ENDBRANCH   6  17
BRANCH   9  20
ATOM     20  O1  <0> d          -0.016   1.354   0.009  0.00  0.00    -0.360 OA
ATOM     21  H7  <0> d           0.862   1.760   0.003  0.00  0.00     0.217 HD
ENDBRANCH   9  20
TORSDOF 2
