REMARK  1 active torsions:
REMARK  status: ('A' for Active; 'I' for Inactive)
REMARK    1  A    between atoms: C1_1  and  C2_2 
ROOT
ATOM      1  C2  <0> d           0.002  -0.004   0.002  0.00  0.00    -0.002 A 
ATOM      2  C3  <0> d          -1.021  -0.857   0.002  0.00  0.00    -0.001 A 
ATOM      3  N1  <0> d          -0.805  -2.218  -0.007  0.00  0.00    -0.309 N 
ATOM      4  C4  <0> d          -1.558  -3.390  -0.011  0.00  0.00     0.004 A 
ATOM      5  C5  <0> d          -0.702  -4.425  -0.021  0.00  0.00     0.020 A 
ATOM      6  N2  <0> d           0.549  -3.940  -0.024  0.00  0.00    -0.235 NA
ATOM      7  C6  <0> d           0.498  -2.639  -0.016  0.00  0.00     0.177 A 
ATOM      8  S1  <0> d           1.404  -1.110  -0.018  0.00  0.00    -0.055 SA
ATOM      9  H4  <0> d          -2.032  -0.477   0.009  0.00  0.00     0.113 H 
ATOM     10  H5  <0> d          -2.636  -3.454  -0.006  0.00  0.00     0.114 H 
ATOM     11  H6  <0> d          -0.974  -5.470  -0.025  0.00  0.00     0.117 H 
ENDROOT
BRANCH   1  12
ATOM     12  C1  <0> d          -0.018   1.503   0.010  0.00  0.00    -0.044 C 
ATOM     13  H1  <0> d           1.004   1.880   0.003  0.00  0.00     0.034 H 
ATOM     14  H2  <0> d          -0.545   1.864  -0.873  0.00  0.00     0.034 H 
ATOM     15  H3  <0> d          -0.529   1.854   0.907  0.00  0.00     0.034 H 
ENDBRANCH   1  12
TORSDOF 1
