REMARK  1 active torsions:
REMARK  status: ('A' for Active; 'I' for Inactive)
REMARK    1  A    between atoms: C4_4  and  N1_7 
ROOT
ATOM      1  C1  <0> d           0.002  -0.004   0.002  0.00  0.00    -0.083 A 
ATOM      2  C2  <0> d          -0.017   1.379   0.010  0.00  0.00    -0.081 A 
ATOM      3  C3  <0> d           1.169   2.087   0.002  0.00  0.00    -0.053 A 
ATOM      4  C4  <0> d           2.381   1.409  -0.013  0.00  0.00     0.080 A 
ATOM      5  C5  <0> d           2.396   0.021  -0.021  0.00  0.00    -0.053 A 
ATOM      6  C6  <0> d           1.207  -0.682  -0.013  0.00  0.00    -0.081 A 
ATOM      7  H1  <0> d          -0.926  -0.556   0.008  0.00  0.00     0.083 H 
ATOM      8  H2  <0> d          -0.960   1.905   0.017  0.00  0.00     0.083 H 
ATOM      9  H3  <0> d           1.154   3.167   0.008  0.00  0.00     0.087 H 
ATOM     10  H4  <0> d           3.337  -0.509  -0.033  0.00  0.00     0.087 H 
ATOM     11  H5  <0> d           1.219  -1.762  -0.019  0.00  0.00     0.083 H 
ENDROOT
BRANCH   4  12
ATOM     12  N1  <0> d           3.586   2.125  -0.020  0.00  0.00    -0.131 N 
ATOM     13  N4  <0> d           4.776   1.626  -0.028  0.00  0.00    -0.042 NA
ATOM     14  N3  <0> d           5.640   2.578  -0.037  0.00  0.00    -0.122 NA
ATOM     15  C7  <0> d           5.021   3.754  -0.025  0.00  0.00     0.131 A 
ATOM     16  N2  <0> d           3.729   3.523  -0.014  0.00  0.00    -0.140 NA
ATOM     17  H6  <0> d           5.495   4.725  -0.024  0.00  0.00     0.152 H 
ENDBRANCH   4  12
TORSDOF 1
