REMARK  0 active torsions:
REMARK  status: ('A' for Active; 'I' for Inactive)
ROOT
ATOM      1  C1  <0> d          -1.332   1.948   0.019  0.00  0.00     0.027 C 
ATOM      2  C2  <0> d          -1.160   3.233   0.845  0.00  0.00     0.009 C 
ATOM      3  N1  <0> d           0.032   3.940   0.356  0.00  0.00    -0.341 N 
ATOM      4  C3  <0> d           0.028   5.292   0.278  0.00  0.00    -0.019 A 
ATOM      5  C4  <0> d           1.159   5.969  -0.040  0.00  0.00    -0.068 A 
ATOM      6  C5  <0> d           2.340   5.270  -0.311  0.00  0.00    -0.078 A 
ATOM      7  C6  <0> d           2.334   3.904  -0.283  0.00  0.00    -0.038 A 
ATOM      8  C7  <0> d           1.145   3.225   0.019  0.00  0.00     0.133 A 
ATOM      9  N2  <0> d           1.121   1.887   0.002  0.00  0.00    -0.196 NA
ATOM     10  C8  <0> d          -0.014   1.213   0.009  0.00  0.00     0.246 C 
ATOM     11  O1  <0> d           0.002  -0.004   0.002  0.00  0.00    -0.271 OA
ATOM     12  H1  <0> d          -1.621   2.199  -1.002  0.00  0.00     0.049 H 
ATOM     13  H2  <0> d          -2.099   1.320   0.473  0.00  0.00     0.049 H 
ATOM     14  H3  <0> d          -1.030   2.982   1.897  0.00  0.00     0.065 H 
ATOM     15  H4  <0> d          -2.037   3.868   0.725  0.00  0.00     0.065 H 
ATOM     16  H5  <0> d          -0.884   5.836   0.470  0.00  0.00     0.111 H 
ATOM     17  H6  <0> d           1.148   7.048  -0.083  0.00  0.00     0.085 H 
ATOM     18  H7  <0> d           3.249   5.805  -0.541  0.00  0.00     0.083 H 
ATOM     19  H8  <0> d           3.238   3.351  -0.493  0.00  0.00     0.089 H 
ENDROOT
TORSDOF 0
