REMARK  9 active torsions:
REMARK  status: ('A' for Active; 'I' for Inactive)
REMARK    1  A    between atoms: C1_1  and  C2_2 
REMARK    2  A    between atoms: C2_2  and  C3_3 
REMARK    3  A    between atoms: C2_2  and  C4_4 
REMARK    4  A    between atoms: C2_2  and  C6_7 
REMARK    5  A    between atoms: C4_4  and  C5_5 
REMARK    6  A    between atoms: C5_5  and  O1_6 
REMARK    7  A    between atoms: C6_7  and  C7_8 
REMARK    8  A    between atoms: C6_7  and  C8_9 
REMARK    9  A    between atoms: C6_7  and  O2_10 
ROOT
ATOM      1  C2  <0> d           2.534   3.726  -0.002  0.00  0.00    -0.015 C 
ENDROOT
BRANCH   1   2
ATOM      2  C1  <0> d           3.311   3.279   1.237  0.00  0.00    -0.067 C 
ATOM      3  H1  <0> d           3.412   2.193   1.231  0.00  0.00     0.028 H 
ATOM      4  H2  <0> d           4.301   3.736   1.230  0.00  0.00     0.028 H 
ATOM      5  H3  <0> d           2.775   3.588   2.134  0.00  0.00     0.028 H 
ENDBRANCH   1   2
BRANCH   1   6
ATOM      6  C3  <0> d           3.287   3.292  -1.261  0.00  0.00    -0.067 C 
ATOM      7  H4  <0> d           2.734   3.611  -2.144  0.00  0.00     0.028 H 
ATOM      8  H5  <0> d           4.277   3.749  -1.268  0.00  0.00     0.028 H 
ATOM      9  H6  <0> d           3.388   2.207  -1.268  0.00  0.00     0.028 H 
ENDBRANCH   1   6
BRANCH   1  10
ATOM     10  C4  <0> d           1.145   3.085   0.008  0.00  0.00    -0.036 C 
ATOM     11  H7  <0> d           0.591   3.404  -0.875  0.00  0.00     0.037 H 
ATOM     12  H8  <0> d           0.608   3.395   0.904  0.00  0.00     0.037 H 
BRANCH  10  13
ATOM     13  C5  <0> d           1.286   1.562  -0.002  0.00  0.00     0.018 C 
ATOM     14  H9  <0> d           1.840   1.243   0.881  0.00  0.00     0.074 H 
ATOM     15  H10 <0> d           1.823   1.252  -0.899  0.00  0.00     0.074 H 
BRANCH  13  16
ATOM     16  O1  <0> d          -0.011   0.963   0.007  0.00  0.00    -0.401 OA
ATOM     17  H11 <0> d           0.002  -0.004   0.002  0.00  0.00     0.209 HD
ENDBRANCH  13  16
ENDBRANCH  10  13
ENDBRANCH   1  10
BRANCH   1  18
ATOM     18  C6  <0> d           2.393   5.250   0.007  0.00  0.00     0.057 C 
BRANCH  18  19
ATOM     19  C7  <0> d           1.639   5.684   1.266  0.00  0.00    -0.048 C 
ATOM     20  H12 <0> d           2.193   5.365   2.149  0.00  0.00     0.031 H 
ATOM     21  H13 <0> d           1.538   6.769   1.273  0.00  0.00     0.031 H 
ATOM     22  H14 <0> d           0.649   5.227   1.273  0.00  0.00     0.031 H 
ENDBRANCH  18  19
BRANCH  18  23
ATOM     23  C8  <0> d           3.782   5.891  -0.002  0.00  0.00    -0.048 C 
ATOM     24  H15 <0> d           4.318   5.582  -0.899  0.00  0.00     0.031 H 
ATOM     25  H16 <0> d           3.681   6.976   0.004  0.00  0.00     0.031 H 
ATOM     26  H17 <0> d           4.335   5.572   0.881  0.00  0.00     0.031 H 
ENDBRANCH  18  23
BRANCH  18  27
ATOM     27  O2  <0> d           1.667   5.668  -1.150  0.00  0.00    -0.390 OA
ATOM     28  H18 <0> d           2.087   5.426  -1.987  0.00  0.00     0.210 HD
ENDBRANCH  18  27
ENDBRANCH   1  18
TORSDOF 9
