REMARK  0 active torsions:
REMARK  status: ('A' for Active; 'I' for Inactive)
ROOT
ATOM      1  C1  <0> d           1.310   1.940  -0.000  0.00  0.00     0.021 C 
ATOM      2  C2  <0> d           1.025   3.381   0.385  0.00  0.00     0.038 C 
ATOM      3  H1  <0> d           0.850   3.348   1.471  0.00  0.00     0.056 H 
ATOM      4  C3  <0> d          -0.091   3.873  -0.591  0.00  0.00    -0.011 C 
ATOM      5  H2  <0> d          -0.081   3.608  -1.659  0.00  0.00     0.046 H 
ATOM      6  C4  <0> d          -1.388   3.277  -0.070  0.00  0.00     0.001 C 
ATOM      7  N1  <0> d          -1.202   1.823   0.018  0.00  0.00    -0.361 N 
ATOM      8  C5  <0> d          -0.014   1.209   0.009  0.00  0.00     0.218 C 
ATOM      9  O1  <0> d           0.002  -0.004   0.002  0.00  0.00    -0.274 OA
ATOM     10  C6  <0> d           0.071   5.386  -0.378  0.00  0.00     0.001 C 
ATOM     11  N2  <0> d           1.542   5.545  -0.264  0.00  0.00    -0.360 N 
ATOM     12  C7  <0> d           2.116   4.377   0.133  0.00  0.00     0.222 C 
ATOM     13  O2  <0> d           3.305   4.177   0.261  0.00  0.00    -0.273 OA
ATOM     14  H3  <0> d           1.993   1.472   0.725  0.00  0.00     0.048 H 
ATOM     15  H4  <0> d           1.752   1.888  -1.006  0.00  0.00     0.048 H 
ATOM     16  H5  <0> d          -1.612   3.697   0.921  0.00  0.00     0.064 H 
ATOM     17  H6  <0> d          -2.207   3.518  -0.764  0.00  0.00     0.064 H 
ATOM     18  H7  <0> d          -2.076   1.160   0.098  0.00  0.00     0.162 HD
ATOM     19  H8  <0> d          -0.348   5.925  -1.240  0.00  0.00     0.064 H 
ATOM     20  H9  <0> d          -0.460   5.686   0.537  0.00  0.00     0.064 H 
ATOM     21  H10 <0> d           2.010   6.514  -0.491  0.00  0.00     0.162 HD
ENDROOT
TORSDOF 0
