REMARK  1 active torsions:
REMARK  status: ('A' for Active; 'I' for Inactive)
REMARK    1  A    between atoms: C8_10  and  O1_12 
ROOT
ATOM      1  C1  <0> d           1.365   3.779  -1.177  0.00  0.00    -0.058 C 
ATOM      2  C2  <0> d           1.424   3.133   0.220  0.00  0.00    -0.059 C 
ATOM      3  C3  <0> d           1.427   1.609  -0.003  0.00  0.00    -0.025 C 
ATOM      4  H1  <0> d           2.051   1.083   0.720  0.00  0.00     0.044 H 
ATOM      5  C4  <0> d           1.959   1.437  -1.451  0.00  0.00    -0.053 C 
ATOM      6  C5  <0> d           1.226   2.599  -2.175  0.00  0.00    -0.037 C 
ATOM      7  H2  <0> d           1.630   2.818  -3.164  0.00  0.00     0.046 H 
ATOM      8  C6  <0> d          -0.245   2.228  -2.196  0.00  0.00    -0.100 C 
ATOM      9  C7  <0> d          -0.772   1.575  -1.190  0.00  0.00    -0.079 C 
ATOM     10  C8  <0> d          -0.013   1.086   0.008  0.00  0.00     0.055 C 
ATOM     11  H3  <0> d           0.002  -0.004   0.002  0.00  0.00     0.089 H 
ATOM     12  H4  <0> d           2.282   4.334  -1.375  0.00  0.00     0.034 H 
ATOM     13  H5  <0> d           0.501   4.440  -1.251  0.00  0.00     0.034 H 
ATOM     14  H6  <0> d           0.551   3.424   0.804  0.00  0.00     0.033 H 
ATOM     15  H7  <0> d           2.336   3.437   0.734  0.00  0.00     0.033 H 
ATOM     16  H8  <0> d           3.040   1.569  -1.491  0.00  0.00     0.034 H 
ATOM     17  H9  <0> d           1.668   0.471  -1.864  0.00  0.00     0.034 H 
ATOM     18  H10 <0> d          -0.859   2.530  -3.031  0.00  0.00     0.077 H 
ATOM     19  H11 <0> d          -1.829   1.358  -1.237  0.00  0.00     0.080 H 
ENDROOT
BRANCH  10  20
ATOM     20  O1  <0> d          -0.667   1.540   1.194  0.00  0.00    -0.391 OA
ATOM     21  H12 <0> d          -1.583   1.238   1.278  0.00  0.00     0.210 HD
ENDBRANCH  10  20
TORSDOF 1
