REMARK  1 active torsions:
REMARK  status: ('A' for Active; 'I' for Inactive)
REMARK    1  A    between atoms: C1_1  and  C2_2 
ROOT
ATOM      1  C2  <0> d          -1.232   1.768   0.018  0.00  0.00    -0.046 A 
ATOM      2  C3  <0> d          -0.013   1.076   0.008  0.00  0.00    -0.071 A 
ATOM      3  C4  <0> d           1.155   1.781   0.001  0.00  0.00    -0.017 A 
ATOM      4  C5  <0> d           1.110   3.186   0.009  0.00  0.00     0.245 A 
ATOM      5  O1  <0> d           2.147   3.830   0.002  0.00  0.00    -0.268 OA
ATOM      6  N1  <0> d          -0.077   3.822   0.023  0.00  0.00    -0.333 N 
ATOM      7  H1  <0> d          -0.112   4.921   0.030  0.00  0.00     0.168 HD
ATOM      8  C6  <0> d          -1.240   3.122   0.030  0.00  0.00    -0.014 A 
ATOM      9  H5  <0> d           0.002  -0.004   0.002  0.00  0.00     0.084 H 
ATOM     10  H6  <0> d           2.104   1.266  -0.012  0.00  0.00     0.092 H 
ATOM     11  H7  <0> d          -2.182   3.650   0.042  0.00  0.00     0.112 H 
ENDROOT
BRANCH   1  12
ATOM     12  C1  <0> d          -2.532   1.006   0.019  0.00  0.00    -0.050 C 
ATOM     13  H2  <0> d          -2.324  -0.074   0.008  0.00  0.00     0.033 H 
ATOM     14  H3  <0> d          -3.116   1.276  -0.872  0.00  0.00     0.033 H 
ATOM     15  H4  <0> d          -3.104   1.259   0.924  0.00  0.00     0.033 H 
ENDBRANCH   1  12
TORSDOF 1
