REMARK  2 active torsions:
REMARK  status: ('A' for Active; 'I' for Inactive)
REMARK    1  A    between atoms: C4_4  and  C7_7 
REMARK    2  A    between atoms: C9_9  and  N3_13 
ROOT
ATOM      1  C1  <0> d          -0.017   1.379   0.010  0.00  0.00    -0.083 A 
ATOM      2  C2  <0> d           1.169   2.092   0.002  0.00  0.00    -0.082 A 
ATOM      3  C3  <0> d           2.377   1.426  -0.013  0.00  0.00    -0.071 A 
ATOM      4  C4  <0> d           2.402   0.033  -0.021  0.00  0.00    -0.006 A 
ATOM      5  C5  <0> d           1.205  -0.680  -0.013  0.00  0.00    -0.071 A 
ATOM      6  C6  <0> d           0.002  -0.004   0.002  0.00  0.00    -0.082 A 
ATOM      7  H2  <0> d          -0.960   1.904   0.026  0.00  0.00     0.083 H 
ATOM      8  H3  <0> d           1.148   3.172   0.008  0.00  0.00     0.083 H 
ATOM      9  H4  <0> d           3.302   1.983  -0.020  0.00  0.00     0.084 H 
ATOM     10  H5  <0> d           1.219  -1.760  -0.019  0.00  0.00     0.084 H 
ATOM     11  H6  <0> d          -0.926  -0.556   0.008  0.00  0.00     0.083 H 
ENDROOT
BRANCH   4  12
ATOM     12  C7  <0> d           3.699  -0.689  -0.038  0.00  0.00     0.090 A 
ATOM     13  N2  <0> d           4.892  -0.134  -0.048  0.00  0.00    -0.173 NA
ATOM     14  N1  <0> d           5.852  -1.153  -0.060  0.00  0.00    -0.262 N 
ATOM     15  C9  <0> d           5.201  -2.345  -0.067  0.00  0.00     0.117 A 
ATOM     16  H1  <0> d           6.814  -1.029  -0.068  0.00  0.00     0.191 HD
ATOM     17  C8  <0> d           3.866  -2.087  -0.053  0.00  0.00    -0.009 A 
ATOM     18  H7  <0> d           3.075  -2.822  -0.054  0.00  0.00     0.093 H 
BRANCH  15  19
ATOM     19  N3  <0> d           5.793  -3.605  -0.083  0.00  0.00    -0.384 N 
ATOM     20  H8  <0> d           5.239  -4.401  -0.086  0.00  0.00     0.157 HD
ATOM     21  H9  <0> d           6.760  -3.686  -0.092  0.00  0.00     0.157 HD
ENDBRANCH  15  19
ENDBRANCH   4  12
TORSDOF 2
