REMARK  5 active torsions:
REMARK  status: ('A' for Active; 'I' for Inactive)
REMARK    1  A    between atoms: C1_1  and  C2_2 
REMARK    2  A    between atoms: C2_2  and  C3_3 
REMARK    3  A    between atoms: C3_3  and  C4_4 
REMARK    4  A    between atoms: C4_4  and  O1_5 
REMARK    5  A    between atoms: O1_5  and  C5_6 
ROOT
ATOM      1  C5  <0> d           1.415   3.446   0.007  0.00  0.00     0.131 C 
ATOM      2  H1  <0> d           0.773   3.856  -0.772  0.00  0.00     0.129 H 
ATOM      3  C6  <0> d           2.865   3.864  -0.254  0.00  0.00    -0.019 C 
ATOM      4  C7  <0> d           2.968   5.391  -0.185  0.00  0.00    -0.059 C 
ATOM      5  C8  <0> d           2.463   5.865   1.181  0.00  0.00    -0.045 C 
ATOM      6  C9  <0> d           1.029   5.370   1.386  0.00  0.00     0.023 C 
ATOM      7  O2  <0> d           0.999   3.945   1.280  0.00  0.00    -0.361 OA
ATOM      8  H11 <0> d           3.513   3.421   0.502  0.00  0.00     0.040 H 
ATOM      9  H12 <0> d           3.170   3.522  -1.243  0.00  0.00     0.040 H 
ATOM     10  H13 <0> d           2.358   5.833  -0.973  0.00  0.00     0.033 H 
ATOM     11  H14 <0> d           4.007   5.694  -0.315  0.00  0.00     0.033 H 
ATOM     12  H15 <0> d           2.482   6.954   1.218  0.00  0.00     0.036 H 
ATOM     13  H16 <0> d           3.104   5.462   1.966  0.00  0.00     0.036 H 
ATOM     14  H17 <0> d           0.382   5.805   0.625  0.00  0.00     0.074 H 
ATOM     15  H18 <0> d           0.680   5.668   2.375  0.00  0.00     0.074 H 
ENDROOT
BRANCH   1  16
ATOM     16  O1  <0> d           1.322   2.020   0.000  0.00  0.00    -0.361 OA
BRANCH  16  17
ATOM     17  C4  <0> d          -0.019   1.526   0.010  0.00  0.00     0.023 C 
ATOM     18  H9  <0> d          -0.546   1.887  -0.873  0.00  0.00     0.074 H 
ATOM     19  H10 <0> d          -0.529   1.877   0.907  0.00  0.00     0.074 H 
BRANCH  17  20
ATOM     20  C3  <0> d           0.002  -0.004   0.002  0.00  0.00    -0.045 C 
ATOM     21  H7  <0> d           0.512  -0.356  -0.895  0.00  0.00     0.036 H 
ATOM     22  H8  <0> d           0.529  -0.365   0.885  0.00  0.00     0.036 H 
BRANCH  20  23
ATOM     23  C2  <0> d          -1.433  -0.534   0.013  0.00  0.00    -0.067 C 
ATOM     24  H5  <0> d          -1.944  -0.182   0.910  0.00  0.00     0.032 H 
ATOM     25  H6  <0> d          -1.960  -0.173  -0.870  0.00  0.00     0.032 H 
BRANCH  23  26
ATOM     26  C1  <0> d          -1.413  -2.063   0.004  0.00  0.00    -0.076 C 
ATOM     27  H2  <0> d          -0.902  -2.415  -0.892  0.00  0.00     0.027 H 
ATOM     28  H3  <0> d          -0.885  -2.425   0.887  0.00  0.00     0.027 H 
ATOM     29  H4  <0> d          -2.435  -2.441   0.012  0.00  0.00     0.027 H 
ENDBRANCH  23  26
ENDBRANCH  20  23
ENDBRANCH  17  20
ENDBRANCH  16  17
ENDBRANCH   1  16
TORSDOF 5
