REMARK  0 active torsions:
REMARK  status: ('A' for Active; 'I' for Inactive)
ROOT
ATOM      1  C1  <0> d          -0.043   3.843   0.022  0.00  0.00    -0.034 A 
ATOM      2  C2  <0> d          -1.233   3.140   0.029  0.00  0.00    -0.027 A 
ATOM      3  C3  <0> d          -1.233   1.754   0.017  0.00  0.00     0.037 A 
ATOM      4  C4  <0> d          -0.013   1.076   0.008  0.00  0.00    -0.017 A 
ATOM      5  C5  <0> d           1.175   1.779   0.000  0.00  0.00     0.157 A 
ATOM      6  C6  <0> d           1.164   3.166   0.007  0.00  0.00     0.155 A 
ATOM      7  F1  <0> d           2.326   3.854  -0.000  0.00  0.00    -0.203 F 
ATOM      8  F2  <0> d           2.352   1.115  -0.013  0.00  0.00    -0.203 F 
ATOM      9  N1  <0> d          -2.532   1.239   0.021  0.00  0.00    -0.389 N 
ATOM     10  C7  <0> d          -3.507   2.333   0.032  0.00  0.00    -0.004 A 
ATOM     11  C8  <0> d          -2.667   3.621   0.044  0.00  0.00    -0.024 A 
ATOM     12  H1  <0> d          -0.055   4.923   0.028  0.00  0.00     0.089 H 
ATOM     13  H2  <0> d           0.002  -0.004   0.002  0.00  0.00     0.091 H 
ATOM     14  H3  <0> d          -2.877   0.194   0.018  0.00  0.00     0.159 HD
ATOM     15  H4  <0> d          -4.138   2.270  -0.867  0.00  0.00     0.064 H 
ATOM     16  H5  <0> d          -4.138   2.253   0.929  0.00  0.00     0.064 H 
ATOM     17  H6  <0> d          -2.845   4.217   0.951  0.00  0.00     0.042 H 
ATOM     18  H7  <0> d          -2.855   4.241  -0.845  0.00  0.00     0.042 H 
ENDROOT
TORSDOF 0
