REMARK  3 active torsions:
REMARK  status: ('A' for Active; 'I' for Inactive)
REMARK    1  A    between atoms: C1_1  and  C2_2 
REMARK    2  A    between atoms: C2_2  and  C3_3 
REMARK    3  A    between atoms: C2_2  and  N1_4 
ROOT
ATOM      1  N1  <0> d          -1.372  -0.511   0.012  0.00  0.00    -0.329 N 
ATOM      2  C4  <0> d          -1.972  -1.367  -1.022  0.00  0.00     0.014 A 
ATOM      3  C5  <0> d          -3.411  -1.599  -0.520  0.00  0.00     0.012 A 
ATOM      4  N2  <0> d          -3.469  -0.848   0.743  0.00  0.00    -0.341 N 
ATOM      5  C6  <0> d          -2.280  -0.273   0.968  0.00  0.00     0.318 A 
ATOM      6  O1  <0> d          -2.047   0.406   1.949  0.00  0.00    -0.247 OA
ATOM      7  H8  <0> d          -1.980  -0.857  -1.984  0.00  0.00     0.067 H 
ATOM      8  H9  <0> d          -1.436  -2.313  -1.094  0.00  0.00     0.067 H 
ATOM      9  H10 <0> d          -4.133  -1.202  -1.234  0.00  0.00     0.066 H 
ATOM     10  H11 <0> d          -3.589  -2.659  -0.343  0.00  0.00     0.066 H 
ATOM     11  H12 <0> d          -4.244  -0.782   1.323  0.00  0.00     0.164 HD
ENDROOT
BRANCH   1  12
ATOM     12  C2  <0> d           0.002  -0.004   0.002  0.00  0.00     0.009 C 
ATOM     13  H4  <0> d           0.512  -0.356  -0.895  0.00  0.00     0.071 H 
BRANCH  12  14
ATOM     14  C1  <0> d          -0.019   1.526   0.010  0.00  0.00    -0.057 C 
ATOM     15  H1  <0> d           1.004   1.903   0.003  0.00  0.00     0.030 H 
ATOM     16  H2  <0> d          -0.546   1.887  -0.873  0.00  0.00     0.030 H 
ATOM     17  H3  <0> d          -0.529   1.877   0.907  0.00  0.00     0.030 H 
ENDBRANCH  12  14
BRANCH  12  18
ATOM     18  C3  <0> d           0.742  -0.511   1.242  0.00  0.00    -0.057 C 
ATOM     19  H5  <0> d           0.757  -1.601   1.236  0.00  0.00     0.030 H 
ATOM     20  H6  <0> d           1.765  -0.134   1.234  0.00  0.00     0.030 H 
ATOM     21  H7  <0> d           0.232  -0.159   2.138  0.00  0.00     0.030 H 
ENDBRANCH  12  18
ENDBRANCH   1  12
TORSDOF 3
