REMARK  0 active torsions:
REMARK  status: ('A' for Active; 'I' for Inactive)
ROOT
ATOM      1  C1  <0> d          -4.417   0.655   2.241  0.00  0.00    -0.061 C 
ATOM      2  C2  <0> d          -4.988   1.558   1.147  0.00  0.00    -0.060 C 
ATOM      3  C3  <0> d          -4.305   1.185  -0.171  0.00  0.00    -0.026 C 
ATOM      4  C4  <0> d          -2.813   1.367  -0.022  0.00  0.00     0.014 C 
ATOM      5  C5  <0> d          -2.222   1.276   1.147  0.00  0.00    -0.057 C 
ATOM      6  C6  <0> d          -2.932   0.906   2.417  0.00  0.00    -0.043 C 
ATOM      7  C7  <0> d          -0.735   1.582   1.259  0.00  0.00    -0.035 C 
ATOM      8  C8  <0> d          -0.013   1.086   0.008  0.00  0.00     0.013 C 
ATOM      9  C9  <0> d          -0.750   1.589  -1.209  0.00  0.00     0.222 C 
ATOM     10  O1  <0> d          -0.140   1.911  -2.207  0.00  0.00    -0.273 OA
ATOM     11  N1  <0> d          -2.089   1.678  -1.174  0.00  0.00    -0.331 N 
ATOM     12  H1  <0> d          -4.930   0.860   3.180  0.00  0.00     0.033 H 
ATOM     13  H2  <0> d          -4.574  -0.388   1.966  0.00  0.00     0.033 H 
ATOM     14  H3  <0> d          -4.784   2.601   1.386  0.00  0.00     0.033 H 
ATOM     15  H4  <0> d          -6.063   1.402   1.062  0.00  0.00     0.033 H 
ATOM     16  H5  <0> d          -4.674   1.830  -0.968  0.00  0.00     0.042 H 
ATOM     17  H6  <0> d          -4.522   0.144  -0.414  0.00  0.00     0.042 H 
ATOM     18  H7  <0> d          -2.799   1.714   3.137  0.00  0.00     0.039 H 
ATOM     19  H8  <0> d          -2.472   0.004   2.820  0.00  0.00     0.039 H 
ATOM     20  H9  <0> d          -0.324   1.084   2.137  0.00  0.00     0.040 H 
ATOM     21  H10 <0> d          -0.594   2.659   1.356  0.00  0.00     0.040 H 
ATOM     22  H11 <0> d           0.002  -0.004   0.002  0.00  0.00     0.047 H 
ATOM     23  H12 <0> d           1.009   1.466   0.000  0.00  0.00     0.047 H 
ATOM     24  H13 <0> d          -2.565   1.965  -1.969  0.00  0.00     0.168 HD
ENDROOT
TORSDOF 0
