REMARK  2 active torsions:
REMARK  status: ('A' for Active; 'I' for Inactive)
REMARK    1  A    between atoms: C1_1  and  C2_2 
REMARK    2  A    between atoms: C7_7  and  C11_12 
ROOT
ATOM      1  C2  <0> d          -1.199   1.743   0.017  0.00  0.00    -0.060 A 
ATOM      2  C3  <0> d          -1.240   3.136   0.031  0.00  0.00    -0.076 A 
ATOM      3  C4  <0> d          -0.093   3.869   0.023  0.00  0.00    -0.070 A 
ATOM      4  C5  <0> d           1.149   3.214   0.008  0.00  0.00    -0.007 A 
ATOM      5  C6  <0> d           2.358   3.935   0.000  0.00  0.00    -0.064 A 
ATOM      6  C7  <0> d           3.528   3.231  -0.014  0.00  0.00    -0.044 A 
ATOM      7  C8  <0> d           3.501   1.838  -0.021  0.00  0.00     0.009 A 
ATOM      8  N1  <0> d           2.374   1.170  -0.013  0.00  0.00    -0.260 NA
ATOM      9  C9  <0> d           1.194   1.798   0.000  0.00  0.00     0.067 A 
ATOM     10  C10 <0> d          -0.013   1.076   0.008  0.00  0.00    -0.049 A 
ATOM     11  H4  <0> d          -2.195   3.640   0.043  0.00  0.00     0.084 H 
ATOM     12  H5  <0> d          -0.138   4.948   0.029  0.00  0.00     0.084 H 
ATOM     13  H6  <0> d           2.360   5.015   0.006  0.00  0.00     0.085 H 
ATOM     14  H7  <0> d           4.434   1.295  -0.032  0.00  0.00     0.115 H 
ATOM     15  H8  <0> d           0.002  -0.004   0.002  0.00  0.00     0.087 H 
ENDROOT
BRANCH   1  16
ATOM     16  C1  <0> d          -2.488   0.962   0.019  0.00  0.00    -0.051 C 
ATOM     17  H1  <0> d          -2.794   0.769   1.048  0.00  0.00     0.033 H 
ATOM     18  H2  <0> d          -3.262   1.538  -0.488  0.00  0.00     0.033 H 
ATOM     19  H3  <0> d          -2.340   0.015  -0.500  0.00  0.00     0.033 H 
ENDBRANCH   1  16
BRANCH   6  20
ATOM     20  C11 <0> d           4.847   3.960  -0.023  0.00  0.00    -0.050 C 
ATOM     21  H9  <0> d           5.175   4.131   1.002  0.00  0.00     0.033 H 
ATOM     22  H10 <0> d           5.590   3.360  -0.547  0.00  0.00     0.033 H 
ATOM     23  H11 <0> d           4.729   4.918  -0.532  0.00  0.00     0.033 H 
ENDBRANCH   6  20
TORSDOF 2
