REMARK  4 active torsions:
REMARK  status: ('A' for Active; 'I' for Inactive)
REMARK    1  A    between atoms: C1_1  and  C2_2 
REMARK    2  A    between atoms: C2_2  and  C3_4 
REMARK    3  A    between atoms: C2_2  and  C6_7 
REMARK       I    between atoms: C6_7  and  N1_9 
REMARK    4  A    between atoms: N1_9  and  C7_10 
ROOT
ATOM      1  C2  <0> d           0.002  -0.004   0.002  0.00  0.00     0.024 C 
ATOM      2  H1  <0> d           0.529  -0.365   0.885  0.00  0.00     0.054 H 
ENDROOT
BRANCH   1   3
ATOM      3  C1  <0> d          -0.019   1.526   0.010  0.00  0.00    -0.064 C 
ATOM      4  H2  <0> d           1.004   1.903   0.003  0.00  0.00     0.028 H 
ATOM      5  H3  <0> d          -0.546   1.887  -0.873  0.00  0.00     0.028 H 
ATOM      6  H4  <0> d          -0.529   1.877   0.907  0.00  0.00     0.028 H 
ENDBRANCH   1   3
BRANCH   1   7
ATOM      7  C3  <0> d          -1.433  -0.534   0.013  0.00  0.00    -0.043 A 
ATOM      8  C5  <0> d          -1.626  -2.051   0.007  0.00  0.00    -0.060 A 
ATOM      9  C4  <0> d          -1.913  -1.249   1.278  0.00  0.00    -0.060 A 
ATOM     10  H8  <0> d          -2.481  -2.448  -0.542  0.00  0.00     0.033 H 
ATOM     11  H9  <0> d          -0.731  -2.673  -0.005  0.00  0.00     0.033 H 
ATOM     12  H6  <0> d          -1.206  -1.343   2.102  0.00  0.00     0.033 H 
ATOM     13  H7  <0> d          -2.956  -1.118   1.565  0.00  0.00     0.033 H 
ATOM     14  H5  <0> d          -2.161   0.069  -0.532  0.00  0.00     0.041 H 
ENDBRANCH   1   7
BRANCH   1  15
ATOM     15  C6  <0> d           0.707  -0.490  -1.238  0.00  0.00     0.222 C 
ATOM     16  O1  <0> d           0.120  -1.191  -2.034  0.00  0.00    -0.273 OA
ATOM     17  N1  <0> d           1.991  -0.146  -1.462  0.00  0.00    -0.356 N 
ATOM     18  H10 <0> d           2.461   0.415  -0.825  0.00  0.00     0.162 HD
BRANCH  17  19
ATOM     19  C7  <0> d           2.677  -0.618  -2.667  0.00  0.00     0.012 A 
ATOM     20  C9  <0> d           3.853   0.213  -3.182  0.00  0.00    -0.044 A 
ATOM     21  C8  <0> d           4.108  -1.137  -2.508  0.00  0.00    -0.044 A 
ATOM     22  H14 <0> d           3.994   0.271  -4.261  0.00  0.00     0.036 H 
ATOM     23  H15 <0> d           4.117   1.112  -2.624  0.00  0.00     0.036 H 
ATOM     24  H12 <0> d           4.539  -1.126  -1.507  0.00  0.00     0.036 H 
ATOM     25  H13 <0> d           4.416  -1.966  -3.144  0.00  0.00     0.036 H 
ATOM     26  H11 <0> d           2.043  -1.107  -3.407  0.00  0.00     0.072 H 
ENDBRANCH  17  19
ENDBRANCH   1  15
TORSDOF 4
