REMARK  8 active torsions:
REMARK  status: ('A' for Active; 'I' for Inactive)
REMARK    1  A    between atoms: C1_1  and  C2_2 
REMARK    2  A    between atoms: C2_2  and  C3_4 
REMARK    3  A    between atoms: C2_2  and  C6_8 
REMARK    4  A    between atoms: C3_4  and  C4_5 
REMARK    5  A    between atoms: C4_5  and  C5_6 
REMARK    6  A    between atoms: C5_6  and  O1_7 
REMARK    7  A    between atoms: C6_8  and  C7_9 
REMARK    8  A    between atoms: C7_9  and  O2_10 
ROOT
ATOM      1  C2  <0> d          -0.753   1.593  -1.232  0.00  0.00    -0.056 C 
ATOM      2  H1  <0> d          -0.845   2.678  -1.181  0.00  0.00     0.039 H 
ENDROOT
BRANCH   1   3
ATOM      3  C1  <0> d          -2.147   0.964  -1.286  0.00  0.00    -0.073 C 
ATOM      4  H2  <0> d          -2.705   1.240  -0.391  0.00  0.00     0.028 H 
ATOM      5  H3  <0> d          -2.674   1.325  -2.169  0.00  0.00     0.028 H 
ATOM      6  H4  <0> d          -2.054  -0.121  -1.336  0.00  0.00     0.028 H 
ENDBRANCH   1   3
BRANCH   1   7
ATOM      7  C3  <0> d          -0.013   1.086   0.008  0.00  0.00    -0.060 C 
ATOM      8  H5  <0> d           0.002  -0.004   0.002  0.00  0.00     0.033 H 
ATOM      9  H6  <0> d           1.010   1.463   0.000  0.00  0.00     0.033 H 
BRANCH   7  10
ATOM     10  C4  <0> d          -0.729   1.579   1.267  0.00  0.00    -0.045 C 
ATOM     11  H7  <0> d          -0.744   2.669   1.273  0.00  0.00     0.036 H 
ATOM     12  H8  <0> d          -1.751   1.202   1.275  0.00  0.00     0.036 H 
BRANCH  10  13
ATOM     13  C5  <0> d           0.011   1.072   2.506  0.00  0.00     0.017 C 
ATOM     14  H9  <0> d           0.026  -0.018   2.500  0.00  0.00     0.073 H 
ATOM     15  H10 <0> d           1.034   1.450   2.499  0.00  0.00     0.073 H 
BRANCH  13  16
ATOM     16  O1  <0> d          -0.658   1.533   3.682  0.00  0.00    -0.401 OA
ATOM     17  H11 <0> d          -0.242   1.249   4.508  0.00  0.00     0.209 HD
ENDBRANCH  13  16
ENDBRANCH  10  13
ENDBRANCH   7  10
ENDBRANCH   1   7
BRANCH   1  18
ATOM     18  C6  <0> d           0.031   1.205  -2.487  0.00  0.00    -0.042 C 
ATOM     19  H12 <0> d           1.052   1.579  -2.408  0.00  0.00     0.036 H 
ATOM     20  H13 <0> d           0.047   0.120  -2.585  0.00  0.00     0.036 H 
BRANCH  18  21
ATOM     21  C7  <0> d          -0.642   1.818  -3.717  0.00  0.00     0.017 C 
ATOM     22  H14 <0> d          -1.663   1.445  -3.797  0.00  0.00     0.073 H 
ATOM     23  H15 <0> d          -0.658   2.904  -3.620  0.00  0.00     0.073 H 
BRANCH  21  24
ATOM     24  O2  <0> d           0.090   1.456  -4.890  0.00  0.00    -0.401 OA
ATOM     25  H16 <0> d          -0.280   1.811  -5.710  0.00  0.00     0.209 HD
ENDBRANCH  21  24
ENDBRANCH  18  21
ENDBRANCH   1  18
TORSDOF 8
