REMARK  1 active torsions:
REMARK  status: ('A' for Active; 'I' for Inactive)
REMARK    1  A    between atoms: C4_5  and  N3_7 
ROOT
ATOM      1  C1  <0> d          -0.016   1.314   0.009  0.00  0.00     0.089 A 
ATOM      2  N1  <0> d           1.097   2.027   0.003  0.00  0.00    -0.244 NA
ATOM      3  C2  <0> d           2.272   1.438  -0.012  0.00  0.00     0.073 A 
ATOM      4  C3  <0> d           2.357   0.045  -0.020  0.00  0.00     0.126 A 
ATOM      5  C4  <0> d           1.147  -0.678  -0.013  0.00  0.00     0.153 A 
ATOM      6  N2  <0> d           0.002  -0.004   0.002  0.00  0.00    -0.222 NA
ATOM      7  N4  <0> d           3.663  -0.347  -0.035  0.00  0.00    -0.259 NA
ATOM      8  C5  <0> d           4.500   0.629  -0.038  0.00  0.00    -0.012 A 
ATOM      9  C6  <0> d           3.703   1.918  -0.023  0.00  0.00     0.008 A 
ATOM     10  H1  <0> d          -0.967   1.825   0.026  0.00  0.00     0.146 H 
ATOM     11  H4  <0> d           5.577   0.545  -0.048  0.00  0.00     0.108 H 
ATOM     12  H5  <0> d           3.905   2.506  -0.919  0.00  0.00     0.050 H 
ATOM     13  H6  <0> d           3.922   2.496   0.875  0.00  0.00     0.050 H 
ENDROOT
BRANCH   5  14
ATOM     14  N3  <0> d           1.151  -2.062  -0.021  0.00  0.00    -0.382 N 
ATOM     15  H2  <0> d           1.993  -2.544  -0.032  0.00  0.00     0.157 HD
ATOM     16  H3  <0> d           0.313  -2.549  -0.015  0.00  0.00     0.157 HD
ENDBRANCH   5  14
TORSDOF 1
