REMARK  1 active torsions:
REMARK  status: ('A' for Active; 'I' for Inactive)
REMARK    1  A    between atoms: C5_8  and  C6_10 
ROOT
ATOM      1  C1  <0> d          -0.796   1.614   1.237  0.00  0.00    -0.039 C 
ATOM      2  C2  <0> d          -0.013   1.086   0.008  0.00  0.00     0.021 C 
ATOM      3  O1  <0> d          -0.764   1.590  -1.117  0.00  0.00    -0.385 OA
ATOM      4  C3  <0> d          -2.157   1.462  -0.783  0.00  0.00     0.056 A 
ATOM      5  H1  <0> d          -2.430   0.846  -1.652  0.00  0.00     0.085 H 
ATOM      6  C4  <0> d          -2.266   1.500   0.754  0.00  0.00    -0.011 A 
ATOM      7  H2  <0> d          -2.714   0.956   1.599  0.00  0.00     0.045 H 
ATOM      8  C5  <0> d          -2.842   2.640  -0.086  0.00  0.00     0.061 A 
ATOM      9  H3  <0> d          -2.725   3.733  -0.103  0.00  0.00     0.061 H 
ATOM     10  H4  <0> d          -0.569   2.664   1.474  0.00  0.00     0.036 H 
ATOM     11  H5  <0> d          -0.656   0.996   2.136  0.00  0.00     0.036 H 
ATOM     12  H6  <0> d           1.015   1.476   0.033  0.00  0.00     0.074 H 
ATOM     13  H7  <0> d           0.012  -0.014   0.034  0.00  0.00     0.074 H 
ENDROOT
BRANCH   8  14
ATOM     14  C6  <0> d          -4.342   2.734  -0.194  0.00  0.00     0.180 C 
ATOM     15  O2  <0> d          -5.040   1.920   0.363  0.00  0.00    -0.648 OA
ATOM     16  O3  <0> d          -4.903   3.721  -0.910  0.00  0.00    -0.648 OA
ENDBRANCH   8  14
TORSDOF 1
