REMARK  2 active torsions:
REMARK  status: ('A' for Active; 'I' for Inactive)
REMARK    1  A    between atoms: C1_1  and  C2_2 
REMARK       I    between atoms: C2_2  and  N1_4 
REMARK    2  A    between atoms: N1_4  and  C3_5 
ROOT
ATOM      1  C3  <0> d          -0.530   3.149   1.255  0.00  0.00     0.016 C 
ATOM      2  H1  <0> d           0.534   3.355   1.135  0.00  0.00     0.073 H 
ATOM      3  C4  <0> d          -1.323   3.684   0.041  0.00  0.00    -0.042 C 
ATOM      4  C5  <0> d          -1.991   2.420  -0.581  0.00  0.00    -0.052 C 
ATOM      5  H2  <0> d          -2.840   2.604  -1.239  0.00  0.00     0.040 H 
ATOM      6  C6  <0> d          -0.806   1.621  -1.206  0.00  0.00    -0.061 C 
ATOM      7  C7  <0> d          -0.013   1.086   0.008  0.00  0.00    -0.059 C 
ATOM      8  C8  <0> d          -0.790   1.612   1.253  0.00  0.00    -0.034 C 
ATOM      9  H3  <0> d          -0.593   1.093   2.192  0.00  0.00     0.043 H 
ATOM     10  C9  <0> d          -2.265   1.571   0.710  0.00  0.00    -0.056 C 
ATOM     11  H8  <0> d          -0.650   4.151  -0.677  0.00  0.00     0.036 H 
ATOM     12  H9  <0> d          -2.084   4.393   0.367  0.00  0.00     0.036 H 
ATOM     13  H10 <0> d          -0.180   2.278  -1.809  0.00  0.00     0.033 H 
ATOM     14  H11 <0> d          -1.180   0.794  -1.810  0.00  0.00     0.033 H 
ATOM     15  H12 <0> d           0.002  -0.004   0.002  0.00  0.00     0.033 H 
ATOM     16  H13 <0> d           1.004   1.479   0.000  0.00  0.00     0.033 H 
ATOM     17  H14 <0> d          -2.963   2.066   1.385  0.00  0.00     0.034 H 
ATOM     18  H15 <0> d          -2.584   0.556   0.472  0.00  0.00     0.034 H 
ENDROOT
BRANCH   1  19
ATOM     19  N1  <0> d          -1.028   3.749   2.495  0.00  0.00    -0.356 N 
ATOM     20  C2  <0> d          -0.541   4.935   2.913  0.00  0.00     0.213 C 
ATOM     21  O1  <0> d           0.308   5.505   2.262  0.00  0.00    -0.274 OA
ATOM     22  H7  <0> d          -1.707   3.293   3.016  0.00  0.00     0.162 HD
BRANCH  20  23
ATOM     23  C1  <0> d          -1.053   5.552   4.189  0.00  0.00    -0.003 C 
ATOM     24  H4  <0> d          -1.807   4.900   4.631  0.00  0.00     0.040 H 
ATOM     25  H5  <0> d          -0.227   5.679   4.888  0.00  0.00     0.040 H 
ATOM     26  H6  <0> d          -1.497   6.524   3.970  0.00  0.00     0.040 H 
ENDBRANCH  20  23
ENDBRANCH   1  19
TORSDOF 2
