REMARK  6 active torsions:
REMARK  status: ('A' for Active; 'I' for Inactive)
REMARK    1  A    between atoms: C1_1  and  C2_2 
REMARK    2  A    between atoms: C2_2  and  C3_3 
REMARK    3  A    between atoms: C2_2  and  C6_7 
REMARK    4  A    between atoms: C3_3  and  C4_4 
REMARK    5  A    between atoms: C4_4  and  C5_5 
REMARK    6  A    between atoms: C5_5  and  O1_6 
ROOT
ATOM      1  C2  <0> d           0.002  -0.004   0.002  0.00  0.00     0.022 C 
ENDROOT
BRANCH   1   2
ATOM      2  C1  <0> d          -0.018   1.503   0.010  0.00  0.00    -0.058 C 
ATOM      3  H1  <0> d           1.004   1.880   0.003  0.00  0.00     0.029 H 
ATOM      4  H2  <0> d          -0.545   1.864  -0.873  0.00  0.00     0.029 H 
ATOM      5  H3  <0> d          -0.529   1.854   0.907  0.00  0.00     0.029 H 
ENDBRANCH   1   2
BRANCH   1   6
ATOM      6  C3  <0> d           0.022  -0.664   1.130  0.00  0.00    -0.164 C 
BRANCH   6   7
ATOM      7  C4  <0> d           0.041  -1.323   2.259  0.00  0.00     0.030 C 
ATOM      8  H4  <0> d          -0.886  -1.608   2.733  0.00  0.00     0.063 H 
BRANCH   7   9
ATOM      9  C5  <0> d           1.358  -1.685   2.897  0.00  0.00     0.030 C 
ATOM     10  H5  <0> d           1.470  -2.770   2.907  0.00  0.00     0.075 H 
ATOM     11  H6  <0> d           2.173  -1.241   2.325  0.00  0.00     0.075 H 
BRANCH   9  12
ATOM     12  O1  <0> d           1.390  -1.190   4.237  0.00  0.00    -0.400 OA
ATOM     13  H7  <0> d           2.210  -1.388   4.709  0.00  0.00     0.209 HD
ENDBRANCH   9  12
ENDBRANCH   7   9
ENDBRANCH   6   7
ENDBRANCH   1   6
BRANCH   1  14
ATOM     14  C6  <0> d          -0.000  -0.750  -1.307  0.00  0.00    -0.058 C 
ATOM     15  H8  <0> d           1.027  -0.916  -1.633  0.00  0.00     0.029 H 
ATOM     16  H9  <0> d          -0.500  -1.710  -1.177  0.00  0.00     0.029 H 
ATOM     17  H10 <0> d          -0.529  -0.164  -2.059  0.00  0.00     0.029 H 
ENDBRANCH   1  14
TORSDOF 6
