REMARK  2 active torsions:
REMARK  status: ('A' for Active; 'I' for Inactive)
REMARK    1  A    between atoms: C1_1  and  C2_2 
REMARK    2  A    between atoms: C5_6  and  C7_9 
ROOT
ATOM      1  C2  <0> d           0.002  -0.004   0.002  0.00  0.00    -0.057 C 
ATOM      2  H1  <0> d           0.498  -0.373  -0.895  0.00  0.00     0.039 H 
ATOM      3  C3  <0> d          -1.438  -0.566   0.095  0.00  0.00    -0.062 C 
ATOM      4  C4  <0> d          -1.215  -1.985   0.674  0.00  0.00    -0.062 C 
ATOM      5  C5  <0> d          -0.073  -1.801   1.696  0.00  0.00    -0.057 C 
ATOM      6  H2  <0> d          -0.485  -1.665   2.696  0.00  0.00     0.039 H 
ATOM      7  C6  <0> d           0.704  -0.541   1.267  0.00  0.00    -0.059 C 
ATOM      8  H6  <0> d          -2.045   0.036   0.771  0.00  0.00     0.033 H 
ATOM      9  H7  <0> d          -1.896  -0.620  -0.893  0.00  0.00     0.033 H 
ATOM     10  H8  <0> d          -2.117  -2.341   1.171  0.00  0.00     0.033 H 
ATOM     11  H9  <0> d          -0.914  -2.676  -0.114  0.00  0.00     0.033 H 
ATOM     12  H10 <0> d           1.738  -0.797   1.039  0.00  0.00     0.034 H 
ATOM     13  H11 <0> d           0.669   0.206   2.059  0.00  0.00     0.034 H 
ENDROOT
BRANCH   1  14
ATOM     14  C1  <0> d          -0.019   1.526   0.010  0.00  0.00    -0.073 C 
ATOM     15  H3  <0> d           1.004   1.903   0.003  0.00  0.00     0.028 H 
ATOM     16  H4  <0> d          -0.546   1.887  -0.873  0.00  0.00     0.028 H 
ATOM     17  H5  <0> d          -0.529   1.877   0.907  0.00  0.00     0.028 H 
ENDBRANCH   1  14
BRANCH   5  18
ATOM     18  C7  <0> d           0.852  -3.019   1.672  0.00  0.00    -0.073 C 
ATOM     19  H12 <0> d           1.258  -3.148   0.669  0.00  0.00     0.028 H 
ATOM     20  H13 <0> d           1.669  -2.868   2.378  0.00  0.00     0.028 H 
ATOM     21  H14 <0> d           0.289  -3.909   1.953  0.00  0.00     0.028 H 
ENDBRANCH   5  18
TORSDOF 2
