REMARK  1 active torsions:
REMARK  status: ('A' for Active; 'I' for Inactive)
REMARK    1  A    between atoms: C1_1  and  C2_2 
ROOT
ATOM      1  C2  <0> d          -0.015   1.290   0.009  0.00  0.00    -0.087 C 
ATOM      2  C3  <0> d           0.002  -0.004   0.002  0.00  0.00    -0.100 C 
ATOM      3  C4  <0> d           1.256  -0.828  -0.004  0.00  0.00    -0.035 C 
ATOM      4  C5  <0> d           2.450   0.033  -0.424  0.00  0.00     0.034 C 
ATOM      5  H1  <0> d           2.371   0.277  -1.484  0.00  0.00     0.063 H 
ATOM      6  C6  <0> d           2.437   1.320   0.409  0.00  0.00    -0.046 C 
ATOM      7  C7  <0> d           1.216   2.148   0.002  0.00  0.00    -0.044 C 
ATOM      8  C8  <0> d           3.701  -0.703  -0.179  0.00  0.00     0.064 C 
ATOM      9  N1  <0> d           4.667  -1.271   0.011  0.00  0.00    -0.197 NA
ATOM     10  H5  <0> d          -0.945  -0.523   0.001  0.00  0.00     0.077 H 
ATOM     11  H6  <0> d           1.432  -1.226   0.995  0.00  0.00     0.040 H 
ATOM     12  H7  <0> d           1.142  -1.655  -0.706  0.00  0.00     0.040 H 
ATOM     13  H8  <0> d           2.374   1.071   1.468  0.00  0.00     0.035 H 
ATOM     14  H9  <0> d           3.348   1.888   0.220  0.00  0.00     0.035 H 
ATOM     15  H10 <0> d           1.370   2.551  -0.999  0.00  0.00     0.039 H 
ATOM     16  H11 <0> d           1.087   2.971   0.705  0.00  0.00     0.039 H 
ENDROOT
BRANCH   1  17
ATOM     17  C1  <0> d          -1.356   1.979   0.019  0.00  0.00    -0.055 C 
ATOM     18  H2  <0> d          -2.149   1.230   0.019  0.00  0.00     0.033 H 
ATOM     19  H3  <0> d          -1.440   2.597   0.913  0.00  0.00     0.033 H 
ATOM     20  H4  <0> d          -1.448   2.607  -0.867  0.00  0.00     0.033 H 
ENDBRANCH   1  17
TORSDOF 1
