REMARK  4 active torsions:
REMARK  status: ('A' for Active; 'I' for Inactive)
REMARK    1  A    between atoms: C1_1  and  C2_2 
REMARK    2  A    between atoms: C2_2  and  C3_4 
REMARK    3  A    between atoms: C2_2  and  O2_11 
REMARK    4  A    between atoms: C3_4  and  O1_10 
ROOT
ATOM      1  C3  <0> d           2.154   0.032  -1.268  0.00  0.00     0.083 C 
ATOM      2  C4  <0> d           0.718  -0.497  -1.257  0.00  0.00    -0.034 C 
ATOM      3  C5  <0> d           0.002  -0.004   0.002  0.00  0.00    -0.062 C 
ATOM      4  C6  <0> d          -0.019   1.526   0.010  0.00  0.00    -0.065 C 
ATOM      5  C7  <0> d           1.417   2.055  -0.000  0.00  0.00    -0.062 C 
ATOM      6  C8  <0> d           2.133   1.562  -1.259  0.00  0.00    -0.034 C 
ATOM      7  H5  <0> d           0.733  -1.587  -1.263  0.00  0.00     0.037 H 
ATOM      8  H6  <0> d           0.191  -0.136  -2.140  0.00  0.00     0.037 H 
ATOM      9  H7  <0> d           0.529  -0.365   0.885  0.00  0.00     0.033 H 
ATOM     10  H8  <0> d          -1.020  -0.381   0.010  0.00  0.00     0.033 H 
ATOM     11  H9  <0> d          -0.546   1.887  -0.873  0.00  0.00     0.033 H 
ATOM     12  H10 <0> d          -0.529   1.877   0.907  0.00  0.00     0.033 H 
ATOM     13  H11 <0> d           1.402   3.145   0.006  0.00  0.00     0.033 H 
ATOM     14  H12 <0> d           1.944   1.694   0.883  0.00  0.00     0.033 H 
ATOM     15  H13 <0> d           3.155   1.939  -1.267  0.00  0.00     0.037 H 
ATOM     16  H14 <0> d           1.606   1.923  -2.142  0.00  0.00     0.037 H 
ENDROOT
BRANCH   1  17
ATOM     17  C2  <0> d           2.870  -0.461  -2.526  0.00  0.00     0.061 C 
ATOM     18  H1  <0> d           2.343  -0.100  -3.409  0.00  0.00     0.086 H 
BRANCH  17  19
ATOM     19  C1  <0> d           4.305   0.068  -2.537  0.00  0.00    -0.050 C 
ATOM     20  H2  <0> d           4.832  -0.293  -1.654  0.00  0.00     0.031 H 
ATOM     21  H3  <0> d           4.815  -0.283  -3.434  0.00  0.00     0.031 H 
ATOM     22  H4  <0> d           4.290   1.158  -2.531  0.00  0.00     0.031 H 
ENDBRANCH  17  19
BRANCH  17  23
ATOM     23  O2  <0> d           2.889  -1.890  -2.534  0.00  0.00    -0.393 OA
ATOM     24  H16 <0> d           3.343  -2.281  -1.776  0.00  0.00     0.210 HD
ENDBRANCH  17  23
ENDBRANCH   1  17
BRANCH   1  25
ATOM     25  O1  <0> d           2.845  -0.441  -0.110  0.00  0.00    -0.387 OA
ATOM     26  H15 <0> d           3.763  -0.144  -0.051  0.00  0.00     0.210 HD
ENDBRANCH   1  25
TORSDOF 4
