REMARK  0 active torsions:
REMARK  status: ('A' for Active; 'I' for Inactive)
ROOT
ATOM      1  C1  <0> d          -0.016   1.307   0.009  0.00  0.00     0.089 A 
ATOM      2  C2  <0> d           1.207   2.016   0.001  0.00  0.00     0.267 A 
ATOM      3  O1  <0> d           1.225   3.235   0.008  0.00  0.00    -0.266 OA
ATOM      4  N1  <0> d           2.357   1.303  -0.013  0.00  0.00    -0.283 N 
ATOM      5  H1  <0> d           3.217   1.750  -0.019  0.00  0.00     0.172 HD
ATOM      6  C3  <0> d           2.280  -0.054  -0.020  0.00  0.00     0.298 A 
ATOM      7  O2  <0> d           3.411  -0.788  -0.035  0.00  0.00    -0.147 OA
ATOM      8  N2  <0> d           1.108  -0.658  -0.012  0.00  0.00    -0.103 NA
ATOM      9  N3  <0> d           0.002  -0.004   0.002  0.00  0.00    -0.153 NA
ATOM     10  H2  <0> d          -0.955   1.840   0.025  0.00  0.00     0.126 H 
ENDROOT
TORSDOF 0
