REMARK  4 active torsions:
REMARK  status: ('A' for Active; 'I' for Inactive)
REMARK    1  A    between atoms: C1_1  and  C2_2 
REMARK    2  A    between atoms: C5_5  and  C9_9 
REMARK    3  A    between atoms: C7_7  and  C8_8 
REMARK    4  A    between atoms: C9_9  and  O1_10 
ROOT
ATOM      1  C2  <0> d          -2.012   2.463   3.523  0.00  0.00    -0.056 A 
ATOM      2  C3  <0> d          -1.010   3.227   2.953  0.00  0.00    -0.076 A 
ATOM      3  C4  <0> d          -0.360   2.779   1.819  0.00  0.00    -0.074 A 
ATOM      4  C5  <0> d          -0.718   1.572   1.248  0.00  0.00    -0.034 A 
ATOM      5  C6  <0> d          -1.719   0.808   1.818  0.00  0.00    -0.069 A 
ATOM      6  C7  <0> d          -2.366   1.254   2.955  0.00  0.00    -0.056 A 
ATOM      7  H4  <0> d          -0.734   4.173   3.396  0.00  0.00     0.084 H 
ATOM      8  H5  <0> d           0.425   3.374   1.376  0.00  0.00     0.084 H 
ATOM      9  H6  <0> d          -1.996  -0.137   1.374  0.00  0.00     0.085 H 
ENDROOT
BRANCH   4  10
ATOM     10  C9  <0> d          -0.013   1.086   0.008  0.00  0.00     0.040 C 
ATOM     11  H10 <0> d           0.002  -0.004   0.002  0.00  0.00     0.081 H 
ATOM     12  H11 <0> d           1.010   1.463   0.000  0.00  0.00     0.081 H 
BRANCH  10  13
ATOM     13  O1  <0> d          -0.704   1.559  -1.150  0.00  0.00    -0.396 OA
ATOM     14  H12 <0> d          -0.304   1.284  -1.986  0.00  0.00     0.209 HD
ENDBRANCH  10  13
ENDBRANCH   4  10
BRANCH   6  15
ATOM     15  C8  <0> d          -3.458   0.421   3.577  0.00  0.00    -0.051 C 
ATOM     16  H7  <0> d          -3.024  -0.258   4.310  0.00  0.00     0.033 H 
ATOM     17  H8  <0> d          -4.178   1.075   4.068  0.00  0.00     0.033 H 
ATOM     18  H9  <0> d          -3.961  -0.156   2.800  0.00  0.00     0.033 H 
ENDBRANCH   6  15
BRANCH   1  19
ATOM     19  C1  <0> d          -2.718   2.950   4.762  0.00  0.00    -0.051 C 
ATOM     20  H1  <0> d          -2.191   2.588   5.646  0.00  0.00     0.033 H 
ATOM     21  H2  <0> d          -2.732   4.039   4.768  0.00  0.00     0.033 H 
ATOM     22  H3  <0> d          -3.740   2.572   4.770  0.00  0.00     0.033 H 
ENDBRANCH   1  19
TORSDOF 4
