REMARK  3 active torsions:
REMARK  status: ('A' for Active; 'I' for Inactive)
REMARK    1  A    between atoms: C1_1  and  C2_2 
REMARK    2  A    between atoms: C4_5  and  C7_8 
REMARK    3  A    between atoms: C4_5  and  C8_9 
ROOT
ATOM      1  C2  <0> d           1.557   2.804   2.212  0.00  0.00    -0.062 C 
ATOM      2  C3  <0> d           1.152   1.671   2.723  0.00  0.00     0.016 C 
ATOM      3  O1  <0> d          -0.041   1.108   2.429  0.00  0.00    -0.341 OA
ATOM      4  C4  <0> d          -0.729   1.579   1.267  0.00  0.00     0.151 C 
ATOM      5  C5  <0> d          -0.726   3.114   1.296  0.00  0.00    -0.023 C 
ATOM      6  C6  <0> d           0.729   3.590   1.232  0.00  0.00    -0.040 C 
ATOM      7  H4  <0> d           1.804   1.159   3.415  0.00  0.00     0.123 H 
ATOM      8  H5  <0> d          -1.277   3.499   0.438  0.00  0.00     0.038 H 
ATOM      9  H6  <0> d          -1.188   3.465   2.218  0.00  0.00     0.038 H 
ATOM     10  H7  <0> d           0.776   4.650   1.484  0.00  0.00     0.039 H 
ATOM     11  H8  <0> d           1.117   3.439   0.225  0.00  0.00     0.039 H 
ENDROOT
BRANCH   4  12
ATOM     12  C7  <0> d          -0.013   1.086   0.008  0.00  0.00    -0.037 C 
ATOM     13  H9  <0> d           0.002  -0.004   0.002  0.00  0.00     0.032 H 
ATOM     14  H10 <0> d           1.010   1.463   0.000  0.00  0.00     0.032 H 
ATOM     15  H11 <0> d          -0.540   1.447  -0.875  0.00  0.00     0.032 H 
ENDBRANCH   4  12
BRANCH   4  16
ATOM     16  C8  <0> d          -2.148   1.072   1.276  0.00  0.00     0.209 C 
ATOM     17  O2  <0> d          -3.040   1.766   0.848  0.00  0.00    -0.646 OA
ATOM     18  O3  <0> d          -2.421  -0.150   1.759  0.00  0.00    -0.646 OA
ENDBRANCH   4  16
BRANCH   1  19
ATOM     19  C1  <0> d           2.904   3.343   2.620  0.00  0.00    -0.053 C 
ATOM     20  H1  <0> d           3.369   2.659   3.329  0.00  0.00     0.033 H 
ATOM     21  H2  <0> d           3.538   3.440   1.739  0.00  0.00     0.033 H 
ATOM     22  H3  <0> d           2.778   4.320   3.086  0.00  0.00     0.033 H 
ENDBRANCH   1  19
TORSDOF 3
