REMARK  5 active torsions:
REMARK  status: ('A' for Active; 'I' for Inactive)
REMARK    1  A    between atoms: C1_1  and  C2_2 
REMARK    2  A    between atoms: C2_2  and  C3_3 
REMARK    3  A    between atoms: C2_2  and  C4_4 
REMARK    4  A    between atoms: C2_2  and  C5_5 
REMARK    5  A    between atoms: C6_7  and  N3_10 
ROOT
ATOM      1  C2  <0> d           0.002  -0.004   0.002  0.00  0.00     0.014 C 
ENDROOT
BRANCH   1   2
ATOM      2  C1  <0> d          -0.019   1.526   0.010  0.00  0.00    -0.063 C 
ATOM      3  H1  <0> d           1.004   1.903   0.003  0.00  0.00     0.029 H 
ATOM      4  H2  <0> d          -0.546   1.887  -0.873  0.00  0.00     0.029 H 
ATOM      5  H3  <0> d          -0.529   1.877   0.907  0.00  0.00     0.029 H 
ENDBRANCH   1   2
BRANCH   1   6
ATOM      6  C3  <0> d           0.742  -0.511   1.242  0.00  0.00    -0.063 C 
ATOM      7  H4  <0> d           0.232  -0.159   2.138  0.00  0.00     0.029 H 
ATOM      8  H5  <0> d           0.757  -1.601   1.236  0.00  0.00     0.029 H 
ATOM      9  H6  <0> d           1.765  -0.134   1.234  0.00  0.00     0.029 H 
ENDBRANCH   1   6
BRANCH   1  10
ATOM     10  C4  <0> d          -1.433  -0.534   0.013  0.00  0.00    -0.063 C 
ATOM     11  H7  <0> d          -1.960  -0.173  -0.870  0.00  0.00     0.029 H 
ATOM     12  H8  <0> d          -1.419  -1.623   0.007  0.00  0.00     0.029 H 
ATOM     13  H9  <0> d          -1.944  -0.182   0.910  0.00  0.00     0.029 H 
ENDBRANCH   1  10
BRANCH   1  14
ATOM     14  C5  <0> d           0.707  -0.490  -1.238  0.00  0.00     0.165 A 
ATOM     15  N2  <0> d           1.221   0.270  -2.162  0.00  0.00    -0.108 NA
ATOM     16  O1  <0> d           1.783  -0.595  -3.138  0.00  0.00    -0.173 OA
ATOM     17  C6  <0> d           1.548  -1.846  -2.710  0.00  0.00     0.267 A 
ATOM     18  N1  <0> d           0.901  -1.770  -1.568  0.00  0.00    -0.189 NA
BRANCH  17  19
ATOM     19  N3  <0> d           1.919  -3.002  -3.353  0.00  0.00    -0.362 N 
ATOM     20  H10 <0> d           1.703  -3.864  -2.963  0.00  0.00     0.159 HD
ATOM     21  H11 <0> d           2.396  -2.956  -4.196  0.00  0.00     0.159 HD
ENDBRANCH  17  19
ENDBRANCH   1  14
TORSDOF 5
