REMARK  4 active torsions:
REMARK  status: ('A' for Active; 'I' for Inactive)
REMARK    1  A    between atoms: C1_1  and  C2_2 
REMARK    2  A    between atoms: C2_2  and  C3_3 
REMARK    3  A    between atoms: C3_3  and  C4_5 
REMARK    4  A    between atoms: C9_10  and  N1_11 
ROOT
ATOM      1  C4  <0> d           0.687  -1.965   1.610  0.00  0.00     0.036 A 
ATOM      2  C5  <0> d           0.070  -2.883   0.751  0.00  0.00    -0.067 A 
ATOM      3  C6  <0> d           0.422  -4.213   0.801  0.00  0.00    -0.082 A 
ATOM      4  C7  <0> d           1.377  -4.652   1.706  0.00  0.00    -0.081 A 
ATOM      5  C8  <0> d           1.991  -3.763   2.563  0.00  0.00    -0.057 A 
ATOM      6  C9  <0> d           1.655  -2.415   2.526  0.00  0.00     0.039 A 
ATOM      7  H6  <0> d          -0.678  -2.548   0.048  0.00  0.00     0.085 H 
ATOM      8  H7  <0> d          -0.052  -4.919   0.135  0.00  0.00     0.083 H 
ATOM      9  H8  <0> d           1.642  -5.699   1.739  0.00  0.00     0.083 H 
ATOM     10  H9  <0> d           2.733  -4.115   3.264  0.00  0.00     0.086 H 
ENDROOT
BRANCH   1  11
ATOM     11  C3  <0> d           0.321  -0.546   1.560  0.00  0.00     0.161 C 
ATOM     12  O1  <0> d           0.930   0.262   2.230  0.00  0.00    -0.292 OA
BRANCH  11  13
ATOM     13  C2  <0> d          -0.811  -0.090   0.676  0.00  0.00    -0.008 C 
ATOM     14  H4  <0> d          -1.656  -0.547   0.954  0.00  0.00     0.044 H 
ATOM     15  H5  <0> d          -0.586  -0.341  -0.361  0.00  0.00     0.044 H 
BRANCH  13  16
ATOM     16  C1  <0> d          -0.984   1.424   0.808  0.00  0.00    -0.070 C 
ATOM     17  H1  <0> d          -0.063   1.923   0.505  0.00  0.00     0.028 H 
ATOM     18  H2  <0> d          -1.802   1.754   0.168  0.00  0.00     0.028 H 
ATOM     19  H3  <0> d          -1.208   1.675   1.845  0.00  0.00     0.028 H 
ENDBRANCH  13  16
ENDBRANCH  11  13
ENDBRANCH   1  11
BRANCH   6  20
ATOM     20  N1  <0> d           2.270  -1.519   3.387  0.00  0.00    -0.398 N 
ATOM     21  H10 <0> d           1.836  -0.680   3.605  0.00  0.00     0.156 HD
ATOM     22  H11 <0> d           3.135  -1.732   3.772  0.00  0.00     0.156 HD
ENDBRANCH   6  20
TORSDOF 4
