REMARK  0 active torsions:
REMARK  status: ('A' for Active; 'I' for Inactive)
ROOT
ATOM      1  C1  <0> d          -0.019   1.528   0.010  0.00  0.00    -0.053 C 
ATOM      2  C2  <0> d           1.398   2.104   0.000  0.00  0.00    -0.021 C 
ATOM      3  C3  <0> d           2.167   1.527  -1.174  0.00  0.00     0.079 A 
ATOM      4  C4  <0> d           1.754   0.324  -1.756  0.00  0.00     0.097 A 
ATOM      5  S1  <0> d           2.945   0.109  -3.037  0.00  0.00     0.040 SA
ATOM      6  N1  <0> d           3.812   1.456  -2.757  0.00  0.00    -0.110 NA
ATOM      7  N2  <0> d           3.230   2.027  -1.758  0.00  0.00    -0.146 NA
ATOM      8  C5  <0> d           0.615  -0.456  -1.321  0.00  0.00     0.170 C 
ATOM      9  O1  <0> d           0.182  -1.395  -1.956  0.00  0.00    -0.292 OA
ATOM     10  C6  <0> d           0.002  -0.004   0.002  0.00  0.00    -0.004 C 
ATOM     11  H1  <0> d          -0.537   1.873   0.905  0.00  0.00     0.034 H 
ATOM     12  H2  <0> d          -0.554   1.882  -0.870  0.00  0.00     0.034 H 
ATOM     13  H3  <0> d           1.349   3.189  -0.095  0.00  0.00     0.042 H 
ATOM     14  H4  <0> d           1.904   1.843   0.929  0.00  0.00     0.042 H 
ATOM     15  H5  <0> d           0.606  -0.369   0.833  0.00  0.00     0.044 H 
ATOM     16  H6  <0> d          -1.015  -0.387   0.088  0.00  0.00     0.044 H 
ENDROOT
TORSDOF 0
