REMARK  1 active torsions:
REMARK  status: ('A' for Active; 'I' for Inactive)
REMARK    1  A    between atoms: C1_1  and  C2_2 
ROOT
ATOM      1  C2  <0> d           1.190   1.798   0.000  0.00  0.00    -0.044 A 
ATOM      2  C3  <0> d          -0.013   1.076   0.008  0.00  0.00    -0.072 A 
ATOM      3  C4  <0> d          -1.199   1.745   0.017  0.00  0.00    -0.036 A 
ATOM      4  C5  <0> d          -1.195   3.151   0.031  0.00  0.00     0.151 A 
ATOM      5  N1  <0> d          -2.166   4.058   0.046  0.00  0.00    -0.221 NA
ATOM      6  C6  <0> d          -1.641   5.274   0.048  0.00  0.00     0.108 A 
ATOM      7  N2  <0> d          -0.331   5.189   0.034  0.00  0.00    -0.160 NA
ATOM      8  N3  <0> d          -0.007   3.825   0.023  0.00  0.00    -0.225 N 
ATOM      9  C7  <0> d           1.172   3.149   0.008  0.00  0.00     0.012 A 
ATOM     10  H4  <0> d           0.002  -0.004   0.002  0.00  0.00     0.084 H 
ATOM     11  H5  <0> d          -2.132   1.201   0.019  0.00  0.00     0.089 H 
ATOM     12  H6  <0> d          -2.205   6.195   0.058  0.00  0.00     0.149 H 
ATOM     13  H7  <0> d           2.103   3.697   0.002  0.00  0.00     0.115 H 
ENDROOT
BRANCH   1  14
ATOM     14  C1  <0> d           2.506   1.064  -0.017  0.00  0.00    -0.050 C 
ATOM     15  H1  <0> d           2.814   0.893  -1.048  0.00  0.00     0.033 H 
ATOM     16  H2  <0> d           3.262   1.661   0.493  0.00  0.00     0.033 H 
ATOM     17  H3  <0> d           2.395   0.107   0.493  0.00  0.00     0.033 H 
ENDBRANCH   1  14
TORSDOF 1
