REMARK  2 active torsions:
REMARK  status: ('A' for Active; 'I' for Inactive)
REMARK    1  A    between atoms: C4_6  and  C5_7 
REMARK    2  A    between atoms: C5_7  and  O1_8 
ROOT
ATOM      1  C1  <0> d          -0.017   1.385   0.010  0.00  0.00    -0.055 A 
ATOM      2  C2  <0> d           1.198   2.051   0.002  0.00  0.00     0.024 A 
ATOM      3  N1  <0> d           2.324   1.364  -0.013  0.00  0.00    -0.163 NA
ATOM      4  N2  <0> d           2.342   0.080  -0.020  0.00  0.00    -0.162 NA
ATOM      5  C3  <0> d           1.235  -0.637  -0.013  0.00  0.00     0.032 A 
ATOM      6  C4  <0> d           0.002  -0.004   0.002  0.00  0.00    -0.014 A 
ATOM      7  H1  <0> d          -0.950   1.928   0.026  0.00  0.00     0.086 H 
ATOM      8  H2  <0> d           1.224   3.131   0.007  0.00  0.00     0.117 H 
ATOM      9  H3  <0> d           1.289  -1.716  -0.019  0.00  0.00     0.118 H 
ENDROOT
BRANCH   6  10
ATOM     10  C5  <0> d          -1.279  -0.798   0.011  0.00  0.00     0.042 C 
ATOM     11  H4  <0> d          -1.114  -1.749   0.518  0.00  0.00     0.081 H 
ATOM     12  H5  <0> d          -2.051  -0.236   0.535  0.00  0.00     0.081 H 
BRANCH  10  13
ATOM     13  O1  <0> d          -1.697  -1.042  -1.334  0.00  0.00    -0.396 OA
ATOM     14  H6  <0> d          -2.517  -1.549  -1.405  0.00  0.00     0.209 HD
ENDBRANCH  10  13
ENDBRANCH   6  10
TORSDOF 2
