REMARK  1 active torsions:
REMARK  status: ('A' for Active; 'I' for Inactive)
REMARK    1  A    between atoms: C4_4  and  C6_6 
REMARK       I    between atoms: C6_6  and  N1_8 
ROOT
ATOM      1  C1  <0> d          -0.016   1.306   0.009  0.00  0.00    -0.119 C 
ATOM      2  C2  <0> d           0.002  -0.004   0.002  0.00  0.00    -0.088 C 
ATOM      3  C3  <0> d          -1.029  -1.113  -0.001  0.00  0.00    -0.034 C 
ATOM      4  C4  <0> d           0.027  -1.998  -0.682  0.00  0.00     0.030 C 
ATOM      5  C5  <0> d           1.062  -1.085  -0.014  0.00  0.00    -0.034 C 
ATOM      6  H1  <0> d           0.912   1.859   0.003  0.00  0.00     0.067 H 
ATOM      7  H2  <0> d          -0.958   1.833   0.017  0.00  0.00     0.067 H 
ATOM      8  H3  <0> d          -1.305  -1.454   0.997  0.00  0.00     0.040 H 
ATOM      9  H4  <0> d          -1.893  -0.903  -0.631  0.00  0.00     0.040 H 
ATOM     10  H5  <0> d           0.023  -1.930  -1.770  0.00  0.00     0.055 H 
ATOM     11  H6  <0> d           1.913  -0.851  -0.654  0.00  0.00     0.040 H 
ATOM     12  H7  <0> d           1.360  -1.418   0.980  0.00  0.00     0.040 H 
ENDROOT
BRANCH   4  13
ATOM     13  C6  <0> d           0.048  -3.418  -0.178  0.00  0.00     0.224 C 
ATOM     14  O1  <0> d          -0.726  -3.766   0.688  0.00  0.00    -0.273 OA
ATOM     15  N1  <0> d           0.927  -4.302  -0.691  0.00  0.00    -0.352 N 
ATOM     16  C9  <0> d           1.249  -5.721  -0.476  0.00  0.00    -0.001 C 
ATOM     17  C7  <0> d           1.990  -4.271  -1.707  0.00  0.00    -0.001 C 
ATOM     18  C8  <0> d           1.745  -5.770  -1.931  0.00  0.00    -0.035 C 
ATOM     19  H12 <0> d           2.039  -5.880   0.258  0.00  0.00     0.064 H 
ATOM     20  H13 <0> d           0.373  -6.342  -0.294  0.00  0.00     0.064 H 
ATOM     21  H10 <0> d           0.970  -5.992  -2.663  0.00  0.00     0.037 H 
ATOM     22  H11 <0> d           2.655  -6.354  -2.071  0.00  0.00     0.037 H 
ATOM     23  H8  <0> d           1.744  -3.657  -2.574  0.00  0.00     0.064 H 
ATOM     24  H9  <0> d           2.975  -4.048  -1.298  0.00  0.00     0.064 H 
ENDBRANCH   4  13
TORSDOF 1
