REMARK  8 active torsions:
REMARK  status: ('A' for Active; 'I' for Inactive)
REMARK    1  A    between atoms: C1_1  and  C2_2 
REMARK    2  A    between atoms: C2_2  and  C3_3 
REMARK    3  A    between atoms: C3_3  and  C4_4 
REMARK    4  A    between atoms: C4_4  and  C5_5 
REMARK    5  A    between atoms: C5_5  and  N1_6 
REMARK       I    between atoms: N1_6  and  C6_7 
REMARK    6  A    between atoms: C6_7  and  O2_9 
REMARK    7  A    between atoms: O2_9  and  C7_10 
REMARK    8  A    between atoms: C7_10  and  C8_11 
ROOT
ATOM      1  C5  <0> d           2.422   1.185  -0.015  0.00  0.00    -0.003 C 
ATOM      2  H10 <0> d           2.497   0.555   0.871  0.00  0.00     0.064 H 
ATOM      3  H11 <0> d           2.480   0.564  -0.909  0.00  0.00     0.064 H 
ENDROOT
BRANCH   1   4
ATOM      4  C4  <0> d           3.571   2.195  -0.020  0.00  0.00    -0.050 C 
ATOM      5  H8  <0> d           3.497   2.826  -0.906  0.00  0.00     0.035 H 
ATOM      6  H9  <0> d           3.514   2.817   0.874  0.00  0.00     0.035 H 
BRANCH   4   7
ATOM      7  C3  <0> d           4.907   1.448  -0.037  0.00  0.00    -0.064 C 
ATOM      8  H6  <0> d           4.981   0.818   0.849  0.00  0.00     0.033 H 
ATOM      9  H7  <0> d           4.964   0.828  -0.931  0.00  0.00     0.033 H 
BRANCH   7  10
ATOM     10  C2  <0> d           6.056   2.458  -0.043  0.00  0.00    -0.068 C 
ATOM     11  H4  <0> d           5.981   3.089  -0.928  0.00  0.00     0.032 H 
ATOM     12  H5  <0> d           5.998   3.079   0.851  0.00  0.00     0.032 H 
BRANCH  10  13
ATOM     13  C1  <0> d           7.391   1.712  -0.059  0.00  0.00    -0.077 C 
ATOM     14  H1  <0> d           7.449   1.091  -0.953  0.00  0.00     0.027 H 
ATOM     15  H2  <0> d           8.210   2.431  -0.063  0.00  0.00     0.027 H 
ATOM     16  H3  <0> d           7.466   1.081   0.827  0.00  0.00     0.027 H 
ENDBRANCH  10  13
ENDBRANCH   7  10
ENDBRANCH   4   7
ENDBRANCH   1   4
BRANCH   1  17
ATOM     17  N1  <0> d           1.143   1.901   0.001  0.00  0.00    -0.337 N 
ATOM     18  C6  <0> d          -0.014   1.211   0.009  0.00  0.00     0.360 C 
ATOM     19  O1  <0> d           0.002  -0.004   0.002  0.00  0.00    -0.239 OA
ATOM     20  H12 <0> d           1.130   2.870   0.007  0.00  0.00     0.164 HD
BRANCH  18  21
ATOM     21  O2  <0> d          -1.189   1.868   0.018  0.00  0.00    -0.304 OA
BRANCH  21  22
ATOM     22  C7  <0> d          -2.396   1.061   0.019  0.00  0.00     0.027 C 
ATOM     23  H13 <0> d          -2.417   0.437  -0.874  0.00  0.00     0.074 H 
ATOM     24  H14 <0> d          -2.408   0.427   0.906  0.00  0.00     0.074 H 
BRANCH  22  25
ATOM     25  C8  <0> d          -3.622   1.976   0.030  0.00  0.00    -0.056 C 
ATOM     26  H15 <0> d          -3.602   2.601   0.923  0.00  0.00     0.030 H 
ATOM     27  H16 <0> d          -3.610   2.610  -0.857  0.00  0.00     0.030 H 
ATOM     28  H17 <0> d          -4.528   1.370   0.031  0.00  0.00     0.030 H 
ENDBRANCH  22  25
ENDBRANCH  21  22
ENDBRANCH  18  21
ENDBRANCH   1  17
TORSDOF 8
