REMARK  4 active torsions:
REMARK  status: ('A' for Active; 'I' for Inactive)
REMARK    1  A    between atoms: C1_1  and  C2_2 
REMARK    2  A    between atoms: C2_2  and  O1_3 
REMARK    3  A    between atoms: O1_3  and  C3_4 
REMARK       I    between atoms: C3_4  and  N1_6 
REMARK    4  A    between atoms: N1_6  and  C4_7 
ROOT
ATOM      1  O1  <0> d          -1.191   2.001   0.019  0.00  0.00    -0.304 OA
ENDROOT
BRANCH   1   2
ATOM      2  C2  <0> d          -1.135   3.452   0.026  0.00  0.00     0.027 C 
ATOM      3  H4  <0> d          -0.603   3.790   0.915  0.00  0.00     0.074 H 
ATOM      4  H5  <0> d          -0.612   3.800  -0.864  0.00  0.00     0.074 H 
BRANCH   2   5
ATOM      5  C1  <0> d          -2.557   4.017   0.036  0.00  0.00    -0.056 C 
ATOM      6  H1  <0> d          -2.514   5.106   0.042  0.00  0.00     0.030 H 
ATOM      7  H2  <0> d          -3.088   3.679  -0.853  0.00  0.00     0.030 H 
ATOM      8  H3  <0> d          -3.080   3.669   0.927  0.00  0.00     0.030 H 
ENDBRANCH   2   5
ENDBRANCH   1   2
BRANCH   1   9
ATOM      9  C3  <0> d          -0.016   1.344   0.009  0.00  0.00     0.360 C 
ATOM     10  O2  <0> d           1.028   1.965   0.003  0.00  0.00    -0.239 OA
ATOM     11  N1  <0> d           0.002  -0.004   0.002  0.00  0.00    -0.341 N 
ATOM     12  H6  <0> d          -0.831  -0.500   0.007  0.00  0.00     0.164 HD
BRANCH  11  13
ATOM     13  C4  <0> d           1.281  -0.719  -0.014  0.00  0.00    -0.016 C 
ATOM     14  H7  <0> d           1.857  -0.453   0.872  0.00  0.00     0.056 H 
ATOM     15  H8  <0> d           1.096  -1.794  -0.018  0.00  0.00     0.056 H 
ATOM     16  H9  <0> d           1.840  -0.443  -0.908  0.00  0.00     0.056 H 
ENDBRANCH  11  13
ENDBRANCH   1   9
TORSDOF 4
