REMARK  0 active torsions:
REMARK  status: ('A' for Active; 'I' for Inactive)
ROOT
ATOM      1  C1  <0> d          -0.017   1.376   0.010  0.00  0.00    -0.082 A 
ATOM      2  C2  <0> d           1.173   2.081   0.002  0.00  0.00    -0.082 A 
ATOM      3  C3  <0> d           2.374   1.401  -0.013  0.00  0.00    -0.076 A 
ATOM      4  C4  <0> d           2.394   0.014  -0.021  0.00  0.00    -0.048 A 
ATOM      5  C5  <0> d           1.208  -0.688  -0.013  0.00  0.00    -0.048 A 
ATOM      6  C6  <0> d           0.002  -0.004   0.002  0.00  0.00    -0.076 A 
ATOM      7  C7  <0> d           1.188  -2.191  -0.021  0.00  0.00    -0.026 C 
ATOM      8  C8  <0> d           2.477  -2.755  -0.530  0.00  0.00    -0.102 C 
ATOM      9  C9  <0> d           3.592  -2.094  -0.537  0.00  0.00    -0.102 C 
ATOM     10  C10 <0> d           3.722  -0.690  -0.038  0.00  0.00    -0.026 C 
ATOM     11  H1  <0> d          -0.959   1.905   0.026  0.00  0.00     0.083 H 
ATOM     12  H2  <0> d           1.162   3.161   0.008  0.00  0.00     0.083 H 
ATOM     13  H3  <0> d           3.303   1.952  -0.019  0.00  0.00     0.084 H 
ATOM     14  H4  <0> d          -0.927  -0.554   0.008  0.00  0.00     0.084 H 
ATOM     15  H5  <0> d           1.018  -2.550   0.995  0.00  0.00     0.046 H 
ATOM     16  H6  <0> d           0.373  -2.533  -0.659  0.00  0.00     0.046 H 
ATOM     17  H7  <0> d           2.479  -3.765  -0.910  0.00  0.00     0.076 H 
ATOM     18  H8  <0> d           4.473  -2.583  -0.924  0.00  0.00     0.076 H 
ATOM     19  H9  <0> d           4.407  -0.144  -0.686  0.00  0.00     0.046 H 
ATOM     20  H10 <0> d           4.129  -0.708   0.973  0.00  0.00     0.046 H 
ENDROOT
TORSDOF 0
