REMARK  0 active torsions:
REMARK  status: ('A' for Active; 'I' for Inactive)
ROOT
ATOM      1  C1  <0> d          -1.252   2.977   0.029  0.00  0.00     0.017 A 
ATOM      2  C2  <0> d          -0.047   3.707   0.021  0.00  0.00     0.179 A 
ATOM      3  O1  <0> d          -0.060   4.930   0.028  0.00  0.00    -0.288 OA
ATOM      4  C3  <0> d           1.178   2.999   0.006  0.00  0.00     0.003 A 
ATOM      5  C4  <0> d           1.165   1.649  -0.000  0.00  0.00     0.109 A 
ATOM      6  N1  <0> d          -0.011   0.966   0.007  0.00  0.00    -0.325 N 
ATOM      7  H1  <0> d          -0.009  -0.134   0.006  0.00  0.00     0.169 HD
ATOM      8  C5  <0> d          -1.206   1.617   0.017  0.00  0.00     0.183 A 
ATOM      9  O2  <0> d          -2.356   0.906   0.018  0.00  0.00    -0.172 OA
ATOM     10 Cl1  <0> d           2.665   0.775  -0.019  0.00  0.00    -0.064 Cl
ATOM     11  H2  <0> d          -2.128   3.458   0.043  0.00  0.00     0.096 H 
ATOM     12  H3  <0> d           2.049   3.491   0.001  0.00  0.00     0.094 H 
ENDROOT
TORSDOF 0
