REMARK  2 active torsions:
REMARK  status: ('A' for Active; 'I' for Inactive)
REMARK    1  A    between atoms: C1_1  and  C2_2 
REMARK    2  A    between atoms: C5_5  and  O1_12 
ROOT
ATOM      1  C2  <0> d           0.002  -0.004   0.002  0.00  0.00    -0.049 A 
ATOM      2  C3  <0> d           0.006  -0.681  -1.180  0.00  0.00    -0.074 A 
ATOM      3  C4  <0> d           0.025  -2.073  -1.207  0.00  0.00    -0.048 A 
ATOM      4  C5  <0> d           0.040  -2.799  -0.050  0.00  0.00     0.095 A 
ATOM      5  C6  <0> d           0.036  -2.132   1.192  0.00  0.00     0.100 A 
ATOM      6  C7  <0> d           0.023  -0.716   1.212  0.00  0.00     0.001 A 
ATOM      7  C8  <0> d           0.026  -0.051   2.453  0.00  0.00    -0.069 A 
ATOM      8  C9  <0> d           0.047  -0.807   3.590  0.00  0.00    -0.065 A 
ATOM      9  C10 <0> d           0.065  -2.198   3.499  0.00  0.00     0.003 A 
ATOM     10  N1  <0> d           0.051  -2.813   2.342  0.00  0.00    -0.257 NA
ATOM     11  H4  <0> d          -0.006  -0.131  -2.109  0.00  0.00     0.084 H 
ATOM     12  H5  <0> d           0.027  -2.586  -2.157  0.00  0.00     0.087 H 
ATOM     13  H6  <0> d           0.012   1.028   2.505  0.00  0.00     0.085 H 
ATOM     14  H7  <0> d           0.050  -0.329   4.558  0.00  0.00     0.085 H 
ATOM     15  H8  <0> d           0.082  -2.784   4.406  0.00  0.00     0.114 H 
ENDROOT
BRANCH   1  16
ATOM     16  C1  <0> d          -0.018   1.503   0.010  0.00  0.00    -0.050 C 
ATOM     17  H1  <0> d           1.004   1.880   0.003  0.00  0.00     0.033 H 
ATOM     18  H2  <0> d          -0.545   1.864  -0.873  0.00  0.00     0.033 H 
ATOM     19  H3  <0> d          -0.529   1.854   0.907  0.00  0.00     0.033 H 
ENDBRANCH   1  16
BRANCH   4  20
ATOM     20  O1  <0> d           0.058  -4.157  -0.096  0.00  0.00    -0.358 OA
ATOM     21  H9  <0> d           0.946  -4.538  -0.114  0.00  0.00     0.217 HD
ENDBRANCH   4  20
TORSDOF 2
