REMARK  3 active torsions:
REMARK  status: ('A' for Active; 'I' for Inactive)
REMARK    1  A    between atoms: C1_1  and  O1_2 
REMARK    2  A    between atoms: O1_2  and  C2_3 
REMARK    3  A    between atoms: C3_4  and  N3_8 
ROOT
ATOM      1  C2  <0> d           0.625  -0.618   1.040  0.00  0.00     0.241 A 
ATOM      2  C3  <0> d           0.759  -2.066   1.226  0.00  0.00     0.206 A 
ATOM      3  N1  <0> d           1.415  -2.278   2.332  0.00  0.00    -0.083 NA
ATOM      4  O2  <0> d           1.729  -1.018   2.900  0.00  0.00    -0.102 OA
ATOM      5  N2  <0> d           1.210  -0.020   2.038  0.00  0.00    -0.075 NA
ENDROOT
BRANCH   1   6
ATOM      6  O1  <0> d           0.002  -0.004   0.002  0.00  0.00    -0.335 OA
BRANCH   6   7
ATOM      7  C1  <0> d          -0.017   1.425   0.010  0.00  0.00     0.012 C 
ATOM      8  H1  <0> d           1.005   1.802   0.002  0.00  0.00     0.067 H 
ATOM      9  H2  <0> d          -0.544   1.786  -0.873  0.00  0.00     0.067 H 
ATOM     10  H3  <0> d          -0.527   1.776   0.907  0.00  0.00     0.067 H 
ENDBRANCH   6   7
ENDBRANCH   1   6
BRANCH   2  11
ATOM     11  N3  <0> d           0.270  -3.045   0.368  0.00  0.00    -0.379 N 
ATOM     12  H4  <0> d          -0.208  -2.790  -0.437  0.00  0.00     0.158 HD
ATOM     13  H5  <0> d           0.407  -3.983   0.574  0.00  0.00     0.158 HD
ENDBRANCH   2  11
TORSDOF 3
