REMARK  2 active torsions:
REMARK  status: ('A' for Active; 'I' for Inactive)
REMARK    1  A    between atoms: C4_5  and  N3_10 
REMARK    2  A    between atoms: C5_6  and  C6_7 
REMARK       I    between atoms: C6_7  and  N2_9 
ROOT
ATOM      1  C1  <0> d           2.328   1.436  -0.001  0.00  0.00    -0.049 A 
ATOM      2  C2  <0> d           2.370   0.057   0.000  0.00  0.00     0.003 A 
ATOM      3  N1  <0> d           1.263  -0.659  -0.004  0.00  0.00    -0.271 NA
ATOM      4  C3  <0> d           0.069  -0.105  -0.009  0.00  0.00     0.028 A 
ATOM      5  C4  <0> d          -0.072   1.280  -0.010  0.00  0.00     0.059 A 
ATOM      6  C5  <0> d           1.084   2.079  -0.006  0.00  0.00     0.060 A 
ATOM      7  H1  <0> d           3.241   2.012   0.003  0.00  0.00     0.087 H 
ATOM      8  H2  <0> d           3.327  -0.444   0.005  0.00  0.00     0.114 H 
ATOM      9  H3  <0> d          -0.810  -0.731  -0.013  0.00  0.00     0.118 H 
ENDROOT
BRANCH   6  10
ATOM     10  C6  <0> d           0.990   3.553  -0.006  0.00  0.00     0.251 C 
ATOM     11  O1  <0> d          -0.094   4.093   0.095  0.00  0.00    -0.268 OA
ATOM     12  N2  <0> d           2.107   4.300  -0.120  0.00  0.00    -0.366 N 
ATOM     13  H4  <0> d           2.037   5.397  -0.121  0.00  0.00     0.159 HD
ATOM     14  H5  <0> d           3.088   3.811  -0.212  0.00  0.00     0.159 HD
ENDBRANCH   6  10
BRANCH   5  15
ATOM     15  N3  <0> d          -1.334   1.861  -0.021  0.00  0.00    -0.397 N 
ATOM     16  H6  <0> d          -1.434   2.957  -0.022  0.00  0.00     0.156 HD
ATOM     17  H7  <0> d          -2.232   1.227  -0.029  0.00  0.00     0.156 HD
ENDBRANCH   5  15
TORSDOF 2
