REMARK  5 active torsions:
REMARK  status: ('A' for Active; 'I' for Inactive)
REMARK    1  A    between atoms: C1_1  and  C2_2 
REMARK    2  A    between atoms: C2_2  and  O1_3 
REMARK    3  A    between atoms: O1_3  and  C3_4 
REMARK    4  A    between atoms: C3_4  and  C4_6 
REMARK    5  A    between atoms: C7_9  and  C8_11 
ROOT
ATOM      1  C4  <0> d           0.002  -0.004   0.002  0.00  0.00     0.150 A 
ATOM      2  C5  <0> d           1.307  -0.409  -0.013  0.00  0.00    -0.042 A 
ATOM      3  C6  <0> d           2.090   0.755  -0.014  0.00  0.00    -0.052 A 
ATOM      4  C7  <0> d           1.241   1.807  -0.000  0.00  0.00     0.050 A 
ATOM      5  O3  <0> d          -0.016   1.345   0.009  0.00  0.00    -0.309 OA
ATOM      6  H6  <0> d           1.666  -1.427  -0.021  0.00  0.00     0.088 H 
ATOM      7  H7  <0> d           3.169   0.803  -0.024  0.00  0.00     0.087 H 
ENDROOT
BRANCH   1   8
ATOM      8  C3  <0> d          -1.171  -0.881   0.009  0.00  0.00     0.317 C 
ATOM      9  O2  <0> d          -1.028  -2.089   0.002  0.00  0.00    -0.257 OA
BRANCH   8  10
ATOM     10  O1  <0> d          -2.411  -0.349   0.024  0.00  0.00    -0.316 OA
BRANCH  10  11
ATOM     11  C2  <0> d          -3.527  -1.278   0.030  0.00  0.00     0.026 C 
ATOM     12  H4  <0> d          -3.468  -1.916   0.924  0.00  0.00     0.074 H 
ATOM     13  H5  <0> d          -3.485  -1.907  -0.872  0.00  0.00     0.074 H 
BRANCH  11  14
ATOM     14  C1  <0> d          -4.841  -0.496   0.046  0.00  0.00    -0.056 C 
ATOM     15  H1  <0> d          -5.687  -1.199   0.051  0.00  0.00     0.030 H 
ATOM     16  H2  <0> d          -4.900   0.142  -0.848  0.00  0.00     0.030 H 
ATOM     17  H3  <0> d          -4.883   0.133   0.948  0.00  0.00     0.030 H 
ENDBRANCH  11  14
ENDBRANCH  10  11
ENDBRANCH   8  10
ENDBRANCH   1   8
BRANCH   4  18
ATOM     18  C8  <0> d           1.642   3.259   0.003  0.00  0.00    -0.031 C 
ATOM     19  H8  <0> d           0.740   3.889   0.015  0.00  0.00     0.036 H 
ATOM     20  H9  <0> d           2.231   3.479  -0.899  0.00  0.00     0.036 H 
ATOM     21  H10 <0> d           2.249   3.470   0.897  0.00  0.00     0.036 H 
ENDBRANCH   4  18
TORSDOF 5
