REMARK  2 active torsions:
REMARK  status: ('A' for Active; 'I' for Inactive)
REMARK    1  A    between atoms: C1_1  and  C2_2 
REMARK    2  A    between atoms: C6_7  and  C7_8 
ROOT
ATOM      1  C2  <0> d           1.169   1.802   0.001  0.00  0.00    -0.038 A 
ATOM      2  C3  <0> d          -0.013   1.076   0.008  0.00  0.00    -0.072 A 
ATOM      3  C4  <0> d          -1.212   1.769   0.017  0.00  0.00    -0.043 A 
ATOM      4  C5  <0> d          -1.192   3.152   0.030  0.00  0.00     0.126 A 
ATOM      5  N1  <0> d          -0.048   3.810   0.022  0.00  0.00    -0.241 NA
ATOM      6  C6  <0> d           1.112   3.182   0.008  0.00  0.00     0.038 A 
ATOM      7 Cl1  <0> d          -2.688   4.033   0.049  0.00  0.00    -0.062 Cl
ATOM      8  H4  <0> d           0.002  -0.004   0.002  0.00  0.00     0.084 H 
ATOM      9  H5  <0> d          -2.152   1.236   0.019  0.00  0.00     0.088 H 
ENDROOT
BRANCH   1  10
ATOM     10  C1  <0> d           2.499   1.093  -0.016  0.00  0.00    -0.049 C 
ATOM     11  H1  <0> d           2.336   0.006  -0.020  0.00  0.00     0.033 H 
ATOM     12  H2  <0> d           3.075   1.374   0.878  0.00  0.00     0.033 H 
ATOM     13  H3  <0> d           3.058   1.383  -0.918  0.00  0.00     0.033 H 
ENDBRANCH   1  10
BRANCH   6  14
ATOM     14  C7  <0> d           2.391   3.980   0.000  0.00  0.00    -0.035 C 
ATOM     15  H6  <0> d           2.153   5.054   0.008  0.00  0.00     0.035 H 
ATOM     16  H7  <0> d           2.968   3.739  -0.905  0.00  0.00     0.035 H 
ATOM     17  H8  <0> d           2.985   3.730   0.891  0.00  0.00     0.035 H 
ENDBRANCH   6  14
TORSDOF 2
