REMARK  1 active torsions:
REMARK  status: ('A' for Active; 'I' for Inactive)
REMARK    1  A    between atoms: C2_2  and  C4_7 
ROOT
ATOM      1  C1  <0> d          -1.636  -1.566   1.274  0.00  0.00    -0.001 A 
ATOM      2  C2  <0> d          -1.293  -0.775   0.010  0.00  0.00     0.083 A 
ATOM      3  H1  <0> d          -2.117  -0.316  -0.535  0.00  0.00     0.064 H 
ATOM      4  C3  <0> d          -1.205  -2.303   0.003  0.00  0.00     0.193 A 
ATOM      5  F1  <0> d           0.071  -2.877  -0.010  0.00  0.00    -0.225 F 
ATOM      6 Cl1  <0> d          -2.473  -3.205  -0.907  0.00  0.00    -0.082 Cl
ATOM      7  H2  <0> d          -0.925  -1.529   2.100  0.00  0.00     0.041 H 
ATOM      8  H3  <0> d          -2.686  -1.627   1.560  0.00  0.00     0.041 H 
ENDROOT
BRANCH   2   9
ATOM      9  C4  <0> d           0.002  -0.004   0.002  0.00  0.00     0.181 C 
ATOM     10  O1  <0> d           1.056  -0.594  -0.011  0.00  0.00    -0.648 OA
ATOM     11  O2  <0> d          -0.016   1.338   0.009  0.00  0.00    -0.648 OA
ENDBRANCH   2   9
TORSDOF 1
