REMARK  7 active torsions:
REMARK  status: ('A' for Active; 'I' for Inactive)
REMARK    1  A    between atoms: C1_1  and  C2_2 
REMARK    2  A    between atoms: C2_2  and  C3_3 
REMARK    3  A    between atoms: C3_3  and  C4_4 
REMARK    4  A    between atoms: C4_4  and  C5_5 
REMARK    5  A    between atoms: C5_5  and  C6_7 
REMARK    6  A    between atoms: C6_7  and  O2_8 
REMARK    7  A    between atoms: O2_8  and  C7_9 
ROOT
ATOM      1  C4  <0> d          -1.667  -2.011   0.007  0.00  0.00    -0.007 C 
ATOM      2  H8  <0> d          -1.267  -2.415  -0.815  0.00  0.00     0.044 H 
ATOM      3  H9  <0> d          -1.214  -2.461   0.890  0.00  0.00     0.044 H 
ENDROOT
BRANCH   1   4
ATOM      4  C3  <0> d          -3.175  -2.269   0.020  0.00  0.00    -0.059 C 
ATOM      5  H6  <0> d          -3.611  -1.829   0.917  0.00  0.00     0.033 H 
ATOM      6  H7  <0> d          -3.628  -1.819  -0.863  0.00  0.00     0.033 H 
BRANCH   4   7
ATOM      7  C2  <0> d          -3.434  -3.777   0.015  0.00  0.00    -0.068 C 
ATOM      8  H4  <0> d          -2.998  -4.218  -0.882  0.00  0.00     0.032 H 
ATOM      9  H5  <0> d          -2.981  -4.227   0.898  0.00  0.00     0.032 H 
BRANCH   7  10
ATOM     10  C1  <0> d          -4.942  -4.035   0.028  0.00  0.00    -0.077 C 
ATOM     11  H1  <0> d          -5.127  -5.110   0.024  0.00  0.00     0.027 H 
ATOM     12  H2  <0> d          -5.378  -3.595   0.924  0.00  0.00     0.027 H 
ATOM     13  H3  <0> d          -5.395  -3.586  -0.856  0.00  0.00     0.027 H 
ENDBRANCH   7  10
ENDBRANCH   4   7
ENDBRANCH   1   4
BRANCH   1  14
ATOM     14  C5  <0> d          -1.412  -0.526   0.013  0.00  0.00     0.150 C 
ATOM     15  O1  <0> d          -2.340   0.246   0.026  0.00  0.00    -0.296 OA
BRANCH  14  16
ATOM     16  C6  <0> d           0.002  -0.004   0.002  0.00  0.00     0.073 C 
ATOM     17  H10 <0> d           0.470  -0.327  -0.821  0.00  0.00     0.086 H 
ATOM     18  H11 <0> d           0.529  -0.365   0.885  0.00  0.00     0.086 H 
BRANCH  16  19
ATOM     19  O2  <0> d          -0.017   1.425   0.010  0.00  0.00    -0.389 OA
BRANCH  19  20
ATOM     20  C7  <0> d           1.280   2.024   0.001  0.00  0.00     0.004 C 
ATOM     21  H12 <0> d           1.834   1.705   0.884  0.00  0.00     0.066 H 
ATOM     22  H13 <0> d           1.817   1.714  -0.896  0.00  0.00     0.066 H 
ATOM     23  H14 <0> d           1.179   3.109   0.007  0.00  0.00     0.066 H 
ENDBRANCH  19  20
ENDBRANCH  16  19
ENDBRANCH  14  16
ENDBRANCH   1  14
TORSDOF 7
