REMARK  2 active torsions:
REMARK  status: ('A' for Active; 'I' for Inactive)
REMARK    1  A    between atoms: C1_1  and  N1_2 
REMARK       I    between atoms: N1_2  and  C2_3 
REMARK       I    between atoms: C2_3  and  N2_5 
REMARK    2  A    between atoms: N2_5  and  C3_6 
ROOT
ATOM      1  N1  <0> d           3.336  -3.379  -0.050  0.00  0.00    -0.347 N 
ATOM      2  C2  <0> d           2.949  -2.088  -0.038  0.00  0.00     0.334 C 
ATOM      3  O1  <0> d           3.783  -1.204  -0.041  0.00  0.00    -0.247 OA
ATOM      4  N2  <0> d           1.637  -1.778  -0.024  0.00  0.00    -0.135 N 
ATOM      5  H4  <0> d           2.670  -4.085  -0.047  0.00  0.00     0.163 HD
ATOM      6  H5  <0> d           0.972  -2.483  -0.021  0.00  0.00     0.189 HD
ENDROOT
BRANCH   1   7
ATOM      7  C1  <0> d           4.761  -3.716  -0.066  0.00  0.00    -0.017 C 
ATOM      8  H1  <0> d           5.224  -3.295  -0.958  0.00  0.00     0.056 H 
ATOM      9  H2  <0> d           5.242  -3.305   0.822  0.00  0.00     0.056 H 
ATOM     10  H3  <0> d           4.878  -4.800  -0.073  0.00  0.00     0.056 H 
ENDBRANCH   1   7
BRANCH   4  11
ATOM     11  C3  <0> d           1.239  -0.448  -0.012  0.00  0.00     0.770 A 
ATOM     12  N5  <0> d           0.002  -0.004   0.002  0.00  0.00     0.067 NA
ATOM     13  N4  <0> d          -0.015   1.280   0.009  0.00  0.00    -0.006 NA
ATOM     14  N3  <0> d           1.188   1.744   0.000  0.00  0.00    -0.006 NA
ATOM     15  N6  <0> d           2.023   0.634  -0.014  0.00  0.00     0.067 NA
ENDBRANCH   4  11
TORSDOF 2
