REMARK  4 active torsions:
REMARK  status: ('A' for Active; 'I' for Inactive)
REMARK    1  A    between atoms: C1_1  and  C2_2 
REMARK    2  A    between atoms: C2_2  and  O1_3 
REMARK    3  A    between atoms: O1_3  and  C3_4 
REMARK    4  A    between atoms: C3_4  and  C4_6 
ROOT
ATOM      1  O1  <0> d           3.522   2.389  -0.019  0.00  0.00    -0.317 OA
ENDROOT
BRANCH   1   2
ATOM      2  C2  <0> d           4.895   1.918  -0.034  0.00  0.00     0.026 C 
ATOM      3  H4  <0> d           5.081   1.309   0.851  0.00  0.00     0.074 H 
ATOM      4  H5  <0> d           5.064   1.319  -0.929  0.00  0.00     0.074 H 
BRANCH   2   5
ATOM      5  C1  <0> d           5.846   3.117  -0.037  0.00  0.00    -0.056 C 
ATOM      6  H1  <0> d           5.660   3.725  -0.922  0.00  0.00     0.030 H 
ATOM      7  H2  <0> d           5.678   3.716   0.858  0.00  0.00     0.030 H 
ATOM      8  H3  <0> d           6.877   2.763  -0.049  0.00  0.00     0.030 H 
ENDBRANCH   2   5
ENDBRANCH   1   2
BRANCH   1   9
ATOM      9  C3  <0> d           2.553   1.452  -0.015  0.00  0.00     0.303 C 
ATOM     10  O2  <0> d           2.848   0.273  -0.024  0.00  0.00    -0.259 OA
BRANCH   9  11
ATOM     11  C4  <0> d           1.140   1.855   0.001  0.00  0.00     0.119 A 
ATOM     12  S1  <0> d           0.413   3.485   0.016  0.00  0.00     0.042 SA
ATOM     13  N2  <0> d          -1.110   3.064   0.028  0.00  0.00    -0.110 NA
ATOM     14  N1  <0> d          -1.118   1.781   0.017  0.00  0.00    -0.153 NA
ATOM     15  C5  <0> d          -0.013   1.076   0.008  0.00  0.00     0.048 A 
ATOM     16  H6  <0> d           0.002  -0.004   0.002  0.00  0.00     0.120 H 
ENDBRANCH   9  11
ENDBRANCH   1   9
TORSDOF 4
