REMARK  6 active torsions:
REMARK  status: ('A' for Active; 'I' for Inactive)
REMARK    1  A    between atoms: C1_1  and  C2_2 
REMARK    2  A    between atoms: C5_6  and  C9_10 
REMARK    3  A    between atoms: C5_6  and  C10_11 
REMARK    4  A    between atoms: C6_7  and  C7_8 
REMARK    5  A    between atoms: C6_7  and  C8_9 
REMARK    6  A    between atoms: C10_11  and  O1_12 
ROOT
ATOM      1  C2  <0> d          -0.825   1.630  -1.193  0.00  0.00    -0.050 C 
ATOM      2  H1  <0> d          -1.692   0.998  -1.385  0.00  0.00     0.040 H 
ATOM      3  C3  <0> d          -0.013   1.086   0.008  0.00  0.00    -0.060 C 
ATOM      4  C4  <0> d          -0.802   1.617   1.230  0.00  0.00    -0.055 C 
ATOM      5  C5  <0> d          -1.260   3.028   0.798  0.00  0.00    -0.015 C 
ATOM      6  C6  <0> d          -1.272   3.036  -0.741  0.00  0.00    -0.035 C 
ATOM      7  H5  <0> d           0.002  -0.004   0.002  0.00  0.00     0.033 H 
ATOM      8  H6  <0> d           1.002   1.484   0.001  0.00  0.00     0.033 H 
ATOM      9  H7  <0> d          -1.665   0.983   1.432  0.00  0.00     0.034 H 
ATOM     10  H8  <0> d          -0.156   1.674   2.106  0.00  0.00     0.034 H 
ENDROOT
BRANCH   5  11
ATOM     11  C9  <0> d          -2.664   3.313   1.334  0.00  0.00    -0.066 C 
ATOM     12  H15 <0> d          -3.352   2.547   0.977  0.00  0.00     0.028 H 
ATOM     13  H16 <0> d          -2.645   3.305   2.424  0.00  0.00     0.028 H 
ATOM     14  H17 <0> d          -2.995   4.291   0.984  0.00  0.00     0.028 H 
ENDBRANCH   5  11
BRANCH   5  15
ATOM     15  C10 <0> d          -0.277   4.077   1.320  0.00  0.00     0.024 C 
ATOM     16  H18 <0> d           0.725   3.852   0.952  0.00  0.00     0.075 H 
ATOM     17  H19 <0> d          -0.578   5.064   0.969  0.00  0.00     0.075 H 
BRANCH  15  18
ATOM     18  O1  <0> d          -0.275   4.059   2.749  0.00  0.00    -0.400 OA
ATOM     19  H20 <0> d           0.327   4.701   3.149  0.00  0.00     0.209 HD
ENDBRANCH  15  18
ENDBRANCH   5  15
BRANCH   6  20
ATOM     20  C7  <0> d          -0.296   4.090  -1.267  0.00  0.00    -0.068 C 
ATOM     21  H9  <0> d          -0.293   4.072  -2.357  0.00  0.00     0.028 H 
ATOM     22  H10 <0> d          -0.605   5.077  -0.921  0.00  0.00     0.028 H 
ATOM     23  H11 <0> d           0.707   3.874  -0.898  0.00  0.00     0.028 H 
ENDBRANCH   6  20
BRANCH   6  24
ATOM     24  C8  <0> d          -2.684   3.327  -1.253  0.00  0.00    -0.068 C 
ATOM     25  H12 <0> d          -3.371   2.571  -0.873  0.00  0.00     0.028 H 
ATOM     26  H13 <0> d          -3.001   4.311  -0.907  0.00  0.00     0.028 H 
ATOM     27  H14 <0> d          -2.687   3.307  -2.342  0.00  0.00     0.028 H 
ENDBRANCH   6  24
BRANCH   1  28
ATOM     28  C1  <0> d           0.058   1.724  -2.439  0.00  0.00    -0.072 C 
ATOM     29  H2  <0> d           0.418   0.730  -2.704  0.00  0.00     0.028 H 
ATOM     30  H3  <0> d          -0.523   2.132  -3.266  0.00  0.00     0.028 H 
ATOM     31  H4  <0> d           0.907   2.375  -2.234  0.00  0.00     0.028 H 
ENDBRANCH   1  28
TORSDOF 6
