REMARK  2 active torsions:
REMARK  status: ('A' for Active; 'I' for Inactive)
REMARK    1  A    between atoms: C1_1  and  C2_2 
REMARK    2  A    between atoms: C7_8  and  N2_12 
ROOT
ATOM      1  C2  <0> d           0.002  -0.004   0.002  0.00  0.00     0.010 A 
ATOM      2  H1  <0> d           0.521  -0.370  -0.884  0.00  0.00     0.072 H 
ATOM      3  C3  <0> d          -1.432  -0.557   0.047  0.00  0.00    -0.021 A 
ATOM      4  C4  <0> d          -1.489  -1.361   1.327  0.00  0.00    -0.030 A 
ATOM      5  C5  <0> d          -2.520  -2.086   1.895  0.00  0.00    -0.072 A 
ATOM      6  C6  <0> d          -2.328  -2.747   3.092  0.00  0.00    -0.057 A 
ATOM      7  C7  <0> d          -1.093  -2.682   3.726  0.00  0.00     0.027 A 
ATOM      8  C8  <0> d          -0.059  -1.957   3.158  0.00  0.00    -0.032 A 
ATOM      9  C9  <0> d          -0.251  -1.288   1.948  0.00  0.00     0.036 A 
ATOM     10  N1  <0> d           0.650  -0.510   1.215  0.00  0.00    -0.385 N 
ATOM     11  H5  <0> d          -2.153   0.259   0.078  0.00  0.00     0.043 H 
ATOM     12  H6  <0> d          -1.619  -1.199  -0.814  0.00  0.00     0.043 H 
ATOM     13  H7  <0> d          -3.479  -2.135   1.401  0.00  0.00     0.084 H 
ATOM     14  H8  <0> d          -3.135  -3.312   3.534  0.00  0.00     0.086 H 
ATOM     15  H9  <0> d           0.900  -1.908   3.653  0.00  0.00     0.090 H 
ATOM     16  H10 <0> d           1.568  -0.331   1.471  0.00  0.00     0.160 HD
ENDROOT
BRANCH   1  17
ATOM     17  C1  <0> d          -0.019   1.526   0.010  0.00  0.00    -0.057 C 
ATOM     18  H2  <0> d           1.004   1.903   0.003  0.00  0.00     0.030 H 
ATOM     19  H3  <0> d          -0.546   1.887  -0.873  0.00  0.00     0.030 H 
ATOM     20  H4  <0> d          -0.529   1.877   0.907  0.00  0.00     0.030 H 
ENDBRANCH   1  17
BRANCH   7  21
ATOM     21  N2  <0> d          -0.894  -3.349   4.937  0.00  0.00    -0.399 N 
ATOM     22  H11 <0> d          -1.618  -3.857   5.335  0.00  0.00     0.156 HD
ATOM     23  H12 <0> d          -0.032  -3.304   5.380  0.00  0.00     0.156 HD
ENDBRANCH   7  21
TORSDOF 2
