REMARK  1 active torsions:
REMARK  status: ('A' for Active; 'I' for Inactive)
REMARK    1  A    between atoms: C1_1  and  C2_2 
ROOT
ATOM      1  C2  <0> d          -2.305   4.094   0.045  0.00  0.00     0.052 A 
ATOM      2  C3  <0> d          -1.205   3.150   0.030  0.00  0.00     0.026 A 
ATOM      3  C4  <0> d          -1.208   1.736   0.017  0.00  0.00    -0.067 A 
ATOM      4  C5  <0> d          -0.013   1.076   0.008  0.00  0.00    -0.065 A 
ATOM      5  C6  <0> d           1.183   1.780   0.000  0.00  0.00     0.004 A 
ATOM      6  N1  <0> d           1.186   3.099   0.007  0.00  0.00    -0.251 NA
ATOM      7  C7  <0> d           0.063   3.780   0.021  0.00  0.00     0.127 A 
ATOM      8  S1  <0> d          -0.361   5.502   0.033  0.00  0.00     0.032 SA
ATOM      9  N2  <0> d          -2.064   5.369   0.049  0.00  0.00    -0.214 NA
ATOM     10  H4  <0> d          -2.138   1.188   0.018  0.00  0.00     0.085 H 
ATOM     11  H5  <0> d           0.002  -0.004   0.002  0.00  0.00     0.085 H 
ATOM     12  H6  <0> d           2.120   1.243  -0.011  0.00  0.00     0.114 H 
ENDROOT
BRANCH   1  13
ATOM     13  C1  <0> d          -3.727   3.595   0.057  0.00  0.00    -0.034 C 
ATOM     14  H1  <0> d          -4.060   3.471   1.087  0.00  0.00     0.035 H 
ATOM     15  H2  <0> d          -4.370   4.317  -0.448  0.00  0.00     0.035 H 
ATOM     16  H3  <0> d          -3.780   2.638  -0.461  0.00  0.00     0.035 H 
ENDBRANCH   1  13
TORSDOF 1
