REMARK  6 active torsions:
REMARK  status: ('A' for Active; 'I' for Inactive)
REMARK    1  A    between atoms: C1_1  and  C2_2 
REMARK    2  A    between atoms: C2_2  and  C3_3 
REMARK    3  A    between atoms: C2_2  and  C4_4 
REMARK    4  A    between atoms: C2_2  and  C6_8 
REMARK    5  A    between atoms: C4_4  and  C5_5 
REMARK    6  A    between atoms: C6_8  and  C7_9 
ROOT
ATOM      1  C2  <0> d           0.002  -0.004   0.002  0.00  0.00    -0.029 C 
ENDROOT
BRANCH   1   2
ATOM      2  C1  <0> d          -0.019   1.526   0.010  0.00  0.00    -0.068 C 
ATOM      3  H1  <0> d           1.004   1.903   0.003  0.00  0.00     0.028 H 
ATOM      4  H2  <0> d          -0.546   1.887  -0.873  0.00  0.00     0.028 H 
ATOM      5  H3  <0> d          -0.529   1.877   0.907  0.00  0.00     0.028 H 
ENDBRANCH   1   2
BRANCH   1   6
ATOM      6  C3  <0> d           0.742  -0.511   1.242  0.00  0.00    -0.068 C 
ATOM      7  H4  <0> d           0.232  -0.159   2.138  0.00  0.00     0.028 H 
ATOM      8  H5  <0> d           0.757  -1.601   1.236  0.00  0.00     0.028 H 
ATOM      9  H6  <0> d           1.765  -0.134   1.234  0.00  0.00     0.028 H 
ENDBRANCH   1   6
BRANCH   1  10
ATOM     10  C4  <0> d          -1.433  -0.534   0.013  0.00  0.00     0.022 C 
ATOM     11  H7  <0> d          -1.960  -0.173  -0.870  0.00  0.00     0.050 H 
ATOM     12  H8  <0> d          -1.419  -1.623   0.007  0.00  0.00     0.050 H 
BRANCH  10  13
ATOM     13  C5  <0> d          -2.139  -0.048   1.253  0.00  0.00     0.173 C 
ATOM     14  O1  <0> d          -1.548   0.657   2.054  0.00  0.00    -0.648 OA
ATOM     15  O2  <0> d          -3.300  -0.359   1.455  0.00  0.00    -0.648 OA
ENDBRANCH  10  13
ENDBRANCH   1  10
BRANCH   1  16
ATOM     16  C6  <0> d           0.718  -0.497  -1.257  0.00  0.00     0.022 C 
ATOM     17  H9  <0> d           0.733  -1.587  -1.263  0.00  0.00     0.050 H 
ATOM     18  H10 <0> d           0.191  -0.136  -2.140  0.00  0.00     0.050 H 
BRANCH  16  19
ATOM     19  C7  <0> d           2.132   0.024  -1.268  0.00  0.00     0.173 C 
ATOM     20  O3  <0> d           2.530   0.726  -0.353  0.00  0.00    -0.648 OA
ATOM     21  O4  <0> d           2.878  -0.255  -2.191  0.00  0.00    -0.648 OA
ENDBRANCH  16  19
ENDBRANCH   1  16
TORSDOF 6
