REMARK  5 active torsions:
REMARK  status: ('A' for Active; 'I' for Inactive)
REMARK    1  A    between atoms: C1_1  and  C2_2 
REMARK    2  A    between atoms: C2_2  and  C3_3 
REMARK    3  A    between atoms: C3_3  and  C4_5 
REMARK    4  A    between atoms: C3_3  and  C5_6 
REMARK    5  A    between atoms: C8_9  and  N1_12 
ROOT
ATOM      1  C5  <0> d          -0.761   1.454   3.743  0.00  0.00    -0.054 A 
ATOM      2  C6  <0> d          -1.000   2.787   4.023  0.00  0.00    -0.074 A 
ATOM      3  C7  <0> d          -1.712   3.139   5.153  0.00  0.00    -0.057 A 
ATOM      4  C8  <0> d          -2.178   2.154   6.014  0.00  0.00     0.025 A 
ATOM      5  C9  <0> d          -1.931   0.817   5.733  0.00  0.00    -0.057 A 
ATOM      6  C10 <0> d          -1.223   0.470   4.598  0.00  0.00    -0.074 A 
ATOM      7  H10 <0> d          -0.633   3.553   3.356  0.00  0.00     0.084 H 
ATOM      8  H11 <0> d          -1.902   4.180   5.369  0.00  0.00     0.086 H 
ATOM      9  H12 <0> d          -2.292   0.048   6.400  0.00  0.00     0.086 H 
ATOM     10  H13 <0> d          -1.030  -0.569   4.379  0.00  0.00     0.084 H 
ENDROOT
BRANCH   1  11
ATOM     11  C3  <0> d           0.011   1.072   2.506  0.00  0.00    -0.032 C 
ATOM     12  H1  <0> d           0.104  -0.013   2.456  0.00  0.00     0.046 H 
BRANCH  11  13
ATOM     13  C2  <0> d          -0.729   1.579   1.267  0.00  0.00    -0.062 C 
ATOM     14  H5  <0> d          -0.744   2.669   1.273  0.00  0.00     0.033 H 
ATOM     15  H6  <0> d          -1.751   1.202   1.275  0.00  0.00     0.033 H 
BRANCH  13  16
ATOM     16  C1  <0> d          -0.013   1.086   0.008  0.00  0.00    -0.076 C 
ATOM     17  H2  <0> d           0.002  -0.004   0.002  0.00  0.00     0.027 H 
ATOM     18  H3  <0> d           1.010   1.463   0.000  0.00  0.00     0.027 H 
ATOM     19  H4  <0> d          -0.540   1.447  -0.875  0.00  0.00     0.027 H 
ENDBRANCH  13  16
ENDBRANCH  11  13
BRANCH  11  20
ATOM     20  C4  <0> d           1.405   1.701   2.561  0.00  0.00    -0.069 C 
ATOM     21  H7  <0> d           1.312   2.786   2.611  0.00  0.00     0.028 H 
ATOM     22  H8  <0> d           1.932   1.340   3.444  0.00  0.00     0.028 H 
ATOM     23  H9  <0> d           1.963   1.425   1.666  0.00  0.00     0.028 H 
ENDBRANCH  11  20
ENDBRANCH   1  11
BRANCH   4  24
ATOM     24  N1  <0> d          -2.893   2.508   7.161  0.00  0.00    -0.399 N 
ATOM     25  H14 <0> d          -3.218   1.819   7.761  0.00  0.00     0.156 HD
ATOM     26  H15 <0> d          -3.065   3.442   7.356  0.00  0.00     0.156 HD
ENDBRANCH   4  24
TORSDOF 5
