REMARK  2 active torsions:
REMARK  status: ('A' for Active; 'I' for Inactive)
REMARK    1  A    between atoms: C2_2  and  C3_3 
REMARK    2  A    between atoms: C3_3  and  C4_4 
ROOT
ATOM      1  C1  <0> d           0.018  -1.178  -0.004  0.00  0.00    -0.154 C 
ATOM      2  C2  <0> d           0.002  -0.004   0.002  0.00  0.00    -0.113 C 
ATOM      3  H2  <0> d           0.032  -2.228  -0.010  0.00  0.00     0.166 H 
ENDROOT
BRANCH   2   4
ATOM      4  C3  <0> d          -0.018   1.468   0.010  0.00  0.00     0.016 C 
ATOM      5  H3  <0> d          -0.545   1.829  -0.873  0.00  0.00     0.059 H 
ATOM      6  H4  <0> d          -0.528   1.819   0.907  0.00  0.00     0.059 H 
BRANCH   4   7
ATOM      7  C4  <0> d           1.396   1.989  -0.001  0.00  0.00    -0.019 A 
ATOM      8  C7  <0> d           2.238   2.201  -1.181  0.00  0.00    -0.001 A 
ATOM      9  C6  <0> d           3.463   2.698  -0.700  0.00  0.00     0.042 A 
ATOM     10  C8  <0> d           2.051   2.017  -2.552  0.00  0.00    -0.070 A 
ATOM     11  N1  <0> d           3.362   2.769   0.672  0.00  0.00    -0.365 N 
ATOM     12  C11 <0> d           4.476   3.003  -1.603  0.00  0.00    -0.056 A 
ATOM     13  C5  <0> d           2.125   2.343   1.070  0.00  0.00    -0.015 A 
ATOM     14  H1  <0> d           4.065   3.075   1.267  0.00  0.00     0.165 HD
ATOM     15  H5  <0> d           1.784   2.298   2.094  0.00  0.00     0.112 H 
ATOM     16  C10 <0> d           4.273   2.804  -2.951  0.00  0.00    -0.081 A 
ATOM     17  H9  <0> d           5.423   3.381  -1.247  0.00  0.00     0.086 H 
ATOM     18  C9  <0> d           3.062   2.317  -3.421  0.00  0.00    -0.082 A 
ATOM     19  H8  <0> d           5.063   3.037  -3.650  0.00  0.00     0.083 H 
ATOM     20  H7  <0> d           2.916   2.175  -4.481  0.00  0.00     0.083 H 
ATOM     21  H6  <0> d           1.111   1.637  -2.924  0.00  0.00     0.084 H 
ENDBRANCH   4   7
ENDBRANCH   2   4
TORSDOF 2
