REMARK  5 active torsions:
REMARK  status: ('A' for Active; 'I' for Inactive)
REMARK    1  A    between atoms: C1_1  and  C2_2 
REMARK    2  A    between atoms: C2_2  and  O1_3 
REMARK    3  A    between atoms: O1_3  and  C3_4 
REMARK    4  A    between atoms: C5_7  and  C6_9 
REMARK    5  A    between atoms: C6_9  and  O2_10 
ROOT
ATOM      1  C3  <0> d          -1.498  -1.845   0.006  0.00  0.00     0.208 A 
ATOM      2  N1  <0> d          -0.571  -2.777  -0.002  0.00  0.00    -0.230 NA
ATOM      3  C4  <0> d          -0.892  -4.058  -0.006  0.00  0.00     0.020 A 
ATOM      4  C5  <0> d          -2.212  -4.363  -0.003  0.00  0.00     0.028 A 
ATOM      5  S1  <0> d          -2.930  -2.728   0.015  0.00  0.00    -0.046 SA
ATOM      6  H6  <0> d          -0.135  -4.829  -0.013  0.00  0.00     0.116 H 
ENDROOT
BRANCH   1   7
ATOM      7  O1  <0> d          -1.339  -0.499   0.012  0.00  0.00    -0.329 OA
BRANCH   7   8
ATOM      8  C2  <0> d           0.002  -0.004   0.002  0.00  0.00     0.025 C 
ATOM      9  H4  <0> d           0.512  -0.356  -0.895  0.00  0.00     0.074 H 
ATOM     10  H5  <0> d           0.529  -0.365   0.885  0.00  0.00     0.074 H 
BRANCH   8  11
ATOM     11  C1  <0> d          -0.019   1.526   0.010  0.00  0.00    -0.056 C 
ATOM     12  H1  <0> d           1.004   1.903   0.003  0.00  0.00     0.030 H 
ATOM     13  H2  <0> d          -0.546   1.887  -0.873  0.00  0.00     0.030 H 
ATOM     14  H3  <0> d          -0.529   1.877   0.907  0.00  0.00     0.030 H 
ENDBRANCH   8  11
ENDBRANCH   7   8
ENDBRANCH   1   7
BRANCH   4  15
ATOM     15  C6  <0> d          -2.888  -5.710  -0.007  0.00  0.00     0.048 C 
ATOM     16  H7  <0> d          -3.849  -5.633  -0.516  0.00  0.00     0.082 H 
ATOM     17  H8  <0> d          -2.258  -6.431  -0.527  0.00  0.00     0.082 H 
BRANCH  15  18
ATOM     18  O2  <0> d          -3.096  -6.143   1.339  0.00  0.00    -0.396 OA
ATOM     19  H9  <0> d          -3.528  -7.005   1.412  0.00  0.00     0.209 HD
ENDBRANCH  15  18
ENDBRANCH   4  15
TORSDOF 5
