REMARK  7 active torsions:
REMARK  status: ('A' for Active; 'I' for Inactive)
REMARK    1  A    between atoms: C2_2  and  C3_3 
REMARK    2  A    between atoms: C3_3  and  C4_4 
REMARK    3  A    between atoms: C4_4  and  C5_5 
REMARK    4  A    between atoms: C5_5  and  C6_6 
REMARK    5  A    between atoms: C6_6  and  C7_7 
REMARK    6  A    between atoms: C7_7  and  C8_8 
REMARK    7  A    between atoms: C8_8  and  C9_9 
ROOT
ATOM      1  C9  <0> d          -0.018   1.468   0.010  0.00  0.00     0.015 C 
ATOM      2  C10 <0> d           0.002  -0.004   0.002  0.00  0.00     0.059 C 
ATOM      3  N1  <0> d           0.018  -1.140  -0.004  0.00  0.00    -0.197 NA
ATOM      4  H16 <0> d          -0.550   1.832  -0.881  0.00  0.00     0.054 H 
ATOM      5  H17 <0> d           1.014   1.849   0.002  0.00  0.00     0.054 H 
ENDROOT
BRANCH   1   6
ATOM      6  C8  <0> d          -0.734   1.961   1.269  0.00  0.00    -0.054 C 
ATOM      7  H14 <0> d          -0.202   1.597   2.160  0.00  0.00     0.034 H 
ATOM      8  H15 <0> d          -1.766   1.580   1.277  0.00  0.00     0.034 H 
BRANCH   6   9
ATOM      9  C7  <0> d          -0.755   3.491   1.277  0.00  0.00    -0.064 C 
ATOM     10  H12 <0> d          -1.287   3.855   0.386  0.00  0.00     0.033 H 
ATOM     11  H13 <0> d           0.277   3.872   1.269  0.00  0.00     0.033 H 
BRANCH   9  12
ATOM     12  C6  <0> d          -1.471   3.984   2.536  0.00  0.00    -0.065 C 
ATOM     13  H10 <0> d          -0.939   3.620   3.427  0.00  0.00     0.033 H 
ATOM     14  H11 <0> d          -2.503   3.604   2.544  0.00  0.00     0.033 H 
BRANCH  12  15
ATOM     15  C5  <0> d          -1.492   5.514   2.545  0.00  0.00    -0.065 C 
ATOM     16  H8  <0> d          -2.024   5.879   1.653  0.00  0.00     0.033 H 
ATOM     17  H9  <0> d          -0.460   5.895   2.537  0.00  0.00     0.033 H 
BRANCH  15  18
ATOM     18  C4  <0> d          -2.208   6.008   3.803  0.00  0.00    -0.062 C 
ATOM     19  H6  <0> d          -1.676   5.643   4.694  0.00  0.00     0.033 H 
ATOM     20  H7  <0> d          -3.240   5.627   3.811  0.00  0.00     0.033 H 
BRANCH  18  21
ATOM     21  C3  <0> d          -2.228   7.537   3.812  0.00  0.00    -0.051 C 
ATOM     22  H4  <0> d          -2.760   7.902   2.921  0.00  0.00     0.038 H 
ATOM     23  H5  <0> d          -1.196   7.918   3.804  0.00  0.00     0.038 H 
BRANCH  21  24
ATOM     24  C2  <0> d          -2.934   8.024   5.052  0.00  0.00    -0.112 C 
ATOM     25  C1  <0> d          -2.333   8.859   5.862  0.00  0.00    -0.125 C 
ATOM     26  H1  <0> d          -2.848   9.214   6.767  0.00  0.00     0.066 H 
ATOM     27  H2  <0> d          -1.314   9.206   5.638  0.00  0.00     0.066 H 
ATOM     28  H3  <0> d          -3.953   7.677   5.276  0.00  0.00     0.075 H 
ENDBRANCH  21  24
ENDBRANCH  18  21
ENDBRANCH  15  18
ENDBRANCH  12  15
ENDBRANCH   9  12
ENDBRANCH   6   9
ENDBRANCH   1   6
TORSDOF 7
