REMARK  2 active torsions:
REMARK  status: ('A' for Active; 'I' for Inactive)
REMARK    1  A    between atoms: C3_3  and  C5_6 
REMARK    2  A    between atoms: C7_9  and  C8_11 
ROOT
ATOM      1  C5  <0> d           1.317   0.779  -0.006  0.00  0.00     0.007 A 
ATOM      2  H1  <0> d           2.228   0.788   0.610  0.00  0.00     0.051 H 
ATOM      3  C6  <0> d           0.002  -0.004   0.002  0.00  0.00    -0.042 A 
ATOM      4  C7  <0> d          -0.019   1.526   0.010  0.00  0.00     0.040 A 
ATOM      5  H2  <0> d          -0.488   2.307  -0.606  0.00  0.00     0.057 H 
ATOM      6  H6  <0> d          -0.056  -0.632  -0.899  0.00  0.00     0.035 H 
ATOM      7  H7  <0> d          -0.039  -0.642   0.897  0.00  0.00     0.035 H 
ENDROOT
BRANCH   1   8
ATOM      8  C3  <0> d           2.108   0.797  -1.289  0.00  0.00     0.057 A 
ATOM      9  C2  <0> d           3.351   1.287  -1.439  0.00  0.00    -0.052 A 
ATOM     10  C1  <0> d           3.704   1.101  -2.796  0.00  0.00    -0.059 A 
ATOM     11  H4  <0> d           3.962   1.738  -0.671  0.00  0.00     0.087 H 
ATOM     12  C4  <0> d           2.655   0.507  -3.393  0.00  0.00     0.019 A 
ATOM     13  H3  <0> d           4.636   1.381  -3.263  0.00  0.00     0.086 H 
ATOM     14  O1  <0> d           1.693   0.320  -2.474  0.00  0.00    -0.327 OA
ATOM     15  H5  <0> d           2.597   0.225  -4.434  0.00  0.00     0.123 H 
ENDBRANCH   1   8
BRANCH   4  16
ATOM     16  C8  <0> d          -0.418   2.209   1.293  0.00  0.00     0.177 C 
ATOM     17  O2  <0> d           0.308   2.154   2.258  0.00  0.00    -0.648 OA
ATOM     18  O3  <0> d          -1.579   2.879   1.363  0.00  0.00    -0.648 OA
ENDBRANCH   4  16
TORSDOF 2
