REMARK  1 active torsions:
REMARK  status: ('A' for Active; 'I' for Inactive)
REMARK    1  A    between atoms: C4_5  and  C6_7 
ROOT
ATOM      1  C6  <0> d           1.250  -2.168  -0.023  0.00  0.00     0.373 C 
ATOM      2  C7  <0> d           2.648  -2.628  -0.040  0.00  0.00     0.145 C 
ATOM      3  N2  <0> d           3.727  -2.984  -0.052  0.00  0.00    -0.190 NA
ATOM      4  F1  <0> d           0.613  -2.655   1.123  0.00  0.00    -0.182 F 
ATOM      5  F2  <0> d           0.590  -2.641  -1.162  0.00  0.00    -0.182 F 
ENDROOT
BRANCH   1   6
ATOM      6  C4  <0> d           1.218  -0.661  -0.014  0.00  0.00     0.120 A 
ATOM      7  N1  <0> d           2.350   0.015  -0.021  0.00  0.00    -0.258 NA
ATOM      8  C3  <0> d           2.370   1.334  -0.013  0.00  0.00     0.003 A 
ATOM      9  C2  <0> d           1.194   2.059   0.002  0.00  0.00    -0.066 A 
ATOM     10  H3  <0> d           3.317   1.853  -0.020  0.00  0.00     0.114 H 
ATOM     11  C1  <0> d          -0.017   1.382   0.010  0.00  0.00    -0.080 A 
ATOM     12  H2  <0> d           1.217   3.138   0.007  0.00  0.00     0.085 H 
ATOM     13  C5  <0> d           0.002  -0.004   0.002  0.00  0.00    -0.052 A 
ATOM     14  H1  <0> d          -0.952   1.922   0.026  0.00  0.00     0.083 H 
ATOM     15  H4  <0> d          -0.922  -0.564   0.008  0.00  0.00     0.086 H 
ENDBRANCH   1   6
TORSDOF 1
