REMARK  3 active torsions:
REMARK  status: ('A' for Active; 'I' for Inactive)
REMARK    1  A    between atoms: C1_1  and  C2_2 
REMARK    2  A    between atoms: C2_2  and  C3_3 
REMARK    3  A    between atoms: C2_2  and  C4_4 
ROOT
ATOM      1  C4  <0> d          -2.143   1.058   1.278  0.00  0.00     0.116 A 
ATOM      2  N1  <0> d          -3.104   1.724   1.972  0.00  0.00    -0.296 N 
ATOM      3  H1  <0> d          -2.881   2.532   2.459  0.00  0.00     0.172 HD
ATOM      4  C5  <0> d          -4.371   1.259   1.976  0.00  0.00     0.329 A 
ATOM      5  O1  <0> d          -5.238   1.850   2.590  0.00  0.00    -0.246 OA
ATOM      6  N2  <0> d          -4.666   0.130   1.299  0.00  0.00    -0.259 N 
ATOM      7  H2  <0> d          -5.572  -0.215   1.299  0.00  0.00     0.175 HD
ATOM      8  C6  <0> d          -3.694  -0.515   0.623  0.00  0.00     0.351 A 
ATOM      9  O2  <0> d          -3.955  -1.533   0.010  0.00  0.00    -0.244 OA
ATOM     10  N3  <0> d          -2.438  -0.036   0.624  0.00  0.00    -0.180 NA
ENDROOT
BRANCH   1  11
ATOM     11  C2  <0> d          -0.729   1.579   1.267  0.00  0.00    -0.003 C 
ATOM     12  H6  <0> d          -0.744   2.669   1.273  0.00  0.00     0.050 H 
BRANCH  11  13
ATOM     13  C1  <0> d          -0.013   1.086   0.008  0.00  0.00    -0.067 C 
ATOM     14  H3  <0> d           0.002  -0.004   0.002  0.00  0.00     0.028 H 
ATOM     15  H4  <0> d           1.010   1.463   0.000  0.00  0.00     0.028 H 
ATOM     16  H5  <0> d          -0.540   1.447  -0.875  0.00  0.00     0.028 H 
ENDBRANCH  11  13
BRANCH  11  17
ATOM     17  C3  <0> d           0.011   1.072   2.506  0.00  0.00    -0.067 C 
ATOM     18  H7  <0> d           1.034   1.450   2.499  0.00  0.00     0.028 H 
ATOM     19  H8  <0> d          -0.499   1.424   3.403  0.00  0.00     0.028 H 
ATOM     20  H9  <0> d           0.026  -0.018   2.500  0.00  0.00     0.028 H 
ENDBRANCH  11  17
ENDBRANCH   1  11
TORSDOF 3
