REMARK  1 active torsions:
REMARK  status: ('A' for Active; 'I' for Inactive)
REMARK    1  A    between atoms: C2_2  and  C4_6 
REMARK       I    between atoms: C4_6  and  N2_8 
ROOT
ATOM      1  C1  <0> d           1.335  -2.094  -0.017  0.00  0.00    -0.011 A 
ATOM      2  C2  <0> d           1.287  -0.723  -0.014  0.00  0.00     0.130 A 
ATOM      3  N1  <0> d           2.448  -0.065  -0.021  0.00  0.00    -0.248 NA
ATOM      4  C3  <0> d           3.574  -0.729  -0.035  0.00  0.00     0.040 A 
ATOM      5  S1  <0> d           3.046  -2.380  -0.040  0.00  0.00    -0.092 SA
ATOM      6  H1  <0> d           0.523  -2.806  -0.008  0.00  0.00     0.099 H 
ATOM      7  H2  <0> d           4.583  -0.343  -0.042  0.00  0.00     0.126 H 
ENDROOT
BRANCH   2   8
ATOM      8  C4  <0> d           0.002  -0.004   0.002  0.00  0.00     0.268 C 
ATOM      9  O1  <0> d          -1.043  -0.626   0.009  0.00  0.00    -0.266 OA
ATOM     10  N2  <0> d          -0.016   1.344   0.009  0.00  0.00    -0.365 N 
ATOM     11  H3  <0> d           0.817   1.840   0.004  0.00  0.00     0.159 HD
ATOM     12  H4  <0> d          -0.863   1.817   0.016  0.00  0.00     0.159 HD
ENDBRANCH   2   8
TORSDOF 1
