REMARK  7 active torsions:
REMARK  status: ('A' for Active; 'I' for Inactive)
REMARK    1  A    between atoms: C1_1  and  C2_2 
REMARK    2  A    between atoms: C2_2  and  O1_3 
REMARK    3  A    between atoms: O1_3  and  C3_4 
REMARK    4  A    between atoms: C5_7  and  C6_9 
REMARK    5  A    between atoms: C6_9  and  O3_11 
REMARK    6  A    between atoms: O3_11  and  C7_12 
REMARK    7  A    between atoms: C7_12  and  C8_13 
ROOT
ATOM      1  C3  <0> d          -0.013   1.086   0.008  0.00  0.00     0.051 A 
ATOM      2  H1  <0> d          -0.383   0.084   0.270  0.00  0.00     0.084 H 
ATOM      3  C4  <0> d           0.460   1.806  -1.256  0.00  0.00    -0.026 A 
ATOM      4  C5  <0> d           1.335   1.811  -0.001  0.00  0.00     0.058 A 
ATOM      5  H2  <0> d           1.813   2.584   0.618  0.00  0.00     0.059 H 
ATOM      6  H8  <0> d           0.542   1.083  -2.081  0.00  0.00     0.038 H 
ATOM      7  H9  <0> d          -0.264   2.588  -1.526  0.00  0.00     0.038 H 
ENDROOT
BRANCH   4   8
ATOM      8  C6  <0> d           2.581   0.963  -0.017  0.00  0.00     0.265 C 
ATOM      9  O2  <0> d           2.492  -0.242  -0.023  0.00  0.00    -0.265 OA
BRANCH   8  10
ATOM     10  O3  <0> d           3.789   1.547  -0.026  0.00  0.00    -0.321 OA
BRANCH  10  11
ATOM     11  C7  <0> d           4.946   0.668  -0.042  0.00  0.00     0.025 C 
ATOM     12  H10 <0> d           4.932   0.029   0.853  0.00  0.00     0.074 H 
ATOM     13  H11 <0> d           4.915   0.039  -0.943  0.00  0.00     0.074 H 
BRANCH  11  14
ATOM     14  C8  <0> d           6.224   1.509  -0.049  0.00  0.00    -0.056 C 
ATOM     15  H12 <0> d           7.100   0.843  -0.061  0.00  0.00     0.030 H 
ATOM     16  H13 <0> d           6.254   2.139   0.852  0.00  0.00     0.030 H 
ATOM     17  H14 <0> d           6.237   2.148  -0.944  0.00  0.00     0.030 H 
ENDBRANCH  11  14
ENDBRANCH  10  11
ENDBRANCH   8  10
ENDBRANCH   4   8
BRANCH   1  18
ATOM     18  O1  <0> d          -1.079   1.684   0.749  0.00  0.00    -0.385 OA
BRANCH  18  19
ATOM     19  C2  <0> d          -2.014   0.744   1.282  0.00  0.00     0.017 C 
ATOM     20  H6  <0> d          -1.494   0.054   1.962  0.00  0.00     0.073 H 
ATOM     21  H7  <0> d          -2.470   0.174   0.459  0.00  0.00     0.073 H 
BRANCH  19  22
ATOM     22  C1  <0> d          -3.106   1.492   2.051  0.00  0.00    -0.056 C 
ATOM     23  H3  <0> d          -3.826   0.769   2.461  0.00  0.00     0.030 H 
ATOM     24  H4  <0> d          -3.626   2.182   1.371  0.00  0.00     0.030 H 
ATOM     25  H5  <0> d          -2.649   2.062   2.873  0.00  0.00     0.030 H 
ENDBRANCH  19  22
ENDBRANCH  18  19
ENDBRANCH   1  18
TORSDOF 7
