REMARK  4 active torsions:
REMARK  status: ('A' for Active; 'I' for Inactive)
REMARK    1  A    between atoms: C1_1  and  C2_2 
REMARK    2  A    between atoms: C2_2  and  O1_3 
REMARK    3  A    between atoms: O1_3  and  C3_4 
REMARK    4  A    between atoms: C6_7  and  C9_10 
ROOT
ATOM      1  C3  <0> d           1.213  -0.680  -0.013  0.00  0.00     0.068 A 
ATOM      2  C4  <0> d           0.002  -0.004   0.002  0.00  0.00    -0.050 A 
ATOM      3  C5  <0> d          -0.017   1.377   0.010  0.00  0.00    -0.075 A 
ATOM      4  C6  <0> d           1.171   2.086   0.002  0.00  0.00    -0.062 A 
ATOM      5  C7  <0> d           2.379   1.415  -0.013  0.00  0.00    -0.075 A 
ATOM      6  C8  <0> d           2.403   0.033  -0.021  0.00  0.00    -0.050 A 
ATOM      7  H6  <0> d          -0.925  -0.557   0.008  0.00  0.00     0.087 H 
ATOM      8  H7  <0> d          -0.960   1.904   0.017  0.00  0.00     0.084 H 
ATOM      9  H8  <0> d           3.305   1.970  -0.019  0.00  0.00     0.084 H 
ATOM     10  H9  <0> d           3.348  -0.491  -0.032  0.00  0.00     0.087 H 
ENDROOT
BRANCH   1  11
ATOM     11  O1  <0> d           1.234  -2.039  -0.020  0.00  0.00    -0.352 OA
BRANCH  11  12
ATOM     12  C2  <0> d           2.518  -2.668  -0.036  0.00  0.00     0.023 C 
ATOM     13  H4  <0> d           3.061  -2.362  -0.930  0.00  0.00     0.074 H 
ATOM     14  H5  <0> d           3.079  -2.371   0.850  0.00  0.00     0.074 H 
BRANCH  12  15
ATOM     15  C1  <0> d           2.341  -4.188  -0.042  0.00  0.00    -0.056 C 
ATOM     16  H1  <0> d           1.780  -4.484  -0.928  0.00  0.00     0.030 H 
ATOM     17  H2  <0> d           3.319  -4.667  -0.054  0.00  0.00     0.030 H 
ATOM     18  H3  <0> d           1.797  -4.494   0.852  0.00  0.00     0.030 H 
ENDBRANCH  12  15
ENDBRANCH  11  12
ENDBRANCH   1  11
BRANCH   4  19
ATOM     19  C9  <0> d           1.147   3.593   0.011  0.00  0.00    -0.051 C 
ATOM     20  H10 <0> d           1.151   3.950   1.040  0.00  0.00     0.033 H 
ATOM     21  H11 <0> d           2.026   3.973  -0.510  0.00  0.00     0.033 H 
ATOM     22  H12 <0> d           0.247   3.945  -0.493  0.00  0.00     0.033 H 
ENDBRANCH   4  19
TORSDOF 4
