REMARK  1 active torsions:
REMARK  status: ('A' for Active; 'I' for Inactive)
REMARK    1  A    between atoms: C5_6  and  N2_7 
REMARK       I    between atoms: N2_7  and  C6_8 
REMARK       I    between atoms: C6_8  and  N3_10 
ROOT
ATOM      1  C1  <0> d          -1.222   1.749  -0.149  0.00  0.00    -0.040 A 
ATOM      2  C2  <0> d          -0.015   1.081  -0.158  0.00  0.00     0.004 A 
ATOM      3  N1  <0> d           1.122   1.736  -0.016  0.00  0.00    -0.273 NA
ATOM      4  C3  <0> d           1.157   3.046   0.145  0.00  0.00     0.004 A 
ATOM      5  C4  <0> d          -0.007   3.786   0.171  0.00  0.00    -0.040 A 
ATOM      6  C5  <0> d          -1.229   3.132   0.025  0.00  0.00     0.039 A 
ATOM      7  H1  <0> d          -2.148   1.207  -0.270  0.00  0.00     0.089 H 
ATOM      8  H2  <0> d           0.000   0.009  -0.288  0.00  0.00     0.114 H 
ATOM      9  H3  <0> d           2.108   3.544   0.258  0.00  0.00     0.114 H 
ATOM     10  H4  <0> d           0.029   4.857   0.303  0.00  0.00     0.089 H 
ENDROOT
BRANCH   6  11
ATOM     11  N2  <0> d          -2.429   3.844   0.045  0.00  0.00    -0.309 N 
ATOM     12  C6  <0> d          -3.543   3.274   0.546  0.00  0.00     0.318 C 
ATOM     13  O1  <0> d          -3.482   2.177   1.067  0.00  0.00    -0.247 OA
ATOM     14  N3  <0> d          -4.723   3.920   0.470  0.00  0.00    -0.352 N 
ATOM     15  H6  <0> d          -4.771   4.795   0.054  0.00  0.00     0.160 HD
ATOM     16  H7  <0> d          -5.525   3.509   0.830  0.00  0.00     0.160 HD
ATOM     17  H5  <0> d          -2.462   4.750  -0.300  0.00  0.00     0.170 HD
ENDBRANCH   6  11
TORSDOF 1
