REMARK  4 active torsions:
REMARK  status: ('A' for Active; 'I' for Inactive)
REMARK    1  A    between atoms: C1_1  and  C2_2 
REMARK    2  A    between atoms: C5_6  and  C8_11 
REMARK    3  A    between atoms: C8_11  and  C9_12 
REMARK    4  A    between atoms: C8_11  and  C10_13 
ROOT
ATOM      1  C2  <0> d          -0.019   1.526   0.010  0.00  0.00     0.000 C 
ATOM      2  H1  <0> d           0.919   1.872   0.003  0.00  0.00     0.051 H 
ATOM      3  C3  <0> d          -0.767   2.037  -1.225  0.00  0.00    -0.055 C 
ATOM      4  C4  <0> d          -2.239   1.615  -1.133  0.00  0.00    -0.060 C 
ATOM      5  C5  <0> d          -2.896   2.277   0.079  0.00  0.00    -0.045 C 
ATOM      6  H2  <0> d          -2.782   3.359   0.009  0.00  0.00     0.041 H 
ATOM      7  C6  <0> d          -2.223   1.775   1.361  0.00  0.00    -0.006 C 
ATOM      8  C7  <0> d          -0.734   2.017   1.249  0.00  0.00     0.131 C 
ATOM      9  O1  <0> d          -0.132   2.588   2.127  0.00  0.00    -0.298 OA
ATOM     10  H6  <0> d          -0.704   3.124  -1.264  0.00  0.00     0.034 H 
ATOM     11  H7  <0> d          -0.318   1.614  -2.123  0.00  0.00     0.034 H 
ATOM     12  H8  <0> d          -2.299   0.531  -1.030  0.00  0.00     0.033 H 
ATOM     13  H9  <0> d          -2.760   1.921  -2.040  0.00  0.00     0.033 H 
ATOM     14  H10 <0> d          -2.404   0.797   1.471  0.00  0.00     0.044 H 
ATOM     15  H11 <0> d          -2.619   2.315   2.221  0.00  0.00     0.044 H 
ENDROOT
BRANCH   5  16
ATOM     16  C8  <0> d          -4.384   1.921   0.111  0.00  0.00    -0.057 C 
ATOM     17  H12 <0> d          -4.497   0.840   0.181  0.00  0.00     0.039 H 
BRANCH  16  18
ATOM     18  C9  <0> d          -5.041   2.583   1.324  0.00  0.00    -0.073 C 
ATOM     19  H13 <0> d          -6.101   2.329   1.347  0.00  0.00     0.028 H 
ATOM     20  H14 <0> d          -4.562   2.225   2.236  0.00  0.00     0.028 H 
ATOM     21  H15 <0> d          -4.927   3.664   1.254  0.00  0.00     0.028 H 
ENDBRANCH  16  18
BRANCH  16  22
ATOM     22  C10 <0> d          -5.056   2.423  -1.169  0.00  0.00    -0.073 C 
ATOM     23  H16 <0> d          -4.588   1.952  -2.034  0.00  0.00     0.028 H 
ATOM     24  H17 <0> d          -6.115   2.170  -1.147  0.00  0.00     0.028 H 
ATOM     25  H18 <0> d          -4.942   3.505  -1.239  0.00  0.00     0.028 H 
ENDBRANCH  16  22
ENDBRANCH   5  16
BRANCH   1  26
ATOM     26  C1  <0> d           0.002  -0.004   0.002  0.00  0.00    -0.066 C 
ATOM     27  H3  <0> d          -1.020  -0.381   0.010  0.00  0.00     0.028 H 
ATOM     28  H4  <0> d           0.512  -0.356  -0.895  0.00  0.00     0.028 H 
ATOM     29  H5  <0> d           0.529  -0.365   0.885  0.00  0.00     0.028 H 
ENDBRANCH   1  26
TORSDOF 4
