REMARK  3 active torsions:
REMARK  status: ('A' for Active; 'I' for Inactive)
REMARK    1  A    between atoms: C1_1  and  C2_2 
REMARK    2  A    between atoms: C2_2  and  C3_3 
REMARK    3  A    between atoms: C3_3  and  C4_4 
ROOT
ATOM      1  C4  <0> d           0.763  -2.041   1.233  0.00  0.00    -0.031 C 
ATOM      2  H1  <0> d          -0.246  -2.442   1.139  0.00  0.00     0.043 H 
ATOM      3  C5  <0> d           1.678  -2.576   0.107  0.00  0.00     0.014 C 
ATOM      4  C6  <0> d           2.337  -3.795   0.713  0.00  0.00     0.217 C 
ATOM      5  O1  <0> d           2.909  -4.660   0.083  0.00  0.00    -0.274 OA
ATOM      6  N1  <0> d           2.196  -3.781   2.049  0.00  0.00    -0.361 N 
ATOM      7  C7  <0> d           1.462  -2.591   2.496  0.00  0.00    -0.001 C 
ATOM      8  H9  <0> d           1.086  -2.855  -0.765  0.00  0.00     0.047 H 
ATOM      9  H10 <0> d           2.427  -1.831  -0.162  0.00  0.00     0.047 H 
ATOM     10  H11 <0> d           2.536  -4.469   2.643  0.00  0.00     0.162 HD
ATOM     11  H12 <0> d           2.153  -1.850   2.898  0.00  0.00     0.064 H 
ATOM     12  H13 <0> d           0.721  -2.864   3.248  0.00  0.00     0.064 H 
ENDROOT
BRANCH   1  13
ATOM     13  C3  <0> d           0.742  -0.511   1.242  0.00  0.00    -0.060 C 
ATOM     14  H7  <0> d           1.765  -0.134   1.234  0.00  0.00     0.033 H 
ATOM     15  H8  <0> d           0.232  -0.159   2.138  0.00  0.00     0.033 H 
BRANCH  13  16
ATOM     16  C2  <0> d           0.002  -0.004   0.002  0.00  0.00    -0.068 C 
ATOM     17  H5  <0> d          -1.020  -0.381   0.010  0.00  0.00     0.032 H 
ATOM     18  H6  <0> d           0.512  -0.356  -0.895  0.00  0.00     0.032 H 
BRANCH  16  19
ATOM     19  C1  <0> d          -0.019   1.526   0.010  0.00  0.00    -0.077 C 
ATOM     20  H2  <0> d           1.004   1.903   0.003  0.00  0.00     0.027 H 
ATOM     21  H3  <0> d          -0.546   1.887  -0.873  0.00  0.00     0.027 H 
ATOM     22  H4  <0> d          -0.529   1.877   0.907  0.00  0.00     0.027 H 
ENDBRANCH  16  19
ENDBRANCH  13  16
ENDBRANCH   1  13
TORSDOF 3
