REMARK  4 active torsions:
REMARK  status: ('A' for Active; 'I' for Inactive)
REMARK    1  A    between atoms: C1_1  and  C2_2 
REMARK    2  A    between atoms: C2_2  and  O1_3 
REMARK    3  A    between atoms: O1_3  and  C3_4 
REMARK    4  A    between atoms: C3_4  and  C4_6 
ROOT
ATOM      1  C4  <0> d          -0.817   1.643   3.667  0.00  0.00     0.047 A 
ATOM      2  H1  <0> d          -1.904   1.717   3.642  0.00  0.00     0.057 H 
ATOM      3  C5  <0> d          -0.059   2.656   4.527  0.00  0.00    -0.036 A 
ATOM      4  C6  <0> d          -0.169   1.199   4.980  0.00  0.00     0.043 A 
ATOM      5  H2  <0> d           0.728   0.583   4.916  0.00  0.00     0.064 H 
ATOM      6  C7  <0> d          -1.062   0.905   6.113  0.00  0.00     0.065 C 
ATOM      7  N1  <0> d          -1.751   0.678   6.987  0.00  0.00    -0.197 NA
ATOM      8  H8  <0> d           0.910   2.999   4.164  0.00  0.00     0.036 H 
ATOM      9  H9  <0> d          -0.648   3.398   5.067  0.00  0.00     0.036 H 
ENDROOT
BRANCH   1  10
ATOM     10  C3  <0> d          -0.166   1.194   2.384  0.00  0.00     0.264 C 
ATOM     11  O2  <0> d           0.829   0.510   2.418  0.00  0.00    -0.265 OA
BRANCH  10  12
ATOM     12  O1  <0> d          -0.692   1.554   1.203  0.00  0.00    -0.322 OA
BRANCH  12  13
ATOM     13  C2  <0> d          -0.013   1.086   0.008  0.00  0.00     0.025 C 
ATOM     14  H6  <0> d           0.002  -0.004   0.002  0.00  0.00     0.074 H 
ATOM     15  H7  <0> d           1.010   1.463   0.000  0.00  0.00     0.074 H 
BRANCH  13  16
ATOM     16  C1  <0> d          -0.753   1.593  -1.232  0.00  0.00    -0.056 C 
ATOM     17  H3  <0> d          -0.242   1.241  -2.128  0.00  0.00     0.030 H 
ATOM     18  H4  <0> d          -1.775   1.215  -1.224  0.00  0.00     0.030 H 
ATOM     19  H5  <0> d          -0.767   2.683  -1.226  0.00  0.00     0.030 H 
ENDBRANCH  13  16
ENDBRANCH  12  13
ENDBRANCH  10  12
ENDBRANCH   1  10
TORSDOF 4
