REMARK  3 active torsions:
REMARK  status: ('A' for Active; 'I' for Inactive)
REMARK    1  A    between atoms: C1_1  and  C2_2 
REMARK    2  A    between atoms: C6_6  and  C8_8 
REMARK    3  A    between atoms: C8_8  and  O1_9 
ROOT
ATOM      1  C2  <0> d           0.002  -0.004   0.002  0.00  0.00    -0.061 A 
ATOM      2  C3  <0> d           0.006  -0.688  -1.200  0.00  0.00    -0.074 A 
ATOM      3  C4  <0> d           0.025  -2.070  -1.208  0.00  0.00    -0.045 A 
ATOM      4  C5  <0> d           0.041  -2.769  -0.013  0.00  0.00     0.124 A 
ATOM      5  C6  <0> d           0.037  -2.083   1.189  0.00  0.00     0.004 A 
ATOM      6  C7  <0> d           0.023  -0.701   1.196  0.00  0.00    -0.066 A 
ATOM      7  F1  <0> d           0.059  -4.120  -0.021  0.00  0.00    -0.205 F 
ATOM      8  H4  <0> d          -0.007  -0.143  -2.131  0.00  0.00     0.084 H 
ATOM      9  H5  <0> d           0.028  -2.604  -2.147  0.00  0.00     0.088 H 
ATOM     10  H6  <0> d           0.025  -0.166   2.133  0.00  0.00     0.085 H 
ENDROOT
BRANCH   5  11
ATOM     11  C8  <0> d           0.053  -2.843   2.491  0.00  0.00     0.043 C 
ATOM     12  H7  <0> d          -0.828  -3.482   2.549  0.00  0.00     0.081 H 
ATOM     13  H8  <0> d           0.952  -3.458   2.541  0.00  0.00     0.081 H 
BRANCH  11  14
ATOM     14  O1  <0> d           0.046  -1.919   3.581  0.00  0.00    -0.396 OA
ATOM     15  H9  <0> d           0.055  -2.339   4.452  0.00  0.00     0.209 HD
ENDBRANCH  11  14
ENDBRANCH   5  11
BRANCH   1  16
ATOM     16  C1  <0> d          -0.018   1.503   0.010  0.00  0.00    -0.051 C 
ATOM     17  H1  <0> d           1.004   1.880   0.003  0.00  0.00     0.033 H 
ATOM     18  H2  <0> d          -0.545   1.864  -0.873  0.00  0.00     0.033 H 
ATOM     19  H3  <0> d          -0.529   1.854   0.907  0.00  0.00     0.033 H 
ENDBRANCH   1  16
TORSDOF 3
