REMARK  0 active torsions:
REMARK  status: ('A' for Active; 'I' for Inactive)
ROOT
ATOM      1  C1  <0> d          -0.735   1.583  -1.231  0.00  0.00    -0.062 C 
ATOM      2  C2  <0> d          -0.013   1.086   0.008  0.00  0.00    -0.057 C 
ATOM      3  C3  <0> d          -0.717   1.573   1.277  0.00  0.00     0.009 C 
ATOM      4  C4  <0> d          -0.211   2.963   1.603  0.00  0.00     0.218 C 
ATOM      5  O1  <0> d           0.517   3.134   2.558  0.00  0.00    -0.274 OA
ATOM      6  N1  <0> d          -0.562   4.000   0.842  0.00  0.00    -0.344 N 
ATOM      7  C5  <0> d          -1.450   3.808  -0.317  0.00  0.00     0.096 C 
ATOM      8  H1  <0> d          -2.309   3.205  -0.024  0.00  0.00     0.096 H 
ATOM      9  C6  <0> d          -0.668   3.087  -1.417  0.00  0.00    -0.034 C 
ATOM     10  C7  <0> d          -1.906   5.117  -0.812  0.00  0.00     0.084 C 
ATOM     11  N2  <0> d          -2.259   6.127  -1.194  0.00  0.00    -0.195 NA
ATOM     12  H2  <0> d          -0.294   1.104  -2.106  0.00  0.00     0.033 H 
ATOM     13  H3  <0> d          -1.782   1.286  -1.166  0.00  0.00     0.033 H 
ATOM     14  H4  <0> d           0.002  -0.004   0.002  0.00  0.00     0.033 H 
ATOM     15  H5  <0> d           1.012   1.459   0.000  0.00  0.00     0.033 H 
ATOM     16  H6  <0> d          -1.793   1.605   1.109  0.00  0.00     0.047 H 
ATOM     17  H7  <0> d          -0.491   0.899   2.103  0.00  0.00     0.047 H 
ATOM     18  H8  <0> d          -0.232   4.888   1.054  0.00  0.00     0.163 HD
ATOM     19  H9  <0> d           0.373   3.407  -1.385  0.00  0.00     0.037 H 
ATOM     20  H10 <0> d          -1.093   3.348  -2.387  0.00  0.00     0.037 H 
ENDROOT
TORSDOF 0
