REMARK  3 active torsions:
REMARK  status: ('A' for Active; 'I' for Inactive)
REMARK    1  A    between atoms: C1_1  and  O1_2 
REMARK    2  A    between atoms: O1_2  and  C2_3 
REMARK    3  A    between atoms: C6_8  and  O2_9 
ROOT
ATOM      1  C2  <0> d          -0.813   2.905  -1.296  0.00  0.00     0.104 A 
ATOM      2  C3  <0> d          -0.270   3.771  -0.352  0.00  0.00    -0.031 A 
ATOM      3  C4  <0> d          -0.401   5.134  -0.536  0.00  0.00     0.005 A 
ATOM      4  N1  <0> d          -1.031   5.618  -1.589  0.00  0.00    -0.270 NA
ATOM      5  C5  <0> d          -1.560   4.832  -2.508  0.00  0.00     0.036 A 
ATOM      6  C6  <0> d          -1.467   3.456  -2.400  0.00  0.00     0.116 A 
ATOM      7  H4  <0> d           0.246   3.383   0.513  0.00  0.00     0.090 H 
ATOM      8  H5  <0> d           0.018   5.812   0.193  0.00  0.00     0.114 H 
ATOM      9  H6  <0> d          -2.068   5.269  -3.355  0.00  0.00     0.119 H 
ENDROOT
BRANCH   1  10
ATOM     10  O1  <0> d          -0.704   1.559  -1.150  0.00  0.00    -0.353 OA
BRANCH  10  11
ATOM     11  C1  <0> d          -0.013   1.086   0.008  0.00  0.00     0.010 C 
ATOM     12  H1  <0> d           0.002  -0.004   0.002  0.00  0.00     0.066 H 
ATOM     13  H2  <0> d           1.010   1.463   0.000  0.00  0.00     0.066 H 
ATOM     14  H3  <0> d          -0.523   1.437   0.905  0.00  0.00     0.066 H 
ENDBRANCH  10  11
ENDBRANCH   1  10
BRANCH   6  15
ATOM     15  O2  <0> d          -2.009   2.651  -3.353  0.00  0.00    -0.357 OA
ATOM     16  H7  <0> d          -2.929   2.405  -3.183  0.00  0.00     0.218 HD
ENDBRANCH   6  15
TORSDOF 3
