REMARK  6 active torsions:
REMARK  status: ('A' for Active; 'I' for Inactive)
REMARK    1  A    between atoms: C1_1  and  C2_2 
REMARK    2  A    between atoms: C2_2  and  C3_4 
REMARK    3  A    between atoms: C2_2  and  C4_6 
REMARK    4  A    between atoms: C3_4  and  O1_5 
REMARK    5  A    between atoms: C4_6  and  O3_8 
REMARK    6  A    between atoms: O3_8  and  C5_9 
ROOT
ATOM      1  C2  <0> d           0.657  -2.104  -1.120  0.00  0.00     0.047 C 
ATOM      2  H1  <0> d          -0.355  -2.507  -1.129  0.00  0.00     0.058 H 
ENDROOT
BRANCH   1   3
ATOM      3  C1  <0> d           1.412  -2.647   0.096  0.00  0.00    -0.062 C 
ATOM      4  H2  <0> d           1.454  -3.735   0.040  0.00  0.00     0.028 H 
ATOM      5  H3  <0> d           2.424  -2.244   0.105  0.00  0.00     0.028 H 
ATOM      6  H4  <0> d           0.893  -2.350   1.007  0.00  0.00     0.028 H 
ENDBRANCH   1   3
BRANCH   1   7
ATOM      7  C3  <0> d           1.385  -2.521  -2.400  0.00  0.00     0.028 C 
ATOM      8  H5  <0> d           0.899  -2.060  -3.260  0.00  0.00     0.075 H 
ATOM      9  H6  <0> d           2.423  -2.193  -2.350  0.00  0.00     0.075 H 
BRANCH   7  10
ATOM     10  O1  <0> d           1.339  -3.943  -2.531  0.00  0.00    -0.400 OA
ATOM     11  H7  <0> d           1.782  -4.279  -3.323  0.00  0.00     0.209 HD
ENDBRANCH   7  10
ENDBRANCH   1   7
BRANCH   1  12
ATOM     12  C4  <0> d           0.598  -0.600  -1.043  0.00  0.00     0.264 C 
ATOM     13  O2  <0> d           1.088   0.070  -1.921  0.00  0.00    -0.265 OA
BRANCH  12  14
ATOM     14  O3  <0> d           0.002  -0.004   0.002  0.00  0.00    -0.326 OA
BRANCH  14  15
ATOM     15  C5  <0> d          -0.018   1.448   0.010  0.00  0.00     0.013 C 
ATOM     16  H8  <0> d           1.005   1.825   0.002  0.00  0.00     0.067 H 
ATOM     17  H9  <0> d          -0.545   1.809  -0.873  0.00  0.00     0.067 H 
ATOM     18  H10 <0> d          -0.528   1.799   0.907  0.00  0.00     0.067 H 
ENDBRANCH  14  15
ENDBRANCH  12  14
ENDBRANCH   1  12
TORSDOF 6
