REMARK  5 active torsions:
REMARK  status: ('A' for Active; 'I' for Inactive)
REMARK    1  A    between atoms: C4_4  and  C7_7 
REMARK    2  A    between atoms: C7_7  and  C8_8 
REMARK    3  A    between atoms: C8_8  and  C9_10 
REMARK    4  A    between atoms: C8_8  and  O2_12 
REMARK    5  A    between atoms: C9_10  and  O1_11 
ROOT
ATOM      1  C7  <0> d          -2.553   3.869   0.047  0.00  0.00    -0.015 C 
ATOM      2  H7  <0> d          -3.299   3.267   0.565  0.00  0.00     0.044 H 
ATOM      3  H8  <0> d          -2.430   4.820   0.565  0.00  0.00     0.044 H 
ENDROOT
BRANCH   1   4
ATOM      4  C4  <0> d          -1.238   3.133   0.030  0.00  0.00    -0.056 A 
ATOM      5  C3  <0> d          -1.219   1.751   0.017  0.00  0.00    -0.077 A 
ATOM      6  C2  <0> d          -0.013   1.076   0.008  0.00  0.00    -0.082 A 
ATOM      7  H4  <0> d          -2.147   1.198   0.019  0.00  0.00     0.084 H 
ATOM      8  C1  <0> d           1.175   1.783   0.000  0.00  0.00    -0.083 A 
ATOM      9  H3  <0> d           0.002  -0.004   0.002  0.00  0.00     0.083 H 
ATOM     10  C6  <0> d           1.156   3.165   0.008  0.00  0.00    -0.082 A 
ATOM     11  H2  <0> d           2.118   1.256  -0.011  0.00  0.00     0.083 H 
ATOM     12  C5  <0> d          -0.050   3.840   0.022  0.00  0.00    -0.077 A 
ATOM     13  H6  <0> d           2.084   3.718   0.001  0.00  0.00     0.083 H 
ATOM     14  H5  <0> d          -0.065   4.920   0.028  0.00  0.00     0.084 H 
ENDBRANCH   1   4
BRANCH   1  15
ATOM     15  C8  <0> d          -3.012   4.125  -1.390  0.00  0.00     0.059 C 
ATOM     16  H1  <0> d          -2.227   4.650  -1.934  0.00  0.00     0.086 H 
BRANCH  15  17
ATOM     17  C9  <0> d          -4.281   4.979  -1.375  0.00  0.00     0.041 C 
ATOM     18  H9  <0> d          -5.091   4.418  -0.909  0.00  0.00     0.077 H 
ATOM     19  H10 <0> d          -4.098   5.891  -0.808  0.00  0.00     0.077 H 
BRANCH  17  20
ATOM     20  O1  <0> d          -4.645   5.316  -2.715  0.00  0.00    -0.398 OA
ATOM     21  H11 <0> d          -5.442   5.858  -2.782  0.00  0.00     0.209 HD
ENDBRANCH  17  20
ENDBRANCH  15  17
BRANCH  15  22
ATOM     22  O2  <0> d          -3.284   2.878  -2.033  0.00  0.00    -0.393 OA
ATOM     23  H12 <0> d          -3.975   2.356  -1.601  0.00  0.00     0.210 HD
ENDBRANCH  15  22
ENDBRANCH   1  15
TORSDOF 5
