REMARK  7 active torsions:
REMARK  status: ('A' for Active; 'I' for Inactive)
REMARK    1  A    between atoms: C1_1  and  C2_2 
REMARK    2  A    between atoms: C1_1  and  N1_4 
REMARK    3  A    between atoms: C2_2  and  O1_3 
REMARK    4  A    between atoms: N1_4  and  C3_5 
REMARK    5  A    between atoms: N1_4  and  C4_7 
REMARK    6  A    between atoms: C3_5  and  O2_6 
REMARK    7  A    between atoms: C4_7  and  O3_8 
ROOT
ATOM      1  N1  <0> d           1.345   2.073   0.153  0.00  0.00     0.135 N 
ENDROOT
BRANCH   1   2
ATOM      2  C1  <0> d           0.043   1.433  -0.074  0.00  0.00     0.137 C 
ATOM      3  H1  <0> d          -0.711   1.911   0.551  0.00  0.00     0.083 H 
ATOM      4  H2  <0> d           0.109   0.375   0.181  0.00  0.00     0.083 H 
BRANCH   2   5
ATOM      5  C2  <0> d          -0.348   1.580  -1.546  0.00  0.00     0.042 C 
ATOM      6  H3  <0> d          -1.344   1.166  -1.700  0.00  0.00     0.076 H 
ATOM      7  H4  <0> d          -0.347   2.635  -1.819  0.00  0.00     0.076 H 
BRANCH   5   8
ATOM      8  O1  <0> d           0.592   0.876  -2.361  0.00  0.00    -0.399 OA
ATOM      9  H5  <0> d           0.406   0.926  -3.308  0.00  0.00     0.209 HD
ENDBRANCH   5   8
ENDBRANCH   2   5
ENDBRANCH   1   2
BRANCH   1  10
ATOM     10  C3  <0> d           1.213   3.536   0.192  0.00  0.00     0.196 C 
ATOM     11  H6  <0> d           0.442   3.850  -0.510  0.00  0.00     0.122 H 
ATOM     12  H7  <0> d           0.937   3.849   1.199  0.00  0.00     0.122 H 
BRANCH  10  13
ATOM     13  O2  <0> d           2.459   4.137  -0.168  0.00  0.00    -0.373 OA
ATOM     14  H8  <0> d           2.445   5.103  -0.163  0.00  0.00     0.211 HD
ENDBRANCH  10  13
ENDBRANCH   1  10
BRANCH   1  15
ATOM     15  C4  <0> d           1.974   1.568   1.381  0.00  0.00     0.196 C 
ATOM     16  H9  <0> d           1.599   2.128   2.237  0.00  0.00     0.122 H 
ATOM     17  H10 <0> d           1.733   0.512   1.504  0.00  0.00     0.122 H 
BRANCH  15  18
ATOM     18  O3  <0> d           3.391   1.726   1.290  0.00  0.00    -0.373 OA
ATOM     19  H11 <0> d           3.872   1.413   2.069  0.00  0.00     0.211 HD
ENDBRANCH  15  18
ENDBRANCH   1  15
TORSDOF 7
