REMARK  1 active torsions:
REMARK  status: ('A' for Active; 'I' for Inactive)
REMARK    1  A    between atoms: C5_6  and  C6_7 
REMARK       I    between atoms: C6_7  and  N2_9 
ROOT
ATOM      1  C1  <0> d          -1.198   3.824   0.034  0.00  0.00    -0.049 A 
ATOM      2  C2  <0> d           0.029   4.460   0.026  0.00  0.00     0.003 A 
ATOM      3  N1  <0> d           1.151   3.768   0.011  0.00  0.00    -0.271 NA
ATOM      4  C3  <0> d           1.160   2.450   0.004  0.00  0.00     0.024 A 
ATOM      5  C4  <0> d          -0.021   1.732   0.012  0.00  0.00     0.067 A 
ATOM      6  C5  <0> d          -1.237   2.426   0.021  0.00  0.00     0.056 A 
ATOM      7 Cl1  <0> d           0.002  -0.004   0.002  0.00  0.00    -0.082 Cl
ATOM      8  H1  <0> d          -2.112   4.397   0.045  0.00  0.00     0.087 H 
ATOM      9  H2  <0> d           0.069   5.539   0.031  0.00  0.00     0.114 H 
ATOM     10  H3  <0> d           2.104   1.924  -0.007  0.00  0.00     0.117 H 
ENDROOT
BRANCH   6  11
ATOM     11  C6  <0> d          -2.528   1.701   0.023  0.00  0.00     0.251 C 
ATOM     12  O1  <0> d          -2.542   0.486   0.017  0.00  0.00    -0.268 OA
ATOM     13  N2  <0> d          -3.687   2.388   0.032  0.00  0.00    -0.366 N 
ATOM     14  H4  <0> d          -3.675   3.358   0.037  0.00  0.00     0.159 HD
ATOM     15  H5  <0> d          -4.533   1.913   0.034  0.00  0.00     0.159 HD
ENDBRANCH   6  11
TORSDOF 1
