REMARK  0 active torsions:
REMARK  status: ('A' for Active; 'I' for Inactive)
ROOT
ATOM      1  C1  <0> d          -0.016   1.351   0.009  0.00  0.00    -0.065 A 
ATOM      2  C2  <0> d           1.308   1.801  -0.001  0.00  0.00    -0.050 A 
ATOM      3  C3  <0> d           2.112   0.685  -0.014  0.00  0.00     0.112 A 
ATOM      4  C4  <0> d           3.564   0.490  -0.029  0.00  0.00     0.288 A 
ATOM      5  O1  <0> d           4.324   1.442  -0.031  0.00  0.00    -0.264 OA
ATOM      6  N1  <0> d           4.036  -0.777  -0.041  0.00  0.00    -0.238 N 
ATOM      7  H1  <0> d           4.992  -0.939  -0.050  0.00  0.00     0.192 HD
ATOM      8  N2  <0> d           3.144  -1.855  -0.038  0.00  0.00    -0.125 NA
ATOM      9  C5  <0> d           1.860  -1.688  -0.025  0.00  0.00     0.301 A 
ATOM     10  N3  <0> d           1.292  -0.428  -0.013  0.00  0.00    -0.278 N 
ATOM     11  C6  <0> d           0.002  -0.004   0.002  0.00  0.00    -0.011 A 
ATOM     12  O2  <0> d           1.054  -2.777  -0.023  0.00  0.00    -0.147 OA
ATOM     13  H2  <0> d          -0.898   1.974   0.025  0.00  0.00     0.085 H 
ATOM     14  H3  <0> d           1.637   2.829   0.001  0.00  0.00     0.087 H 
ATOM     15  H4  <0> d          -0.868  -0.643   0.007  0.00  0.00     0.112 H 
ENDROOT
TORSDOF 0
