REMARK  1 active torsions:
REMARK  status: ('A' for Active; 'I' for Inactive)
REMARK    1  A    between atoms: C3_3  and  C4_7 
ROOT
ATOM      1  C1  <0> d          -0.016   1.346   0.009  0.00  0.00     0.019 A 
ATOM      2  C2  <0> d           1.267   1.776  -0.001  0.00  0.00     0.077 A 
ATOM      3  C3  <0> d           2.098   0.650  -0.015  0.00  0.00     0.082 A 
ATOM      4  N1  <0> d           1.341  -0.417  -0.013  0.00  0.00    -0.178 NA
ATOM      5  N2  <0> d           0.002  -0.004   0.002  0.00  0.00    -0.287 N 
ATOM      6  H1  <0> d          -0.774  -0.585   0.007  0.00  0.00     0.188 HD
ATOM      7 Cl1  <0> d           1.791   3.431   0.003  0.00  0.00    -0.081 Cl
ATOM      8  H2  <0> d          -0.897   1.971   0.025  0.00  0.00     0.116 H 
ENDROOT
BRANCH   3   9
ATOM      9  C4  <0> d           3.605   0.664  -0.030  0.00  0.00    -0.008 A 
ATOM     10  C6  <0> d           4.306  -0.003  -1.215  0.00  0.00    -0.056 A 
ATOM     11  C5  <0> d           4.325  -0.673   0.160  0.00  0.00    -0.056 A 
ATOM     12  H6  <0> d           3.677  -0.451  -1.984  0.00  0.00     0.034 H 
ATOM     13  H7  <0> d           5.233   0.447  -1.569  0.00  0.00     0.034 H 
ATOM     14  H4  <0> d           5.266  -0.663   0.711  0.00  0.00     0.034 H 
ATOM     15  H5  <0> d           3.710  -1.562   0.296  0.00  0.00     0.034 H 
ATOM     16  H3  <0> d           4.071   1.552   0.396  0.00  0.00     0.050 H 
ENDBRANCH   3   9
TORSDOF 1
