REMARK  5 active torsions:
REMARK  status: ('A' for Active; 'I' for Inactive)
REMARK    1  A    between atoms: C1_1  and  C2_2 
REMARK    2  A    between atoms: C2_2  and  C3_3 
REMARK    3  A    between atoms: C2_2  and  C4_4 
REMARK    4  A    between atoms: C4_4  and  C5_6 
REMARK    5  A    between atoms: C4_4  and  N1_8 
REMARK       I    between atoms: N1_8  and  C6_9 
REMARK       I    between atoms: C6_9  and  N2_11 
ROOT
ATOM      1  C4  <0> d          -2.484   3.687   0.034  0.00  0.00     0.100 C 
ATOM      2  H1  <0> d          -3.215   3.132  -0.555  0.00  0.00     0.090 H 
ENDROOT
BRANCH   1   3
ATOM      3  C2  <0> d          -2.294   5.080  -0.569  0.00  0.00    -0.032 C 
ATOM      4  H5  <0> d          -1.563   5.634   0.020  0.00  0.00     0.042 H 
BRANCH   3   5
ATOM      5  C1  <0> d          -1.794   4.948  -2.009  0.00  0.00    -0.071 C 
ATOM      6  H2  <0> d          -1.659   5.941  -2.439  0.00  0.00     0.028 H 
ATOM      7  H3  <0> d          -0.843   4.416  -2.017  0.00  0.00     0.028 H 
ATOM      8  H4  <0> d          -2.525   4.394  -2.598  0.00  0.00     0.028 H 
ENDBRANCH   3   5
BRANCH   3   9
ATOM      9  C3  <0> d          -3.629   5.827  -0.559  0.00  0.00    -0.071 C 
ATOM     10  H6  <0> d          -3.985   5.920   0.467  0.00  0.00     0.028 H 
ATOM     11  H7  <0> d          -3.494   6.819  -0.988  0.00  0.00     0.028 H 
ATOM     12  H8  <0> d          -4.360   5.273  -1.148  0.00  0.00     0.028 H 
ENDBRANCH   3   9
ENDBRANCH   1   3
BRANCH   1  13
ATOM     13  C5  <0> d          -2.976   3.816   1.452  0.00  0.00     0.197 C 
ATOM     14  O1  <0> d          -2.326   3.358   2.362  0.00  0.00    -0.646 OA
ATOM     15  O3  <0> d          -4.137   4.440   1.706  0.00  0.00    -0.646 OA
ENDBRANCH   1  13
BRANCH   1  16
ATOM     16  N1  <0> d          -1.206   2.971   0.024  0.00  0.00    -0.328 N 
ATOM     17  C6  <0> d          -1.187   1.624   0.017  0.00  0.00     0.314 C 
ATOM     18  O2  <0> d          -2.232   1.002   0.018  0.00  0.00    -0.248 OA
ATOM     19  N2  <0> d          -0.011   0.966   0.007  0.00  0.00    -0.352 N 
ATOM     20  H10 <0> d           0.002  -0.004   0.002  0.00  0.00     0.160 HD
ATOM     21  H11 <0> d           0.822   1.462   0.002  0.00  0.00     0.160 HD
ATOM     22  H9  <0> d          -0.372   3.468   0.023  0.00  0.00     0.165 HD
ENDBRANCH   1  16
TORSDOF 5
