REMARK  1 active torsions:
REMARK  status: ('A' for Active; 'I' for Inactive)
REMARK    1  A    between atoms: C2_2  and  N5_11 
ROOT
ATOM      1  C1  <0> d          -2.366  -0.057   0.024  0.00  0.00     0.029 A 
ATOM      2  C2  <0> d          -1.173  -0.719   0.009  0.00  0.00     0.146 A 
ATOM      3  N1  <0> d           0.002  -0.004   0.002  0.00  0.00    -0.042 N 
ATOM      4  C3  <0> d          -0.016   1.356   0.009  0.00  0.00     0.755 A 
ATOM      5  N2  <0> d          -1.217   2.031   0.030  0.00  0.00    -0.020 NA
ATOM      6  C4  <0> d          -2.379   1.347   0.032  0.00  0.00     0.287 A 
ATOM      7  O1  <0> d          -3.440   1.948   0.046  0.00  0.00    -0.266 OA
ATOM      8  N3  <0> d           1.234   1.769  -0.000  0.00  0.00    -0.052 NA
ATOM      9  C5  <0> d           2.056   0.720  -0.014  0.00  0.00     0.126 A 
ATOM     10  N4  <0> d           1.352  -0.382  -0.013  0.00  0.00    -0.143 NA
ATOM     11  H1  <0> d          -3.294  -0.610   0.031  0.00  0.00     0.098 H 
ATOM     12  H2  <0> d           3.134   0.772  -0.024  0.00  0.00     0.150 H 
ENDROOT
BRANCH   2  13
ATOM     13  N5  <0> d          -1.146  -2.091   0.001  0.00  0.00    -0.383 N 
ATOM     14  H3  <0> d          -0.182  -2.622  -0.011  0.00  0.00     0.157 HD
ATOM     15  H4  <0> d          -2.087  -2.660   0.007  0.00  0.00     0.157 HD
ENDBRANCH   2  13
TORSDOF 1
