REMARK  4 active torsions:
REMARK  status: ('A' for Active; 'I' for Inactive)
REMARK    1  A    between atoms: C1_1  and  C2_2 
REMARK    2  A    between atoms: C3_3  and  N2_12 
REMARK    3  A    between atoms: C4_4  and  C7_11 
REMARK    4  A    between atoms: C5_7  and  C6_8 
ROOT
ATOM      1  C2  <0> d           0.002  -0.004   0.002  0.00  0.00    -0.000 A 
ATOM      2  C3  <0> d           0.008  -0.830  -1.129  0.00  0.00     0.056 A 
ATOM      3  C4  <0> d           0.029  -2.121  -0.701  0.00  0.00     0.033 A 
ATOM      4  N1  <0> d           0.035  -2.133   0.657  0.00  0.00    -0.352 N 
ATOM      5  H1  <0> d           0.049  -2.926   1.216  0.00  0.00     0.166 HD
ATOM      6  C5  <0> d           0.024  -0.832   1.110  0.00  0.00     0.118 A 
ENDROOT
BRANCH   1   7
ATOM      7  C1  <0> d          -0.018   1.503   0.010  0.00  0.00    -0.047 C 
ATOM      8  H2  <0> d           1.004   1.880   0.003  0.00  0.00     0.033 H 
ATOM      9  H3  <0> d          -0.545   1.864  -0.873  0.00  0.00     0.033 H 
ATOM     10  H4  <0> d          -0.529   1.854   0.907  0.00  0.00     0.033 H 
ENDBRANCH   1   7
BRANCH   6  11
ATOM     11  C6  <0> d           0.032  -0.416   2.466  0.00  0.00     0.227 C 
ATOM     12  O1  <0> d           0.052  -1.251   3.362  0.00  0.00    -0.643 OA
ATOM     13  O2  <0> d           0.018   0.778   2.741  0.00  0.00    -0.643 OA
ENDBRANCH   6  11
BRANCH   2  14
ATOM     14  N2  <0> d          -0.005  -0.400  -2.469  0.00  0.00    -0.397 N 
ATOM     15  H8  <0> d          -0.019   0.548  -2.674  0.00  0.00     0.156 HD
ATOM     16  H9  <0> d           0.001  -1.052  -3.187  0.00  0.00     0.156 HD
ENDBRANCH   2  14
BRANCH   3  17
ATOM     17  C7  <0> d           0.041  -3.338  -1.589  0.00  0.00    -0.035 C 
ATOM     18  H5  <0> d           1.072  -3.617  -1.808  0.00  0.00     0.035 H 
ATOM     19  H6  <0> d          -0.458  -4.163  -1.081  0.00  0.00     0.035 H 
ATOM     20  H7  <0> d          -0.480  -3.115  -2.519  0.00  0.00     0.035 H 
ENDBRANCH   3  17
TORSDOF 4
