REMARK  1 active torsions:
REMARK  status: ('A' for Active; 'I' for Inactive)
REMARK    1  A    between atoms: C1_1  and  C2_2 
ROOT
ATOM      1  C2  <0> d          -1.302   1.651   0.017  0.00  0.00     0.029 C 
ATOM      2  H1  <0> d          -1.725   1.640  -0.987  0.00  0.00     0.075 H 
ATOM      3  C3  <0> d          -1.118   3.099   0.482  0.00  0.00     0.038 C 
ATOM      4  O1  <0> d          -0.048   3.686  -0.268  0.00  0.00    -0.380 OA
ATOM      5  C4  <0> d           1.229   3.126   0.049  0.00  0.00     0.093 C 
ATOM      6  C5  <0> d           1.154   1.625  -0.000  0.00  0.00     0.241 C 
ATOM      7  O2  <0> d           2.186   0.989  -0.048  0.00  0.00    -0.271 OA
ATOM      8  N1  <0> d          -0.011   0.966   0.007  0.00  0.00    -0.353 N 
ATOM      9  H5  <0> d          -0.873   3.117   1.544  0.00  0.00     0.077 H 
ATOM     10  H6  <0> d          -2.037   3.659   0.309  0.00  0.00     0.077 H 
ATOM     11  H7  <0> d           1.524   3.441   1.050  0.00  0.00     0.089 H 
ATOM     12  H8  <0> d           1.967   3.476  -0.672  0.00  0.00     0.089 H 
ATOM     13  H9  <0> d           0.002  -0.004   0.002  0.00  0.00     0.163 HD
ENDROOT
BRANCH   1  14
ATOM     14  C1  <0> d          -2.252   0.929   0.974  0.00  0.00    -0.055 C 
ATOM     15  H2  <0> d          -1.830   0.934   1.979  0.00  0.00     0.030 H 
ATOM     16  H3  <0> d          -3.216   1.439   0.983  0.00  0.00     0.030 H 
ATOM     17  H4  <0> d          -2.389  -0.101   0.643  0.00  0.00     0.030 H 
ENDBRANCH   1  14
TORSDOF 1
