REMARK  9 active torsions:
REMARK  status: ('A' for Active; 'I' for Inactive)
REMARK    1  A    between atoms: C2_2  and  C3_3 
REMARK    2  A    between atoms: C3_3  and  C4_4 
REMARK    3  A    between atoms: C4_4  and  C5_5 
REMARK    4  A    between atoms: C5_5  and  C6_6 
REMARK    5  A    between atoms: C6_6  and  C7_7 
REMARK    6  A    between atoms: C7_7  and  C8_8 
REMARK    7  A    between atoms: C8_8  and  C9_9 
REMARK    8  A    between atoms: C9_9  and  C10_10 
REMARK    9  A    between atoms: C10_10  and  O1_11 
ROOT
ATOM      1  C1  <0> d           7.290  10.688  -0.010  0.00  0.00    -0.154 C 
ATOM      2  C2  <0> d           6.224  10.196  -0.003  0.00  0.00    -0.117 C 
ATOM      3  H1  <0> d           8.289  11.149  -0.017  0.00  0.00     0.166 H 
ENDROOT
BRANCH   2   4
ATOM      4  C3  <0> d           4.888   9.579   0.007  0.00  0.00    -0.010 C 
ATOM      5  H2  <0> d           4.346   9.892   0.912  0.00  0.00     0.051 H 
ATOM      6  H3  <0> d           4.329   9.901  -0.884  0.00  0.00     0.051 H 
BRANCH   4   7
ATOM      7  C4  <0> d           5.029   8.056  -0.003  0.00  0.00    -0.056 C 
ATOM      8  H4  <0> d           5.571   7.744  -0.908  0.00  0.00     0.034 H 
ATOM      9  H5  <0> d           5.588   7.734   0.888  0.00  0.00     0.034 H 
BRANCH   7  10
ATOM     10  C5  <0> d           3.640   7.415   0.007  0.00  0.00    -0.064 C 
ATOM     11  H6  <0> d           3.099   7.727   0.912  0.00  0.00     0.033 H 
ATOM     12  H7  <0> d           3.081   7.736  -0.884  0.00  0.00     0.033 H 
BRANCH  10  13
ATOM     13  C6  <0> d           3.782   5.891  -0.002  0.00  0.00    -0.065 C 
ATOM     14  H8  <0> d           4.323   5.579  -0.907  0.00  0.00     0.033 H 
ATOM     15  H9  <0> d           4.340   5.569   0.889  0.00  0.00     0.033 H 
BRANCH  13  16
ATOM     16  C7  <0> d           2.393   5.250   0.007  0.00  0.00    -0.065 C 
ATOM     17  H10 <0> d           1.851   5.562   0.912  0.00  0.00     0.033 H 
ATOM     18  H11 <0> d           1.834   5.572  -0.884  0.00  0.00     0.033 H 
BRANCH  16  19
ATOM     19  C8  <0> d           2.534   3.726  -0.002  0.00  0.00    -0.063 C 
ATOM     20  H12 <0> d           3.076   3.414  -0.907  0.00  0.00     0.033 H 
ATOM     21  H13 <0> d           3.093   3.405   0.889  0.00  0.00     0.033 H 
BRANCH  19  22
ATOM     22  C9  <0> d           1.145   3.085   0.008  0.00  0.00    -0.045 C 
ATOM     23  H14 <0> d           0.603   3.397   0.913  0.00  0.00     0.036 H 
ATOM     24  H15 <0> d           0.586   3.407  -0.883  0.00  0.00     0.036 H 
BRANCH  22  25
ATOM     25  C10 <0> d           1.286   1.562  -0.002  0.00  0.00     0.017 C 
ATOM     26  H16 <0> d           1.828   1.250  -0.907  0.00  0.00     0.073 H 
ATOM     27  H17 <0> d           1.845   1.240   0.889  0.00  0.00     0.073 H 
BRANCH  25  28
ATOM     28  O1  <0> d          -0.011   0.963   0.007  0.00  0.00    -0.401 OA
ATOM     29  H18 <0> d          -0.111  -0.133   0.002  0.00  0.00     0.209 HD
ENDBRANCH  25  28
ENDBRANCH  22  25
ENDBRANCH  19  22
ENDBRANCH  16  19
ENDBRANCH  13  16
ENDBRANCH  10  13
ENDBRANCH   7  10
ENDBRANCH   4   7
ENDBRANCH   2   4
TORSDOF 9
