REMARK  6 active torsions:
REMARK  status: ('A' for Active; 'I' for Inactive)
REMARK    1  A    between atoms: C1_1  and  N1_2 
REMARK    2  A    between atoms: N1_2  and  C2_3 
REMARK    3  A    between atoms: N1_2  and  S1_4 
REMARK    4  A    between atoms: S1_4  and  C3_7 
REMARK    5  A    between atoms: C3_7  and  C4_8 
REMARK    6  A    between atoms: C4_8  and  O3_9 
ROOT
ATOM      1  S1  <0> d           2.792   3.845  -0.004  0.00  0.00     0.229 S 
ATOM      2  O1  <0> d           3.460   3.585   1.223  0.00  0.00    -0.206 OA
ATOM      3  O2  <0> d           3.436   3.598  -1.246  0.00  0.00    -0.206 OA
ENDROOT
BRANCH   1   4
ATOM      4  N1  <0> d           2.507   5.477   0.007  0.00  0.00    -0.319 N 
BRANCH   4   5
ATOM      5  C1  <0> d           2.394   6.192   1.281  0.00  0.00    -0.009 C 
ATOM      6  H1  <0> d           2.525   5.483   2.112  0.00  0.00     0.057 H 
ATOM      7  H2  <0> d           1.401   6.660   1.352  0.00  0.00     0.057 H 
ATOM      8  H3  <0> d           3.171   6.968   1.336  0.00  0.00     0.057 H 
ENDBRANCH   4   5
BRANCH   4   9
ATOM      9  C2  <0> d           2.370   6.205  -1.256  0.00  0.00    -0.009 C 
ATOM     10  H4  <0> d           2.484   5.506  -2.097  0.00  0.00     0.057 H 
ATOM     11  H5  <0> d           3.145   6.983  -1.317  0.00  0.00     0.057 H 
ATOM     12  H6  <0> d           1.376   6.674  -1.302  0.00  0.00     0.057 H 
ENDBRANCH   4   9
ENDBRANCH   1   4
BRANCH   1  13
ATOM     13  C3  <0> d           1.145   3.085   0.008  0.00  0.00     0.066 C 
ATOM     14  H7  <0> d           0.603   3.397   0.913  0.00  0.00     0.062 H 
ATOM     15  H8  <0> d           0.586   3.407  -0.883  0.00  0.00     0.062 H 
BRANCH  13  16
ATOM     16  C4  <0> d           1.286   1.562  -0.002  0.00  0.00     0.030 C 
ATOM     17  H9  <0> d           1.828   1.250  -0.907  0.00  0.00     0.075 H 
ATOM     18  H10 <0> d           1.845   1.240   0.889  0.00  0.00     0.075 H 
BRANCH  16  19
ATOM     19  O3  <0> d          -0.011   0.963   0.007  0.00  0.00    -0.400 OA
ATOM     20  H11 <0> d          -0.111  -0.133   0.002  0.00  0.00     0.209 HD
ENDBRANCH  16  19
ENDBRANCH  13  16
ENDBRANCH   1  13
TORSDOF 6
