REMARK  3 active torsions:
REMARK  status: ('A' for Active; 'I' for Inactive)
REMARK    1  A    between atoms: C1_1  and  S1_2 
REMARK    2  A    between atoms: S1_2  and  C2_3 
REMARK    3  A    between atoms: C5_6  and  N1_9 
ROOT
ATOM      1  C2  <0> d           1.177   2.087   0.002  0.00  0.00    -0.000 A 
ATOM      2  C3  <0> d          -0.017   1.377   0.010  0.00  0.00    -0.065 A 
ATOM      3  C4  <0> d           0.002  -0.004   0.002  0.00  0.00    -0.056 A 
ATOM      4  C5  <0> d           1.214  -0.682  -0.013  0.00  0.00     0.025 A 
ATOM      5  C6  <0> d           2.407   0.028  -0.020  0.00  0.00    -0.056 A 
ATOM      6  C7  <0> d           2.389   1.409  -0.013  0.00  0.00    -0.065 A 
ATOM      7  H4  <0> d          -0.959   1.904   0.017  0.00  0.00     0.085 H 
ATOM      8  H5  <0> d          -0.926  -0.557   0.008  0.00  0.00     0.086 H 
ATOM      9  H6  <0> d           3.349  -0.499  -0.031  0.00  0.00     0.086 H 
ATOM     10  H7  <0> d           3.317   1.961  -0.019  0.00  0.00     0.085 H 
ENDROOT
BRANCH   1  11
ATOM     11  S1  <0> d           1.153   3.849   0.011  0.00  0.00    -0.134 SA
BRANCH  11  12
ATOM     12  C1  <0> d           2.907   4.311  -0.003  0.00  0.00    -0.030 C 
ATOM     13  H1  <0> d           3.398   3.903   0.880  0.00  0.00     0.042 H 
ATOM     14  H2  <0> d           3.381   3.912  -0.899  0.00  0.00     0.042 H 
ATOM     15  H3  <0> d           2.997   5.398   0.002  0.00  0.00     0.042 H 
ENDBRANCH  11  12
ENDBRANCH   1  11
BRANCH   4  16
ATOM     16  N1  <0> d           1.233  -2.082  -0.021  0.00  0.00    -0.399 N 
ATOM     17  H8  <0> d           0.399  -2.578  -0.016  0.00  0.00     0.156 HD
ATOM     18  H9  <0> d           2.079  -2.556  -0.032  0.00  0.00     0.156 HD
ENDBRANCH   4  16
TORSDOF 3
