REMARK  1 active torsions:
REMARK  status: ('A' for Active; 'I' for Inactive)
REMARK    1  A    between atoms: C6_7  and  O1_13 
ROOT
ATOM      1  C1  <0> d           4.135   0.862  -2.330  0.00  0.00    -0.064 C 
ATOM      2  C2  <0> d           3.219  -0.373  -2.139  0.00  0.00    -0.061 C 
ATOM      3  C3  <0> d           2.220   0.029  -1.059  0.00  0.00    -0.051 C 
ATOM      4  H1  <0> d           2.630  -0.198  -0.075  0.00  0.00     0.040 H 
ATOM      5  C4  <0> d           0.824  -0.549  -1.178  0.00  0.00    -0.059 C 
ATOM      6  C5  <0> d           0.002  -0.004   0.002  0.00  0.00    -0.041 C 
ATOM      7  C6  <0> d          -0.019   1.522   0.010  0.00  0.00     0.036 C 
ATOM      8  H2  <0> d          -0.555   1.875  -0.870  0.00  0.00     0.082 H 
ATOM      9  C7  <0> d           1.404   2.104  -0.000  0.00  0.00    -0.037 C 
ATOM     10  C8  <0> d           2.101   1.567  -1.236  0.00  0.00    -0.048 C 
ATOM     11  H3  <0> d           1.536   1.804  -2.138  0.00  0.00     0.040 H 
ATOM     12  C9  <0> d           3.570   1.974  -1.404  0.00  0.00    -0.061 C 
ATOM     13  H4  <0> d           4.108   1.191  -3.369  0.00  0.00     0.033 H 
ATOM     14  H5  <0> d           5.157   0.618  -2.041  0.00  0.00     0.033 H 
ATOM     15  H6  <0> d           3.805  -1.231  -1.812  0.00  0.00     0.033 H 
ATOM     16  H7  <0> d           2.697  -0.603  -3.068  0.00  0.00     0.033 H 
ATOM     17  H8  <0> d           0.867  -1.637  -1.129  0.00  0.00     0.033 H 
ATOM     18  H9  <0> d           0.372  -0.237  -2.120  0.00  0.00     0.033 H 
ATOM     19  H10 <0> d           0.439  -0.360   0.935  0.00  0.00     0.036 H 
ATOM     20  H11 <0> d          -1.020  -0.374  -0.076  0.00  0.00     0.036 H 
ATOM     21  H12 <0> d           1.359   3.192  -0.043  0.00  0.00     0.037 H 
ATOM     22  H13 <0> d           1.941   1.789   0.895  0.00  0.00     0.037 H 
ATOM     23  H14 <0> d           3.647   2.950  -1.882  0.00  0.00     0.033 H 
ATOM     24  H15 <0> d           4.082   1.975  -0.442  0.00  0.00     0.033 H 
ENDROOT
BRANCH   7  25
ATOM     25  O1  <0> d          -0.700   1.973   1.183  0.00  0.00    -0.396 OA
ATOM     26  H16 <0> d          -1.616   1.671   1.246  0.00  0.00     0.210 HD
ENDBRANCH   7  25
TORSDOF 1
