REMARK  0 active torsions:
REMARK  status: ('A' for Active; 'I' for Inactive)
ROOT
ATOM      1  C1  <0> d           3.490   3.618  -0.013  0.00  0.00    -0.082 A 
ATOM      2  C2  <0> d           3.568   2.227  -0.021  0.00  0.00    -0.082 A 
ATOM      3  C3  <0> d           2.442   1.461  -0.013  0.00  0.00    -0.069 A 
ATOM      4  C4  <0> d           1.185   2.082   0.002  0.00  0.00     0.016 A 
ATOM      5  C5  <0> d           1.104   3.499   0.010  0.00  0.00    -0.005 A 
ATOM      6  C6  <0> d           2.287   4.255   0.002  0.00  0.00    -0.071 A 
ATOM      7  C7  <0> d          -0.165   4.100   0.025  0.00  0.00     0.013 A 
ATOM      8  N1  <0> d          -1.243   3.352   0.031  0.00  0.00    -0.269 NA
ATOM      9  C8  <0> d          -1.199   2.027   0.019  0.00  0.00     0.040 A 
ATOM     10  C9  <0> d          -0.016   1.347   0.009  0.00  0.00     0.144 A 
ATOM     11  F1  <0> d           0.002  -0.004   0.002  0.00  0.00    -0.204 F 
ATOM     12  H1  <0> d           4.400   4.201  -0.018  0.00  0.00     0.083 H 
ATOM     13  H2  <0> d           4.536   1.748  -0.033  0.00  0.00     0.083 H 
ATOM     14  H3  <0> d           2.516   0.383  -0.019  0.00  0.00     0.085 H 
ATOM     15  H4  <0> d           2.243   5.334   0.008  0.00  0.00     0.084 H 
ATOM     16  H5  <0> d          -0.253   5.176   0.031  0.00  0.00     0.116 H 
ATOM     17  H6  <0> d          -2.125   1.471   0.020  0.00  0.00     0.119 H 
ENDROOT
TORSDOF 0
