REMARK  4 active torsions:
REMARK  status: ('A' for Active; 'I' for Inactive)
REMARK    1  A    between atoms: C1_1  and  C2_2 
REMARK    2  A    between atoms: C2_2  and  C3_3 
REMARK    3  A    between atoms: C4_4  and  C7_11 
REMARK    4  A    between atoms: C6_7  and  N3_9 
ROOT
ATOM      1  C3  <0> d           0.707  -0.490  -1.238  0.00  0.00     0.064 A 
ATOM      2  C4  <0> d           2.035  -0.802  -1.188  0.00  0.00     0.032 A 
ATOM      3  C5  <0> d           2.671  -1.253  -2.358  0.00  0.00     0.267 A 
ATOM      4  N1  <0> d           1.945  -1.362  -3.491  0.00  0.00    -0.154 N 
ATOM      5  C6  <0> d           0.624  -1.037  -3.481  0.00  0.00     0.701 A 
ATOM      6  N2  <0> d           0.033  -0.620  -2.378  0.00  0.00    -0.069 NA
ATOM      7  O1  <0> d           3.857  -1.540  -2.350  0.00  0.00    -0.267 OA
ATOM      8  H8  <0> d           2.363  -1.671  -4.310  0.00  0.00     0.187 HD
ENDROOT
BRANCH   1   9
ATOM      9  C2  <0> d           0.002  -0.004   0.002  0.00  0.00    -0.027 C 
ATOM     10  H4  <0> d           0.529  -0.365   0.885  0.00  0.00     0.041 H 
ATOM     11  H5  <0> d          -1.020  -0.381   0.010  0.00  0.00     0.041 H 
BRANCH   9  12
ATOM     12  C1  <0> d          -0.019   1.526   0.010  0.00  0.00    -0.071 C 
ATOM     13  H1  <0> d           1.004   1.903   0.003  0.00  0.00     0.028 H 
ATOM     14  H2  <0> d          -0.546   1.887  -0.873  0.00  0.00     0.028 H 
ATOM     15  H3  <0> d          -0.529   1.877   0.907  0.00  0.00     0.028 H 
ENDBRANCH   9  12
ENDBRANCH   1   9
BRANCH   2  16
ATOM     16  C7  <0> d           2.807  -0.664   0.099  0.00  0.00    -0.044 C 
ATOM     17  H9  <0> d           2.756  -1.601   0.655  0.00  0.00     0.033 H 
ATOM     18  H10 <0> d           3.848  -0.431  -0.125  0.00  0.00     0.033 H 
ATOM     19  H11 <0> d           2.375   0.138   0.697  0.00  0.00     0.033 H 
ENDBRANCH   2  16
BRANCH   5  20
ATOM     20  N3  <0> d          -0.106  -1.150  -4.633  0.00  0.00    -0.233 N 
ATOM     21  H6  <0> d           0.319  -1.460  -5.448  0.00  0.00     0.174 HD
ATOM     22  H7  <0> d          -1.049  -0.920  -4.635  0.00  0.00     0.174 HD
ENDBRANCH   5  20
TORSDOF 4
