REMARK  4 active torsions:
REMARK  status: ('A' for Active; 'I' for Inactive)
REMARK    1  A    between atoms: C2_2  and  C3_3 
REMARK    2  A    between atoms: C3_3  and  C4_4 
REMARK    3  A    between atoms: C4_4  and  C5_6 
REMARK    4  A    between atoms: C4_4  and  O1_12 
ROOT
ATOM      1  C1  <0> d          -1.292   1.962  -2.136  0.00  0.00    -0.154 C 
ATOM      2  C2  <0> d          -0.725   1.573  -1.185  0.00  0.00    -0.115 C 
ATOM      3  H2  <0> d          -1.800   2.310  -2.986  0.00  0.00     0.166 H 
ENDROOT
BRANCH   2   4
ATOM      4  C3  <0> d          -0.013   1.086   0.008  0.00  0.00     0.018 C 
ATOM      5  H3  <0> d           0.002  -0.004   0.002  0.00  0.00     0.056 H 
ATOM      6  H4  <0> d           1.010   1.463   0.000  0.00  0.00     0.056 H 
BRANCH   4   7
ATOM      7  C4  <0> d          -0.729   1.579   1.267  0.00  0.00     0.070 C 
ATOM      8  H1  <0> d          -1.776   1.277   1.232  0.00  0.00     0.091 H 
BRANCH   7   9
ATOM      9  C5  <0> d          -0.074   0.981   2.485  0.00  0.00    -0.029 A 
ATOM     10  C10 <0> d          -0.584  -0.175   3.047  0.00  0.00    -0.074 A 
ATOM     11  C9  <0> d           0.017  -0.724   4.164  0.00  0.00    -0.082 A 
ATOM     12  H9  <0> d          -1.453  -0.648   2.613  0.00  0.00     0.084 H 
ATOM     13  C8  <0> d           1.128  -0.118   4.719  0.00  0.00    -0.083 A 
ATOM     14  H8  <0> d          -0.383  -1.626   4.603  0.00  0.00     0.083 H 
ATOM     15  C7  <0> d           1.639   1.036   4.157  0.00  0.00    -0.082 A 
ATOM     16  H7  <0> d           1.597  -0.547   5.592  0.00  0.00     0.083 H 
ATOM     17  C6  <0> d           1.041   1.583   3.037  0.00  0.00    -0.074 A 
ATOM     18  H6  <0> d           2.508   1.510   4.590  0.00  0.00     0.083 H 
ATOM     19  H5  <0> d           1.443   2.483   2.595  0.00  0.00     0.084 H 
ENDBRANCH   7   9
BRANCH   7  20
ATOM     20  O1  <0> d          -0.647   3.004   1.334  0.00  0.00    -0.390 OA
ATOM     21  H10 <0> d           0.258   3.345   1.368  0.00  0.00     0.210 HD
ENDBRANCH   7  20
ENDBRANCH   4   7
ENDBRANCH   2   4
TORSDOF 4
