REMARK  5 active torsions:
REMARK  status: ('A' for Active; 'I' for Inactive)
REMARK    1  A    between atoms: C1_1  and  C2_2 
REMARK    2  A    between atoms: C2_2  and  C3_3 
REMARK    3  A    between atoms: C4_4  and  C7_10 
REMARK    4  A    between atoms: C5_5  and  C6_9 
REMARK    5  A    between atoms: C7_10  and  O1_11 
ROOT
ATOM      1  C3  <0> d           0.707  -0.490  -1.238  0.00  0.00     0.038 A 
ATOM      2  C4  <0> d           2.043  -0.652  -1.384  0.00  0.00     0.015 A 
ATOM      3  C5  <0> d           2.280  -1.119  -2.681  0.00  0.00     0.061 A 
ATOM      4  N1  <0> d           1.128  -1.233  -3.292  0.00  0.00    -0.179 NA
ATOM      5  N2  <0> d           0.120  -0.847  -2.399  0.00  0.00    -0.281 N 
ATOM      6  H1  <0> d          -0.832  -0.836  -2.584  0.00  0.00     0.189 HD
ENDROOT
BRANCH   1   7
ATOM      7  C2  <0> d           0.002  -0.004   0.002  0.00  0.00    -0.028 C 
ATOM      8  H5  <0> d           0.529  -0.365   0.885  0.00  0.00     0.041 H 
ATOM      9  H6  <0> d          -1.020  -0.381   0.010  0.00  0.00     0.041 H 
BRANCH   7  10
ATOM     10  C1  <0> d          -0.019   1.526   0.010  0.00  0.00    -0.071 C 
ATOM     11  H2  <0> d           1.004   1.903   0.003  0.00  0.00     0.028 H 
ATOM     12  H3  <0> d          -0.546   1.887  -0.873  0.00  0.00     0.028 H 
ATOM     13  H4  <0> d          -0.529   1.877   0.907  0.00  0.00     0.028 H 
ENDBRANCH   7  10
ENDBRANCH   1   7
BRANCH   2  14
ATOM     14  C7  <0> d           3.090  -0.378  -0.335  0.00  0.00     0.044 C 
ATOM     15  H10 <0> d           4.019  -0.078  -0.819  0.00  0.00     0.081 H 
ATOM     16  H11 <0> d           2.746   0.422   0.320  0.00  0.00     0.081 H 
BRANCH  14  17
ATOM     17  O1  <0> d           3.314  -1.561   0.434  0.00  0.00    -0.396 OA
ATOM     18  H12 <0> d           3.978  -1.458   1.130  0.00  0.00     0.209 HD
ENDBRANCH  14  17
ENDBRANCH   2  14
BRANCH   3  19
ATOM     19  C6  <0> d           3.629  -1.436  -3.273  0.00  0.00    -0.033 C 
ATOM     20  H7  <0> d           3.874  -2.481  -3.082  0.00  0.00     0.035 H 
ATOM     21  H8  <0> d           3.604  -1.259  -4.349  0.00  0.00     0.035 H 
ATOM     22  H9  <0> d           4.385  -0.796  -2.818  0.00  0.00     0.035 H 
ENDBRANCH   3  19
TORSDOF 5
