REMARK  5 active torsions:
REMARK  status: ('A' for Active; 'I' for Inactive)
REMARK    1  A    between atoms: C1_1  and  C2_2 
REMARK    2  A    between atoms: C2_2  and  C3_3 
REMARK    3  A    between atoms: C2_2  and  N1_4 
REMARK    4  A    between atoms: N1_4  and  C4_5 
REMARK    5  A    between atoms: C9_10  and  N2_11 
ROOT
ATOM      1  C4  <0> d          -1.782   0.838   1.730  0.00  0.00     0.054 A 
ATOM      2  C5  <0> d          -2.211  -0.321   1.100  0.00  0.00    -0.055 A 
ATOM      3  C6  <0> d          -3.278  -1.033   1.615  0.00  0.00    -0.081 A 
ATOM      4  C7  <0> d          -3.926  -0.589   2.752  0.00  0.00    -0.081 A 
ATOM      5  C8  <0> d          -3.509   0.567   3.385  0.00  0.00    -0.056 A 
ATOM      6  C9  <0> d          -2.436   1.286   2.878  0.00  0.00     0.052 A 
ATOM      7  H9  <0> d          -1.709  -0.668   0.209  0.00  0.00     0.087 H 
ATOM      8  H10 <0> d          -3.608  -1.937   1.125  0.00  0.00     0.083 H 
ATOM      9  H11 <0> d          -4.762  -1.147   3.148  0.00  0.00     0.083 H 
ATOM     10  H12 <0> d          -4.018   0.912   4.273  0.00  0.00     0.087 H 
ENDROOT
BRANCH   1  11
ATOM     11  N1  <0> d          -0.698   1.558   1.213  0.00  0.00    -0.384 N 
ATOM     12  H8  <0> d          -0.362   2.479   1.712  0.00  0.00     0.160 HD
BRANCH  11  13
ATOM     13  C2  <0> d          -0.013   1.086   0.008  0.00  0.00     0.003 C 
ATOM     14  H4  <0> d          -0.020  -0.014   0.041  0.00  0.00     0.071 H 
BRANCH  13  15
ATOM     15  C1  <0> d           1.423   1.615  -0.003  0.00  0.00    -0.058 C 
ATOM     16  H1  <0> d           1.955   1.251   0.888  0.00  0.00     0.030 H 
ATOM     17  H2  <0> d           1.408   2.715   0.003  0.00  0.00     0.030 H 
ATOM     18  H3  <0> d           1.938   1.261  -0.908  0.00  0.00     0.030 H 
ENDBRANCH  13  15
BRANCH  13  19
ATOM     19  C3  <0> d          -0.753   1.593  -1.232  0.00  0.00    -0.058 C 
ATOM     20  H5  <0> d          -1.785   1.212  -1.224  0.00  0.00     0.030 H 
ATOM     21  H6  <0> d          -0.238   1.238  -2.136  0.00  0.00     0.030 H 
ATOM     22  H7  <0> d          -0.768   2.693  -1.225  0.00  0.00     0.030 H 
ENDBRANCH  13  19
ENDBRANCH  11  13
ENDBRANCH   1  11
BRANCH   6  23
ATOM     23  N2  <0> d          -2.011   2.457   3.516  0.00  0.00    -0.397 N 
ATOM     24  H13 <0> d          -2.529   2.809   4.421  0.00  0.00     0.156 HD
ATOM     25  H14 <0> d          -1.161   3.026   3.112  0.00  0.00     0.156 HD
ENDBRANCH   6  23
TORSDOF 5
