REMARK  3 active torsions:
REMARK  status: ('A' for Active; 'I' for Inactive)
REMARK    1  A    between atoms: C1_1  and  C2_2 
REMARK    2  A    between atoms: C6_7  and  C7_9 
REMARK    3  A    between atoms: C7_9  and  C8_10 
ROOT
ATOM      1  C2  <0> d          -0.809   1.622  -1.200  0.00  0.00    -0.054 C 
ATOM      2  H1  <0> d          -0.367   2.552  -1.555  0.00  0.00     0.040 H 
ATOM      3  C3  <0> d          -0.013   1.086   0.008  0.00  0.00    -0.062 C 
ATOM      4  C4  <0> d          -0.789   1.611   1.242  0.00  0.00    -0.064 C 
ATOM      5  C5  <0> d          -2.268   1.485   0.789  0.00  0.00    -0.061 C 
ATOM      6  C6  <0> d          -2.243   1.875  -0.703  0.00  0.00    -0.042 C 
ATOM      7  H2  <0> d          -2.497   2.929  -0.818  0.00  0.00     0.041 H 
ATOM      8  H6  <0> d           0.002  -0.004   0.002  0.00  0.00     0.033 H 
ATOM      9  H7  <0> d           1.003   1.480   0.000  0.00  0.00     0.033 H 
ATOM     10  H8  <0> d          -0.595   0.987   2.114  0.00  0.00     0.033 H 
ATOM     11  H9  <0> d          -0.534   2.651   1.444  0.00  0.00     0.033 H 
ATOM     12  H10 <0> d          -2.899   2.172   1.353  0.00  0.00     0.033 H 
ATOM     13  H11 <0> d          -2.620   0.460   0.909  0.00  0.00     0.033 H 
ENDROOT
BRANCH   6  14
ATOM     14  C7  <0> d          -3.230   1.010  -1.488  0.00  0.00     0.019 C 
ATOM     15  H12 <0> d          -3.107   1.194  -2.556  0.00  0.00     0.049 H 
ATOM     16  H13 <0> d          -3.039  -0.043  -1.277  0.00  0.00     0.049 H 
BRANCH  14  17
ATOM     17  C8  <0> d          -4.639   1.356  -1.079  0.00  0.00     0.172 C 
ATOM     18  O1  <0> d          -4.833   2.208  -0.244  0.00  0.00    -0.648 OA
ATOM     19  O2  <0> d          -5.677   0.718  -1.641  0.00  0.00    -0.648 OA
ENDBRANCH  14  17
ENDBRANCH   6  14
BRANCH   1  20
ATOM     20  C1  <0> d          -0.819   0.583  -2.323  0.00  0.00    -0.073 C 
ATOM     21  H3  <0> d          -1.262  -0.343  -1.958  0.00  0.00     0.028 H 
ATOM     22  H4  <0> d          -1.405   0.960  -3.161  0.00  0.00     0.028 H 
ATOM     23  H5  <0> d           0.203   0.392  -2.651  0.00  0.00     0.028 H 
ENDBRANCH   1  20
TORSDOF 3
