REMARK  0 active torsions:
REMARK  status: ('A' for Active; 'I' for Inactive)
ROOT
ATOM      1  C1  <0> d          -0.016   1.357   0.009  0.00  0.00    -0.079 A 
ATOM      2  C2  <0> d           1.196   2.067   0.002  0.00  0.00    -0.066 A 
ATOM      3  C3  <0> d           2.373   1.408  -0.013  0.00  0.00     0.004 A 
ATOM      4  N1  <0> d           2.408   0.043  -0.021  0.00  0.00    -0.244 N 
ATOM      5  C4  <0> d           1.240  -0.675  -0.014  0.00  0.00     0.061 A 
ATOM      6  C5  <0> d           0.002  -0.004   0.002  0.00  0.00    -0.055 A 
ATOM      7  C6  <0> d           1.588  -2.020  -0.025  0.00  0.00    -0.014 A 
ATOM      8  C7  <0> d           2.972  -2.094  -0.040  0.00  0.00     0.148 A 
ATOM      9  N2  <0> d           3.466  -0.874  -0.037  0.00  0.00    -0.155 NA
ATOM     10 Cl1  <0> d           3.904  -3.559  -0.057  0.00  0.00    -0.060 Cl
ATOM     11  H1  <0> d          -0.957   1.887   0.026  0.00  0.00     0.083 H 
ATOM     12  H2  <0> d           1.185   3.147   0.007  0.00  0.00     0.085 H 
ATOM     13  H3  <0> d           3.298   1.967  -0.019  0.00  0.00     0.114 H 
ATOM     14  H4  <0> d          -0.922  -0.563   0.007  0.00  0.00     0.087 H 
ATOM     15  H5  <0> d           0.904  -2.856  -0.023  0.00  0.00     0.092 H 
ENDROOT
TORSDOF 0
