REMARK  1 active torsions:
REMARK  status: ('A' for Active; 'I' for Inactive)
REMARK    1  A    between atoms: C5_5  and  N1_7 
ROOT
ATOM      1  C1  <0> d          -0.017   1.378   0.010  0.00  0.00    -0.080 A 
ATOM      2  C2  <0> d           1.165   2.093   0.002  0.00  0.00    -0.066 A 
ATOM      3  C3  <0> d           2.386   1.418  -0.013  0.00  0.00     0.050 A 
ATOM      4  C4  <0> d           2.401   0.021  -0.021  0.00  0.00     0.009 A 
ATOM      5  C5  <0> d           1.215  -0.687  -0.014  0.00  0.00     0.035 A 
ATOM      6  C6  <0> d           0.002  -0.004   0.002  0.00  0.00    -0.057 A 
ATOM      7  C7  <0> d           3.853  -0.384  -0.037  0.00  0.00     0.056 A 
ATOM      8  O1  <0> d           4.618   0.825  -0.038  0.00  0.00    -0.313 OA
ATOM      9  C8  <0> d           3.786   1.880  -0.024  0.00  0.00     0.294 A 
ATOM     10  O2  <0> d           4.136   3.043  -0.021  0.00  0.00    -0.259 OA
ATOM     11  H1  <0> d          -0.961   1.902   0.026  0.00  0.00     0.083 H 
ATOM     12  H2  <0> d           1.143   3.173   0.008  0.00  0.00     0.085 H 
ATOM     13  H3  <0> d          -0.927  -0.555   0.008  0.00  0.00     0.086 H 
ATOM     14  H6  <0> d           4.086  -0.972   0.851  0.00  0.00     0.082 H 
ATOM     15  H7  <0> d           4.069  -0.962  -0.935  0.00  0.00     0.082 H 
ENDROOT
BRANCH   5  16
ATOM     16  N1  <0> d           1.232  -2.084  -0.021  0.00  0.00    -0.399 N 
ATOM     17  H4  <0> d           2.079  -2.558  -0.031  0.00  0.00     0.156 HD
ATOM     18  H5  <0> d           0.399  -2.580  -0.016  0.00  0.00     0.156 HD
ENDBRANCH   5  16
TORSDOF 1
