REMARK  6 active torsions:
REMARK  status: ('A' for Active; 'I' for Inactive)
REMARK    1  A    between atoms: C1_1  and  C2_2 
REMARK    2  A    between atoms: C2_2  and  C3_3 
REMARK    3  A    between atoms: C3_3  and  C4_5 
REMARK    4  A    between atoms: C3_3  and  N1_6 
REMARK       I    between atoms: N1_6  and  C5_7 
REMARK       I    between atoms: C5_7  and  N2_9 
REMARK    5  A    between atoms: N2_9  and  C6_10 
REMARK    6  A    between atoms: C6_10  and  C7_11 
ROOT
ATOM      1  N1  <0> d          -0.011   0.966   0.007  0.00  0.00    -0.339 N 
ATOM      2  C5  <0> d           1.147   1.655  -0.000  0.00  0.00     0.316 C 
ATOM      3  O1  <0> d           1.130   2.871   0.007  0.00  0.00    -0.247 OA
ATOM      4  N2  <0> d           2.323   0.998  -0.015  0.00  0.00    -0.340 N 
ATOM      5  H10 <0> d           0.002  -0.004   0.002  0.00  0.00     0.164 HD
ATOM      6  H11 <0> d           2.336   0.028  -0.020  0.00  0.00     0.164 HD
ENDROOT
BRANCH   1   7
ATOM      7  C3  <0> d          -1.290   1.681   0.017  0.00  0.00     0.010 C 
ATOM      8  H1  <0> d          -1.193   2.590   0.611  0.00  0.00     0.071 H 
BRANCH   7   9
ATOM      9  C2  <0> d          -2.370   0.786   0.627  0.00  0.00    -0.050 C 
ATOM     10  H5  <0> d          -3.337   1.282   0.554  0.00  0.00     0.035 H 
ATOM     11  H6  <0> d          -2.405  -0.160   0.087  0.00  0.00     0.035 H 
BRANCH   9  12
ATOM     12  C1  <0> d          -2.043   0.521   2.098  0.00  0.00    -0.075 C 
ATOM     13  H2  <0> d          -1.075   0.025   2.171  0.00  0.00     0.027 H 
ATOM     14  H3  <0> d          -2.007   1.467   2.638  0.00  0.00     0.027 H 
ATOM     15  H4  <0> d          -2.812  -0.117   2.533  0.00  0.00     0.027 H 
ENDBRANCH   9  12
ENDBRANCH   7   9
BRANCH   7  16
ATOM     16  C4  <0> d          -1.680   2.047  -1.416  0.00  0.00    -0.057 C 
ATOM     17  H7  <0> d          -0.910   2.685  -1.850  0.00  0.00     0.030 H 
ATOM     18  H8  <0> d          -1.777   1.139  -2.010  0.00  0.00     0.030 H 
ATOM     19  H9  <0> d          -2.631   2.580  -1.409  0.00  0.00     0.030 H 
ENDBRANCH   7  16
ENDBRANCH   1   7
BRANCH   4  20
ATOM     20  C6  <0> d           3.582   1.747  -0.023  0.00  0.00     0.011 C 
ATOM     21  H12 <0> d           3.622   2.380  -0.910  0.00  0.00     0.070 H 
ATOM     22  H13 <0> d           3.639   2.370   0.870  0.00  0.00     0.070 H 
BRANCH  20  23
ATOM     23  C7  <0> d           4.740   0.784  -0.039  0.00  0.00    -0.095 C 
ATOM     24  C8  <0> d           5.651   0.870  -0.977  0.00  0.00    -0.123 C 
ATOM     25  H15 <0> d           5.572   1.632  -1.738  0.00  0.00     0.066 H 
ATOM     26  H16 <0> d           6.481   0.180  -0.988  0.00  0.00     0.066 H 
ATOM     27  H14 <0> d           4.820   0.022   0.722  0.00  0.00     0.078 H 
ENDBRANCH  20  23
ENDBRANCH   4  20
TORSDOF 6
