REMARK  1 active torsions:
REMARK  status: ('A' for Active; 'I' for Inactive)
REMARK    1  A    between atoms: C1_1  and  N1_2 
ROOT
ATOM      1  N1  <0> d           3.414   2.326  -0.016  0.00  0.00    -0.360 N 
ATOM      2  C2  <0> d           2.877   3.585  -0.004  0.00  0.00    -0.020 A 
ATOM      3  C3  <0> d           1.537   3.511   0.007  0.00  0.00    -0.056 A 
ATOM      4  C4  <0> d           1.187   2.088   0.002  0.00  0.00    -0.006 A 
ATOM      5  C5  <0> d           2.409   1.387  -0.013  0.00  0.00     0.044 A 
ATOM      6  C6  <0> d           2.405  -0.006  -0.021  0.00  0.00    -0.055 A 
ATOM      7  C7  <0> d           1.225  -0.689  -0.013  0.00  0.00    -0.061 A 
ATOM      8  C8  <0> d           0.002  -0.004   0.002  0.00  0.00     0.045 A 
ATOM      9  C9  <0> d          -0.017   1.388   0.010  0.00  0.00    -0.051 A 
ATOM     10  C10 <0> d          -1.228  -0.737   0.009  0.00  0.00     0.099 C 
ATOM     11  N2  <0> d          -2.205  -1.317   0.015  0.00  0.00    -0.191 NA
ATOM     12  H4  <0> d           3.447   4.502  -0.004  0.00  0.00     0.111 H 
ATOM     13  H5  <0> d           0.847   4.342   0.018  0.00  0.00     0.086 H 
ATOM     14  H6  <0> d           3.340  -0.547  -0.032  0.00  0.00     0.087 H 
ATOM     15  H7  <0> d           1.233  -1.769  -0.019  0.00  0.00     0.085 H 
ATOM     16  H8  <0> d          -0.957   1.920   0.017  0.00  0.00     0.087 H 
ENDROOT
BRANCH   1  17
ATOM     17  C1  <0> d           4.847   2.024  -0.031  0.00  0.00    -0.014 C 
ATOM     18  H1  <0> d           5.193   1.955  -1.063  0.00  0.00     0.057 H 
ATOM     19  H2  <0> d           5.391   2.817   0.482  0.00  0.00     0.057 H 
ATOM     20  H3  <0> d           5.024   1.075   0.475  0.00  0.00     0.057 H 
ENDBRANCH   1  17
TORSDOF 1
