REMARK  2 active torsions:
REMARK  status: ('A' for Active; 'I' for Inactive)
REMARK    1  A    between atoms: C1_1  and  C2_2 
REMARK    2  A    between atoms: C5_6  and  N3_8 
ROOT
ATOM      1  C2  <0> d          -1.187   3.357   0.032  0.00  0.00     0.050 A 
ATOM      2  C3  <0> d           0.001   4.063   0.024  0.00  0.00     0.025 A 
ATOM      3  N1  <0> d           1.156   3.420   0.009  0.00  0.00    -0.267 NA
ATOM      4  C4  <0> d           1.179   2.101   0.002  0.00  0.00     0.045 A 
ATOM      5  C5  <0> d          -0.017   1.386   0.010  0.00  0.00     0.139 A 
ATOM      6  N2  <0> d          -1.174   2.035   0.019  0.00  0.00    -0.234 NA
ATOM      7  H4  <0> d          -0.014   5.143   0.030  0.00  0.00     0.117 H 
ATOM      8  H5  <0> d           2.123   1.576  -0.009  0.00  0.00     0.120 H 
ENDROOT
BRANCH   1   9
ATOM      9  C1  <0> d          -2.501   4.096   0.048  0.00  0.00    -0.034 C 
ATOM     10  H1  <0> d          -2.827   4.280  -0.976  0.00  0.00     0.035 H 
ATOM     11  H2  <0> d          -3.249   3.496   0.566  0.00  0.00     0.035 H 
ATOM     12  H3  <0> d          -2.376   5.047   0.566  0.00  0.00     0.035 H 
ENDBRANCH   1   9
BRANCH   5  13
ATOM     13  N3  <0> d           0.002  -0.004   0.002  0.00  0.00    -0.383 N 
ATOM     14  H6  <0> d           0.849  -0.478  -0.009  0.00  0.00     0.157 HD
ATOM     15  H7  <0> d          -0.831  -0.500   0.007  0.00  0.00     0.157 HD
ENDBRANCH   5  13
TORSDOF 2
