REMARK  4 active torsions:
REMARK  status: ('A' for Active; 'I' for Inactive)
REMARK    1  A    between atoms: C1_1  and  C2_2 
REMARK    2  A    between atoms: C2_2  and  C3_3 
REMARK    3  A    between atoms: C3_3  and  N1_4 
REMARK    4  A    between atoms: C5_7  and  N4_9 
ROOT
ATOM      1  C3  <0> d          -0.013   1.086   0.008  0.00  0.00     0.018 C 
ATOM      2  H6  <0> d           0.002  -0.004   0.002  0.00  0.00     0.067 H 
ATOM      3  H7  <0> d           1.010   1.463   0.000  0.00  0.00     0.067 H 
ENDROOT
BRANCH   1   4
ATOM      4  C2  <0> d          -0.753   1.593  -1.232  0.00  0.00    -0.052 C 
ATOM      5  H4  <0> d          -1.775   1.215  -1.224  0.00  0.00     0.035 H 
ATOM      6  H5  <0> d          -0.767   2.683  -1.226  0.00  0.00     0.035 H 
BRANCH   4   7
ATOM      7  C1  <0> d          -0.037   1.099  -2.490  0.00  0.00    -0.075 C 
ATOM      8  H1  <0> d          -0.564   1.460  -3.373  0.00  0.00     0.027 H 
ATOM      9  H2  <0> d           0.986   1.476  -2.498  0.00  0.00     0.027 H 
ATOM     10  H3  <0> d          -0.022   0.009  -2.496  0.00  0.00     0.027 H 
ENDBRANCH   4   7
ENDBRANCH   1   4
BRANCH   1  11
ATOM     11  N1  <0> d          -0.698   1.558   1.213  0.00  0.00    -0.247 N 
ATOM     12  N3  <0> d          -1.002   2.890   1.540  0.00  0.00     0.022 NA
ATOM     13  C5  <0> d          -1.618   2.864   2.698  0.00  0.00     0.738 A 
ATOM     14  N2  <0> d          -1.705   1.596   3.111  0.00  0.00    -0.055 NA
ATOM     15  C4  <0> d          -1.155   0.804   2.227  0.00  0.00     0.102 A 
ATOM     16  H8  <0> d          -1.082  -0.272   2.298  0.00  0.00     0.147 H 
BRANCH  13  17
ATOM     17  N4  <0> d          -2.099   3.978   3.388  0.00  0.00    -0.230 N 
ATOM     18  H9  <0> d          -2.539   3.866   4.245  0.00  0.00     0.174 HD
ATOM     19  H10 <0> d          -1.992   4.866   3.011  0.00  0.00     0.174 HD
ENDBRANCH  13  17
ENDBRANCH   1  11
TORSDOF 4
