REMARK  3 active torsions:
REMARK  status: ('A' for Active; 'I' for Inactive)
REMARK    1  A    between atoms: C2_2  and  C3_3 
REMARK    2  A    between atoms: C4_4  and  C5_5 
REMARK    3  A    between atoms: C5_5  and  N1_6 
ROOT
ATOM      1  N1  <0> d          -0.700   1.560   1.217  0.00  0.00     0.099 N 
ATOM      2  C6  <0> d          -2.145   1.215   1.177  0.00  0.00     0.115 C 
ATOM      3  C7  <0> d          -2.568   1.293   2.665  0.00  0.00    -0.038 C 
ATOM      4  C8  <0> d          -1.336   0.724   3.406  0.00  0.00    -0.038 C 
ATOM      5  C9  <0> d          -0.162   0.900   2.426  0.00  0.00     0.115 C 
ATOM      6  H6  <0> d          -2.678   1.944   0.549  0.00  0.00     0.079 H 
ATOM      7  H7  <0> d          -2.270   0.207   0.756  0.00  0.00     0.079 H 
ATOM      8  H8  <0> d          -2.778   2.339   2.933  0.00  0.00     0.035 H 
ATOM      9  H9  <0> d          -3.473   0.686   2.821  0.00  0.00     0.035 H 
ATOM     10  H10 <0> d          -1.175   1.288   4.336  0.00  0.00     0.035 H 
ATOM     11  H11 <0> d          -1.509  -0.336   3.644  0.00  0.00     0.035 H 
ATOM     12  H12 <0> d           0.265  -0.076   2.152  0.00  0.00     0.079 H 
ATOM     13  H13 <0> d           0.623   1.531   2.869  0.00  0.00     0.079 H 
ENDROOT
BRANCH   1  14
ATOM     14  C5  <0> d          -0.013   1.086   0.008  0.00  0.00     0.167 C 
ATOM     15  H4  <0> d           0.002  -0.014   0.002  0.00  0.00     0.099 H 
ATOM     16  H5  <0> d           1.019   1.466   0.000  0.00  0.00     0.099 H 
BRANCH  14  17
ATOM     17  C4  <0> d          -0.725   1.573  -1.185  0.00  0.00    -0.072 C 
ATOM     18  C3  <0> d          -1.292   1.962  -2.136  0.00  0.00    -0.078 C 
BRANCH  18  19
ATOM     19  C2  <0> d          -1.985   2.437  -3.296  0.00  0.00    -0.042 C 
ATOM     20  C1  <0> d          -2.487   1.571  -4.170  0.00  0.00    -0.114 C 
ATOM     21  H1  <0> d          -3.019   1.936  -5.061  0.00  0.00     0.067 H 
ATOM     22  H2  <0> d          -2.370   0.490  -4.003  0.00  0.00     0.067 H 
ATOM     23  H3  <0> d          -2.102   3.518  -3.463  0.00  0.00     0.096 H 
ENDBRANCH  18  19
ENDBRANCH  14  17
ENDBRANCH   1  14
TORSDOF 3
