REMARK  2 active torsions:
REMARK  status: ('A' for Active; 'I' for Inactive)
REMARK    1  A    between atoms: N1_6  and  C5_7 
REMARK    2  A    between atoms: C5_7  and  C6_8 
ROOT
ATOM      1  C6  <0> d           3.495   3.437   1.000  0.00  0.00     0.040 C 
ATOM      2  C7  <0> d           4.868   3.962   1.059  0.00  0.00     0.060 C 
ATOM      3  N2  <0> d           5.929   4.368   1.104  0.00  0.00    -0.197 NA
ATOM      4  H11 <0> d           3.057   3.664   0.017  0.00  0.00     0.057 H 
ATOM      5  H12 <0> d           2.888   3.907   1.788  0.00  0.00     0.057 H 
ENDROOT
BRANCH   1   6
ATOM      6  C5  <0> d           3.519   1.922   1.210  0.00  0.00     0.125 C 
ATOM      7  H9  <0> d           3.956   1.695   2.193  0.00  0.00     0.081 H 
ATOM      8  H10 <0> d           4.125   1.452   0.421  0.00  0.00     0.081 H 
BRANCH   6   9
ATOM      9  N1  <0> d           2.148   1.397   1.151  0.00  0.00     0.093 N 
ATOM     10  C1  <0> d           1.421   1.950  -0.001  0.00  0.00     0.133 C 
ATOM     11  C2  <0> d          -0.017   1.426   0.010  0.00  0.00     0.044 C 
ATOM     12  H1  <0> d           1.413   3.049   0.063  0.00  0.00     0.083 H 
ATOM     13  H2  <0> d           1.919   1.641  -0.932  0.00  0.00     0.083 H 
ATOM     14  O1  <0> d           0.002  -0.004   0.002  0.00  0.00    -0.388 OA
ATOM     15  H3  <0> d          -0.531   1.783   0.915  0.00  0.00     0.077 H 
ATOM     16  H4  <0> d          -0.548   1.792  -0.881  0.00  0.00     0.077 H 
ATOM     17  C3  <0> d           0.701  -0.577   1.111  0.00  0.00     0.044 C 
ATOM     18  C4  <0> d           2.147  -0.072   1.111  0.00  0.00     0.133 C 
ATOM     19  H5  <0> d           0.207  -0.280   2.048  0.00  0.00     0.077 H 
ATOM     20  H6  <0> d           0.693  -1.673   1.022  0.00  0.00     0.077 H 
ATOM     21  H7  <0> d           2.672  -0.466   1.994  0.00  0.00     0.083 H 
ATOM     22  H8  <0> d           2.655  -0.416   0.198  0.00  0.00     0.083 H 
ENDBRANCH   6   9
ENDBRANCH   1   6
TORSDOF 2
