REMARK  1 active torsions:
REMARK  status: ('A' for Active; 'I' for Inactive)
REMARK    1  A    between atoms: C1_1  and  C2_2 
ROOT
ATOM      1  C2  <0> d          -1.192   1.765   0.017  0.00  0.00    -0.037 A 
ATOM      2  C3  <0> d          -0.013   1.076   0.008  0.00  0.00    -0.009 A 
ATOM      3  C4  <0> d           1.186   1.821   0.001  0.00  0.00     0.261 A 
ATOM      4  O1  <0> d           2.266   1.252  -0.013  0.00  0.00    -0.267 OA
ATOM      5  N1  <0> d           1.126   3.167   0.008  0.00  0.00    -0.244 N 
ATOM      6  H1  <0> d           2.053   3.759   0.002  0.00  0.00     0.192 HD
ATOM      7  N2  <0> d           0.004   3.791   0.023  0.00  0.00    -0.184 NA
ATOM      8  C5  <0> d          -1.143   3.169   0.030  0.00  0.00     0.028 A 
ATOM      9  H5  <0> d           0.002  -0.004   0.002  0.00  0.00     0.093 H 
ATOM     10  H6  <0> d          -2.061   3.738   0.042  0.00  0.00     0.118 H 
ENDROOT
BRANCH   1  11
ATOM     11  C1  <0> d          -2.512   1.038   0.019  0.00  0.00    -0.050 C 
ATOM     12  H2  <0> d          -2.333  -0.047   0.007  0.00  0.00     0.033 H 
ATOM     13  H3  <0> d          -3.089   1.325  -0.873  0.00  0.00     0.033 H 
ATOM     14  H4  <0> d          -3.077   1.307   0.923  0.00  0.00     0.033 H 
ENDBRANCH   1  11
TORSDOF 1
