REMARK  3 active torsions:
REMARK  status: ('A' for Active; 'I' for Inactive)
REMARK    1  A    between atoms: N2_4  and  C4_7 
REMARK    2  A    between atoms: C3_5  and  N3_6 
REMARK    3  A    between atoms: C4_7  and  C5_8 
ROOT
ATOM      1  C1  <0> d          -0.016   1.357   0.009  0.00  0.00    -0.023 A 
ATOM      2  C2  <0> d           1.308   1.803  -0.001  0.00  0.00    -0.003 A 
ATOM      3  N1  <0> d           2.094   0.757  -0.014  0.00  0.00    -0.308 N 
ATOM      4  N2  <0> d           1.297  -0.395  -0.012  0.00  0.00    -0.277 N 
ATOM      5  C3  <0> d           0.002  -0.004   0.002  0.00  0.00     0.117 A 
ATOM      6  H1  <0> d          -0.898   1.982   0.025  0.00  0.00     0.091 H 
ATOM      7  H2  <0> d           1.629   2.835   0.001  0.00  0.00     0.113 H 
ATOM      8  H12 <0> d           3.064   0.776  -0.023  0.00  0.00     0.186 HD
ENDROOT
BRANCH   4   9
ATOM      9  C4  <0> d           1.780  -1.777  -0.025  0.00  0.00     0.020 C 
ATOM     10  H5  <0> d           2.783  -1.816   0.400  0.00  0.00     0.068 H 
ATOM     11  H6  <0> d           1.111  -2.401   0.567  0.00  0.00     0.068 H 
BRANCH   9  12
ATOM     12  C5  <0> d           1.816  -2.292  -1.465  0.00  0.00    -0.037 A 
ATOM     13  C7  <0> d           2.406  -3.684  -1.704  0.00  0.00    -0.060 A 
ATOM     14  C6  <0> d           0.896  -3.462  -1.821  0.00  0.00    -0.060 A 
ATOM     15  H10 <0> d           2.964  -3.842  -2.626  0.00  0.00     0.033 H 
ATOM     16  H11 <0> d           2.768  -4.233  -0.834  0.00  0.00     0.033 H 
ATOM     17  H8  <0> d           0.266  -3.865  -1.028  0.00  0.00     0.033 H 
ATOM     18  H9  <0> d           0.462  -3.475  -2.820  0.00  0.00     0.033 H 
ATOM     19  H7  <0> d           1.987  -1.535  -2.231  0.00  0.00     0.042 H 
ENDBRANCH   9  12
ENDBRANCH   4   9
BRANCH   5  20
ATOM     20  N3  <0> d          -1.110  -0.842   0.009  0.00  0.00    -0.384 N 
ATOM     21  H3  <0> d          -2.002  -0.463   0.019  0.00  0.00     0.157 HD
ATOM     22  H4  <0> d          -0.992  -1.805   0.003  0.00  0.00     0.157 HD
ENDBRANCH   5  20
TORSDOF 3
