REMARK  7 active torsions:
REMARK  status: ('A' for Active; 'I' for Inactive)
REMARK    1  A    between atoms: C1_1  and  C2_2 
REMARK    2  A    between atoms: C2_2  and  C3_3 
REMARK    3  A    between atoms: C3_3  and  O1_4 
REMARK    4  A    between atoms: O1_4  and  C4_5 
REMARK    5  A    between atoms: C4_5  and  C5_7 
REMARK    6  A    between atoms: C5_7  and  C6_9 
REMARK    7  A    between atoms: C5_7  and  O3_10 
ROOT
ATOM      1  O1  <0> d           2.271   1.209   0.939  0.00  0.00    -0.320 OA
ENDROOT
BRANCH   1   2
ATOM      2  C3  <0> d           3.615   1.752   0.867  0.00  0.00     0.029 C 
ATOM      3  H7  <0> d           4.068   1.476  -0.085  0.00  0.00     0.075 H 
ATOM      4  H8  <0> d           3.573   2.838   0.948  0.00  0.00     0.075 H 
BRANCH   2   5
ATOM      5  C2  <0> d           4.456   1.188   2.014  0.00  0.00    -0.048 C 
ATOM      6  H5  <0> d           4.003   1.464   2.966  0.00  0.00     0.035 H 
ATOM      7  H6  <0> d           4.498   0.101   1.933  0.00  0.00     0.035 H 
BRANCH   5   8
ATOM      8  C1  <0> d           5.872   1.760   1.938  0.00  0.00    -0.075 C 
ATOM      9  H2  <0> d           6.325   1.484   0.986  0.00  0.00     0.027 H 
ATOM     10  H3  <0> d           5.830   2.846   2.019  0.00  0.00     0.027 H 
ATOM     11  H4  <0> d           6.471   1.358   2.755  0.00  0.00     0.027 H 
ENDBRANCH   5   8
ENDBRANCH   2   5
ENDBRANCH   1   2
BRANCH   1  12
ATOM     12  C4  <0> d           1.401   1.607  -0.003  0.00  0.00     0.287 C 
ATOM     13  O2  <0> d           1.752   2.384  -0.859  0.00  0.00    -0.262 OA
BRANCH  12  14
ATOM     14  C5  <0> d          -0.013   1.086   0.008  0.00  0.00     0.115 C 
ATOM     15  H1  <0> d           0.002  -0.004   0.002  0.00  0.00     0.098 H 
BRANCH  14  16
ATOM     16  C6  <0> d          -0.729   1.579   1.267  0.00  0.00    -0.044 C 
ATOM     17  H9  <0> d          -0.744   2.669   1.273  0.00  0.00     0.031 H 
ATOM     18  H10 <0> d          -1.751   1.202   1.275  0.00  0.00     0.031 H 
ATOM     19  H11 <0> d          -0.202   1.218   2.150  0.00  0.00     0.031 H 
ENDBRANCH  14  16
BRANCH  14  20
ATOM     20  O3  <0> d          -0.704   1.559  -1.150  0.00  0.00    -0.386 OA
ATOM     21  H12 <0> d          -0.756   2.523  -1.210  0.00  0.00     0.210 HD
ENDBRANCH  14  20
ENDBRANCH  12  14
ENDBRANCH   1  12
TORSDOF 7
