REMARK  0 active torsions:
REMARK  status: ('A' for Active; 'I' for Inactive)
ROOT
ATOM      1  C1  <0> d          -0.016   1.351   0.009  0.00  0.00    -0.049 A 
ATOM      2  C2  <0> d           1.195   2.057   0.002  0.00  0.00     0.006 A 
ATOM      3  N1  <0> d           2.337   1.411  -0.013  0.00  0.00    -0.241 NA
ATOM      4  C3  <0> d           2.368   0.072  -0.021  0.00  0.00     0.151 A 
ATOM      5  C4  <0> d           3.412  -0.844  -0.036  0.00  0.00    -0.018 A 
ATOM      6  C5  <0> d           2.857  -2.114  -0.037  0.00  0.00     0.026 A 
ATOM      7  N2  <0> d           1.547  -2.009  -0.024  0.00  0.00    -0.179 NA
ATOM      8  N3  <0> d           1.204  -0.652  -0.013  0.00  0.00    -0.227 N 
ATOM      9  C6  <0> d           0.002  -0.004   0.002  0.00  0.00     0.007 A 
ATOM     10  H1  <0> d          -0.956   1.883   0.026  0.00  0.00     0.087 H 
ATOM     11  H2  <0> d           1.188   3.137   0.008  0.00  0.00     0.114 H 
ATOM     12  H3  <0> d           4.466  -0.608  -0.045  0.00  0.00     0.091 H 
ATOM     13  H4  <0> d           3.412  -3.041  -0.048  0.00  0.00     0.117 H 
ATOM     14  H5  <0> d          -0.921  -0.564   0.008  0.00  0.00     0.115 H 
ENDROOT
TORSDOF 0
