REMARK  1 active torsions:
REMARK  status: ('A' for Active; 'I' for Inactive)
REMARK    1  A    between atoms: C2_2  and  C5_9 
REMARK       I    between atoms: C5_9  and  N2_11 
ROOT
ATOM      1  C1  <0> d          -0.019   1.538   0.011  0.00  0.00     0.035 C 
ATOM      2  C2  <0> d           1.466   1.960  -0.001  0.00  0.00     0.213 C 
ATOM      3  H1  <0> d           1.798   2.153  -1.021  0.00  0.00     0.103 H 
ATOM      4  N1  <0> d           2.191   0.794   0.567  0.00  0.00     0.103 N 
ATOM      5  C3  <0> d           1.498  -0.385  -0.014  0.00  0.00     0.172 C 
ATOM      6  C4  <0> d           0.002  -0.004   0.002  0.00  0.00     0.272 C 
ATOM      7  F1  <0> d          -0.614  -0.505   1.154  0.00  0.00    -0.204 F 
ATOM      8  F2  <0> d          -0.636  -0.492  -1.143  0.00  0.00    -0.204 F 
ATOM      9  H2  <0> d          -0.509   1.905   0.912  0.00  0.00     0.045 H 
ATOM     10  H3  <0> d          -0.526   1.915  -0.878  0.00  0.00     0.045 H 
ATOM     11  H4  <0> d           3.164   0.809   0.301  0.00  0.00     0.317 HD
ATOM     12  H5  <0> d           1.835  -0.558  -1.036  0.00  0.00     0.088 H 
ATOM     13  H6  <0> d           1.672  -1.269   0.599  0.00  0.00     0.088 H 
ENDROOT
BRANCH   2  14
ATOM     14  C5  <0> d           1.673   3.180   0.858  0.00  0.00     0.249 C 
ATOM     15  O1  <0> d           2.113   3.063   1.982  0.00  0.00    -0.271 OA
ATOM     16  N2  <0> d           1.369   4.402   0.378  0.00  0.00    -0.368 N 
ATOM     17  H7  <0> d           1.018   4.496  -0.521  0.00  0.00     0.159 HD
ATOM     18  H8  <0> d           1.503   5.188   0.931  0.00  0.00     0.159 HD
ENDBRANCH   2  14
TORSDOF 1
