REMARK  8 active torsions:
REMARK  status: ('A' for Active; 'I' for Inactive)
REMARK    1  A    between atoms: C1_1  and  C2_2 
REMARK    2  A    between atoms: C2_2  and  O1_3 
REMARK    3  A    between atoms: O1_3  and  C3_4 
REMARK    4  A    between atoms: C3_4  and  C4_6 
REMARK    5  A    between atoms: C4_6  and  C5_7 
REMARK    6  A    between atoms: C5_7  and  C6_8 
REMARK    7  A    between atoms: C5_7  and  C7_9 
REMARK    8  A    between atoms: C5_7  and  C8_10 
ROOT
ATOM      1  C4  <0> d           0.002  -0.004   0.002  0.00  0.00     0.022 C 
ATOM      2  H6  <0> d          -1.020  -0.381   0.010  0.00  0.00     0.049 H 
ATOM      3  H7  <0> d           0.512  -0.356  -0.895  0.00  0.00     0.049 H 
ENDROOT
BRANCH   1   4
ATOM      4  C3  <0> d           0.731  -0.503   1.223  0.00  0.00     0.259 C 
ATOM      5  O2  <0> d           1.187   0.284   2.018  0.00  0.00    -0.265 OA
BRANCH   4   6
ATOM      6  O1  <0> d           0.874  -1.822   1.427  0.00  0.00    -0.322 OA
BRANCH   6   7
ATOM      7  C2  <0> d           1.587  -2.231   2.624  0.00  0.00     0.025 C 
ATOM      8  H4  <0> d           2.599  -1.827   2.599  0.00  0.00     0.074 H 
ATOM      9  H5  <0> d           1.066  -1.853   3.504  0.00  0.00     0.074 H 
BRANCH   7  10
ATOM     10  C1  <0> d           1.648  -3.759   2.684  0.00  0.00    -0.056 C 
ATOM     11  H1  <0> d           2.169  -4.136   1.804  0.00  0.00     0.030 H 
ATOM     12  H2  <0> d           2.183  -4.065   3.583  0.00  0.00     0.030 H 
ATOM     13  H3  <0> d           0.636  -4.162   2.709  0.00  0.00     0.030 H 
ENDBRANCH   7  10
ENDBRANCH   6   7
ENDBRANCH   4   6
ENDBRANCH   1   4
BRANCH   1  14
ATOM     14  C5  <0> d          -0.019   1.526   0.010  0.00  0.00    -0.043 C 
BRANCH  14  15
ATOM     15  C6  <0> d           1.417   2.055  -0.000  0.00  0.00    -0.069 C 
ATOM     16  H8  <0> d           1.927   1.704  -0.897  0.00  0.00     0.028 H 
ATOM     17  H9  <0> d           1.402   3.145   0.006  0.00  0.00     0.028 H 
ATOM     18  H10 <0> d           1.944   1.694   0.883  0.00  0.00     0.028 H 
ENDBRANCH  14  15
BRANCH  14  19
ATOM     19  C7  <0> d          -0.759   2.033  -1.229  0.00  0.00    -0.069 C 
ATOM     20  H11 <0> d          -1.781   1.655  -1.221  0.00  0.00     0.028 H 
ATOM     21  H12 <0> d          -0.773   3.123  -1.223  0.00  0.00     0.028 H 
ATOM     22  H13 <0> d          -0.248   1.681  -2.126  0.00  0.00     0.028 H 
ENDBRANCH  14  19
BRANCH  14  23
ATOM     23  C8  <0> d          -0.735   2.019   1.269  0.00  0.00    -0.069 C 
ATOM     24  H14 <0> d          -0.208   1.658   2.152  0.00  0.00     0.028 H 
ATOM     25  H15 <0> d          -0.750   3.109   1.275  0.00  0.00     0.028 H 
ATOM     26  H16 <0> d          -1.757   1.642   1.277  0.00  0.00     0.028 H 
ENDBRANCH  14  23
ENDBRANCH   1  14
TORSDOF 8
