REMARK  2 active torsions:
REMARK  status: ('A' for Active; 'I' for Inactive)
REMARK    1  A    between atoms: C1_1  and  C2_2 
REMARK    2  A    between atoms: C9_9  and  O1_12 
ROOT
ATOM      1  C2  <0> d          -1.188   3.155   0.030  0.00  0.00     0.031 A 
ATOM      2  C3  <0> d          -1.194   1.762   0.017  0.00  0.00    -0.059 A 
ATOM      3  C4  <0> d          -0.013   1.076   0.008  0.00  0.00    -0.069 A 
ATOM      4  C5  <0> d           1.185   1.816   0.001  0.00  0.00    -0.004 A 
ATOM      5  C6  <0> d           2.437   1.180  -0.015  0.00  0.00    -0.071 A 
ATOM      6  C7  <0> d           3.575   1.928  -0.022  0.00  0.00    -0.079 A 
ATOM      7  C8  <0> d           3.517   3.319  -0.014  0.00  0.00    -0.049 A 
ATOM      8  C9  <0> d           2.318   3.973   0.001  0.00  0.00     0.095 A 
ATOM      9  C10 <0> d           1.118   3.230   0.009  0.00  0.00     0.100 A 
ATOM     10  N1  <0> d          -0.070   3.840   0.023  0.00  0.00    -0.250 NA
ATOM     11  H4  <0> d          -2.131   1.225   0.018  0.00  0.00     0.086 H 
ATOM     12  H5  <0> d           0.002  -0.004   0.002  0.00  0.00     0.085 H 
ATOM     13  H6  <0> d           2.498   0.101  -0.021  0.00  0.00     0.084 H 
ATOM     14  H7  <0> d           4.536   1.436  -0.033  0.00  0.00     0.083 H 
ATOM     15  H8  <0> d           4.433   3.890  -0.020  0.00  0.00     0.087 H 
ENDROOT
BRANCH   1  16
ATOM     16  C1  <0> d          -2.502   3.894   0.046  0.00  0.00    -0.035 C 
ATOM     17  H1  <0> d          -2.828   4.077  -0.978  0.00  0.00     0.035 H 
ATOM     18  H2  <0> d          -3.250   3.293   0.563  0.00  0.00     0.035 H 
ATOM     19  H3  <0> d          -2.377   4.845   0.564  0.00  0.00     0.035 H 
ENDBRANCH   1  16
BRANCH   8  20
ATOM     20  O1  <0> d           2.280   5.331   0.009  0.00  0.00    -0.358 OA
ATOM     21  H9  <0> d           2.278   5.720   0.894  0.00  0.00     0.217 HD
ENDBRANCH   8  20
TORSDOF 2
