REMARK  1 active torsions:
REMARK  status: ('A' for Active; 'I' for Inactive)
REMARK    1  A    between atoms: C2_2  and  C3_3 
ROOT
ATOM      1  C1  <0> d           0.018  -1.178  -0.004  0.00  0.00    -0.149 C 
ATOM      2  C2  <0> d           0.002  -0.004   0.002  0.00  0.00    -0.076 C 
ATOM      3  H1  <0> d           0.032  -2.228  -0.010  0.00  0.00     0.166 H 
ENDROOT
BRANCH   2   4
ATOM      4  C3  <0> d          -0.017   1.428   0.010  0.00  0.00     0.037 A 
ATOM      5  C8  <0> d           1.190   2.153   0.002  0.00  0.00     0.063 A 
ATOM      6  C7  <0> d           1.154   3.549   0.010  0.00  0.00    -0.061 A 
ATOM      7  C9  <0> d           2.445   1.464  -0.013  0.00  0.00     0.101 C 
ATOM      8  C6  <0> d          -0.057   4.207   0.024  0.00  0.00    -0.081 A 
ATOM      9  H5  <0> d           2.075   4.112   0.004  0.00  0.00     0.085 H 
ATOM     10  C5  <0> d          -1.245   3.493   0.031  0.00  0.00    -0.082 A 
ATOM     11  H4  <0> d          -0.081   5.287   0.030  0.00  0.00     0.083 H 
ATOM     12  C4  <0> d          -1.232   2.113   0.019  0.00  0.00    -0.063 A 
ATOM     13  H3  <0> d          -2.187   4.020   0.042  0.00  0.00     0.083 H 
ATOM     14  H2  <0> d          -2.162   1.564   0.021  0.00  0.00     0.085 H 
ATOM     15  N1  <0> d           3.441   0.918  -0.026  0.00  0.00    -0.191 NA
ENDBRANCH   2   4
TORSDOF 1
