REMARK  5 active torsions:
REMARK  status: ('A' for Active; 'I' for Inactive)
REMARK    1  A    between atoms: C1_1  and  C2_2 
REMARK    2  A    between atoms: C2_2  and  C3_3 
REMARK    3  A    between atoms: C3_3  and  C4_5 
REMARK    4  A    between atoms: C3_3  and  O1_8 
REMARK    5  A    between atoms: C4_5  and  C5_6 
ROOT
ATOM      1  C5  <0> d          -0.725   1.573  -1.185  0.00  0.00    -0.115 C 
ATOM      2  C6  <0> d          -1.292   1.962  -2.136  0.00  0.00    -0.154 C 
ATOM      3  H9  <0> d          -1.800   2.310  -2.986  0.00  0.00     0.166 H 
ENDROOT
BRANCH   1   4
ATOM      4  C4  <0> d          -0.013   1.086   0.008  0.00  0.00     0.014 C 
ATOM      5  H7  <0> d           0.002  -0.004   0.002  0.00  0.00     0.055 H 
ATOM      6  H8  <0> d           1.010   1.463   0.000  0.00  0.00     0.055 H 
BRANCH   4   7
ATOM      7  C3  <0> d          -0.729   1.579   1.267  0.00  0.00     0.045 C 
ATOM      8  H1  <0> d          -0.822   2.665   1.230  0.00  0.00     0.084 H 
BRANCH   7   9
ATOM      9  C2  <0> d           0.079   1.179   2.503  0.00  0.00    -0.044 C 
ATOM     10  H5  <0> d           0.097   0.092   2.589  0.00  0.00     0.036 H 
ATOM     11  H6  <0> d           1.098   1.553   2.408  0.00  0.00     0.036 H 
BRANCH   9  12
ATOM     12  C1  <0> d          -0.570   1.778   3.752  0.00  0.00    -0.074 C 
ATOM     13  H2  <0> d          -0.588   2.864   3.667  0.00  0.00     0.027 H 
ATOM     14  H3  <0> d          -1.590   1.404   3.847  0.00  0.00     0.027 H 
ATOM     15  H4  <0> d           0.005   1.492   4.633  0.00  0.00     0.027 H 
ENDBRANCH   9  12
ENDBRANCH   7   9
BRANCH   7  16
ATOM     16  O1  <0> d          -2.030   0.991   1.336  0.00  0.00    -0.395 OA
ATOM     17  H10 <0> d          -2.023   0.025   1.372  0.00  0.00     0.210 HD
ENDBRANCH   7  16
ENDBRANCH   4   7
ENDBRANCH   1   4
TORSDOF 5
