REMARK  5 active torsions:
REMARK  status: ('A' for Active; 'I' for Inactive)
REMARK    1  A    between atoms: C1_1  and  C2_2 
REMARK    2  A    between atoms: C2_2  and  C3_3 
REMARK    3  A    between atoms: C2_2  and  C4_4 
REMARK    4  A    between atoms: C6_7  and  C8_12 
REMARK    5  A    between atoms: C8_12  and  O2_13 
ROOT
ATOM      1  C4  <0> d          -0.013   1.086   0.008  0.00  0.00     0.028 C 
ATOM      2  H1  <0> d           0.002  -0.004   0.002  0.00  0.00     0.055 H 
ATOM      3  C5  <0> d          -0.811   1.623  -1.203  0.00  0.00    -0.033 C 
ATOM      4  C6  <0> d          -1.512   2.859  -0.592  0.00  0.00     0.033 C 
ATOM      5  H2  <0> d          -0.917   3.755  -0.768  0.00  0.00     0.075 H 
ATOM      6  N1  <0> d          -1.606   2.586   0.847  0.00  0.00    -0.354 N 
ATOM      7  C7  <0> d          -0.771   1.598   1.213  0.00  0.00     0.222 C 
ATOM      8  O1  <0> d          -0.643   1.179   2.344  0.00  0.00    -0.273 OA
ATOM      9  H10 <0> d          -0.142   1.912  -2.013  0.00  0.00     0.037 H 
ATOM     10  H11 <0> d          -1.541   0.890  -1.545  0.00  0.00     0.037 H 
ATOM     11  H12 <0> d          -2.196   3.058   1.456  0.00  0.00     0.162 HD
ENDROOT
BRANCH   1  12
ATOM     12  C2  <0> d           1.414   1.639  -0.003  0.00  0.00    -0.049 C 
ATOM     13  H6  <0> d           1.381   2.729   0.016  0.00  0.00     0.040 H 
BRANCH  12  14
ATOM     14  C1  <0> d           2.167   1.131   1.228  0.00  0.00    -0.072 C 
ATOM     15  H3  <0> d           2.200   0.041   1.209  0.00  0.00     0.028 H 
ATOM     16  H4  <0> d           3.183   1.525   1.220  0.00  0.00     0.028 H 
ATOM     17  H5  <0> d           1.655   1.463   2.131  0.00  0.00     0.028 H 
ENDBRANCH  12  14
BRANCH  12  18
ATOM     18  C3  <0> d           2.132   1.173  -1.270  0.00  0.00    -0.072 C 
ATOM     19  H7  <0> d           1.595   1.535  -2.147  0.00  0.00     0.028 H 
ATOM     20  H8  <0> d           3.148   1.567  -1.278  0.00  0.00     0.028 H 
ATOM     21  H9  <0> d           2.165   0.083  -1.289  0.00  0.00     0.028 H 
ENDBRANCH  12  18
ENDBRANCH   1  12
BRANCH   4  22
ATOM     22  C8  <0> d          -2.910   3.026  -1.191  0.00  0.00     0.035 C 
ATOM     23  H13 <0> d          -2.832   3.114  -2.275  0.00  0.00     0.077 H 
ATOM     24  H14 <0> d          -3.519   2.159  -0.939  0.00  0.00     0.077 H 
BRANCH  22  25
ATOM     25  O2  <0> d          -3.518   4.206  -0.660  0.00  0.00    -0.399 OA
ATOM     26  H15 <0> d          -4.408   4.375  -0.997  0.00  0.00     0.209 HD
ENDBRANCH  22  25
ENDBRANCH   4  22
TORSDOF 5
