REMARK  9 active torsions:
REMARK  status: ('A' for Active; 'I' for Inactive)
REMARK    1  A    between atoms: C1_1  and  C2_2 
REMARK    2  A    between atoms: C2_2  and  O1_3 
REMARK    3  A    between atoms: O1_3  and  C3_4 
REMARK    4  A    between atoms: C3_4  and  C4_5 
REMARK    5  A    between atoms: C4_5  and  C5_6 
REMARK    6  A    between atoms: C5_6  and  C6_7 
REMARK    7  A    between atoms: C6_7  and  O2_8 
REMARK    8  A    between atoms: O2_8  and  C7_9 
REMARK    9  A    between atoms: C7_9  and  C8_10 
ROOT
ATOM      1  C4  <0> d          -2.698  -2.358   0.015  0.00  0.00    -0.068 C 
ENDROOT
BRANCH   1   2
ATOM      2  C3  <0> d          -1.498  -1.842   0.006  0.00  0.00     0.132 C 
ATOM      3  H6  <0> d          -0.632  -2.488  -0.005  0.00  0.00     0.109 H 
BRANCH   2   4
ATOM      4  O1  <0> d          -1.339  -0.499   0.012  0.00  0.00    -0.370 OA
BRANCH   4   5
ATOM      5  C2  <0> d           0.002  -0.004   0.002  0.00  0.00     0.018 C 
ATOM      6  H4  <0> d           0.512  -0.356  -0.895  0.00  0.00     0.073 H 
ATOM      7  H5  <0> d           0.529  -0.365   0.885  0.00  0.00     0.073 H 
BRANCH   5   8
ATOM      8  C1  <0> d          -0.019   1.526   0.010  0.00  0.00    -0.056 C 
ATOM      9  H1  <0> d           1.004   1.903   0.003  0.00  0.00     0.030 H 
ATOM     10  H2  <0> d          -0.546   1.887  -0.873  0.00  0.00     0.030 H 
ATOM     11  H3  <0> d          -0.529   1.877   0.907  0.00  0.00     0.030 H 
ENDBRANCH   5   8
ENDBRANCH   4   5
ENDBRANCH   2   4
ENDBRANCH   1   2
BRANCH   1  12
ATOM     12  C5  <0> d          -3.899  -2.874   0.024  0.00  0.00    -0.068 C 
BRANCH  12  13
ATOM     13  C6  <0> d          -5.100  -3.390   0.033  0.00  0.00     0.132 C 
ATOM     14  H7  <0> d          -5.965  -2.744   0.044  0.00  0.00     0.109 H 
BRANCH  13  15
ATOM     15  O2  <0> d          -5.259  -4.734   0.027  0.00  0.00    -0.370 OA
BRANCH  15  16
ATOM     16  C7  <0> d          -6.600  -5.228   0.037  0.00  0.00     0.018 C 
ATOM     17  H8  <0> d          -7.110  -4.877   0.934  0.00  0.00     0.073 H 
ATOM     18  H9  <0> d          -7.127  -4.867  -0.846  0.00  0.00     0.073 H 
BRANCH  16  19
ATOM     19  C8  <0> d          -6.579  -6.758   0.029  0.00  0.00    -0.056 C 
ATOM     20  H10 <0> d          -7.602  -7.135   0.036  0.00  0.00     0.030 H 
ATOM     21  H11 <0> d          -6.069  -7.110  -0.868  0.00  0.00     0.030 H 
ATOM     22  H12 <0> d          -6.052  -7.119   0.912  0.00  0.00     0.030 H 
ENDBRANCH  16  19
ENDBRANCH  15  16
ENDBRANCH  13  15
ENDBRANCH  12  13
ENDBRANCH   1  12
TORSDOF 9
