REMARK  2 active torsions:
REMARK  status: ('A' for Active; 'I' for Inactive)
REMARK    1  A    between atoms: C1_1  and  C2_2 
REMARK    2  A    between atoms: C5_8  and  C6_10 
ROOT
ATOM      1  C2  <0> d          -0.013   1.086   0.008  0.00  0.00    -0.015 C 
ATOM      2  H1  <0> d           0.002  -0.004   0.002  0.00  0.00     0.044 H 
ATOM      3  C3  <0> d          -0.586   1.617   1.339  0.00  0.00     0.033 C 
ATOM      4  O1  <0> d           0.580   2.004   2.127  0.00  0.00    -0.320 OA
ATOM      5  C4  <0> d           1.535   2.441   1.286  0.00  0.00     0.273 C 
ATOM      6  O2  <0> d           2.340   3.312   1.517  0.00  0.00    -0.264 OA
ATOM      7  C5  <0> d           1.425   1.651  -0.003  0.00  0.00     0.119 C 
ATOM      8  H2  <0> d           1.569   2.305  -0.863  0.00  0.00     0.073 H 
ATOM      9  H6  <0> d          -1.225   2.481   1.159  0.00  0.00     0.075 H 
ATOM     10  H7  <0> d          -1.145   0.832   1.850  0.00  0.00     0.075 H 
ENDROOT
BRANCH   1  11
ATOM     11  C1  <0> d          -0.813   1.621  -1.181  0.00  0.00    -0.070 C 
ATOM     12  H3  <0> d          -0.349   1.289  -2.110  0.00  0.00     0.028 H 
ATOM     13  H4  <0> d          -1.835   1.243  -1.131  0.00  0.00     0.028 H 
ATOM     14  H5  <0> d          -0.826   2.710  -1.150  0.00  0.00     0.028 H 
ENDBRANCH   1  11
BRANCH   7  15
ATOM     15  C6  <0> d           2.431   0.530  -0.019  0.00  0.00     0.187 C 
ATOM     16  O3  <0> d           2.055  -0.619  -0.022  0.00  0.00    -0.647 OA
ATOM     17  O4  <0> d           3.744   0.806  -0.030  0.00  0.00    -0.647 OA
ENDBRANCH   7  15
TORSDOF 2
