REMARK  0 active torsions:
REMARK  status: ('A' for Active; 'I' for Inactive)
ROOT
ATOM      1  C1  <0> d          -0.018   1.465   0.010  0.00  0.00     0.136 C 
ATOM      2  C2  <0> d           1.419   1.992  -0.001  0.00  0.00     0.137 C 
ATOM      3  N1  <0> d           2.138   1.472   1.171  0.00  0.00     0.104 N 
ATOM      4  C3  <0> d           2.158   0.003   1.162  0.00  0.00     0.239 C 
ATOM      5  H1  <0> d           2.667  -0.349   0.265  0.00  0.00     0.114 H 
ATOM      6  C4  <0> d           0.721  -0.525   1.173  0.00  0.00     0.152 C 
ATOM      7  N2  <0> d           0.002  -0.004   0.002  0.00  0.00     0.088 N 
ATOM      8  C5  <0> d           2.869  -0.486   2.355  0.00  0.00     0.097 C 
ATOM      9  N3  <0> d           3.419  -0.862   3.275  0.00  0.00    -0.195 NA
ATOM     10  H2  <0> d          -0.527   1.817   0.907  0.00  0.00     0.082 H 
ATOM     11  H3  <0> d          -0.544   1.827  -0.873  0.00  0.00     0.082 H 
ATOM     12  H4  <0> d           1.920   1.663  -0.911  0.00  0.00     0.082 H 
ATOM     13  H5  <0> d           1.407   3.082   0.034  0.00  0.00     0.082 H 
ATOM     14  H6  <0> d           3.074   1.846   1.216  0.00  0.00     0.317 HD
ATOM     15  H7  <0> d           0.733  -1.614   1.138  0.00  0.00     0.084 H 
ATOM     16  H8  <0> d           0.220  -0.195   2.083  0.00  0.00     0.084 H 
ATOM     17  H9  <0> d          -0.934  -0.378  -0.043  0.00  0.00     0.316 HD
ENDROOT
TORSDOF 0
