REMARK  5 active torsions:
REMARK  status: ('A' for Active; 'I' for Inactive)
REMARK    1  A    between atoms: C1_1  and  C2_2 
REMARK    2  A    between atoms: C4_4  and  C7_9 
REMARK    3  A    between atoms: C5_5  and  C6_8 
REMARK    4  A    between atoms: C7_9  and  C8_10 
REMARK    5  A    between atoms: C7_9  and  C9_11 
ROOT
ATOM      1  C2  <0> d           0.002  -0.004   0.002  0.00  0.00     0.006 A 
ATOM      2  C3  <0> d           0.008  -0.789  -1.095  0.00  0.00    -0.053 A 
ATOM      3  C4  <0> d           0.028  -2.127  -0.656  0.00  0.00    -0.031 A 
ATOM      4  C5  <0> d           0.034  -2.110   0.693  0.00  0.00     0.012 A 
ATOM      5  N1  <0> d           0.024  -0.809   1.102  0.00  0.00    -0.363 N 
ATOM      6  H1  <0> d           0.029  -0.507   2.024  0.00  0.00     0.165 HD
ATOM      7  H5  <0> d          -0.002  -0.453  -2.121  0.00  0.00     0.087 H 
ENDROOT
BRANCH   3   8
ATOM      8  C7  <0> d           0.040  -3.353  -1.532  0.00  0.00    -0.034 C 
ATOM      9  H9  <0> d           0.055  -4.246  -0.907  0.00  0.00     0.046 H 
BRANCH   8  10
ATOM     10  C8  <0> d          -1.213  -3.365  -2.410  0.00  0.00    -0.069 C 
ATOM     11  H10 <0> d          -1.204  -4.252  -3.043  0.00  0.00     0.028 H 
ATOM     12  H11 <0> d          -2.100  -3.380  -1.776  0.00  0.00     0.028 H 
ATOM     13  H12 <0> d          -1.228  -2.472  -3.034  0.00  0.00     0.028 H 
ENDBRANCH   8  10
BRANCH   8  14
ATOM     14  C9  <0> d           1.285  -3.332  -2.421  0.00  0.00    -0.069 C 
ATOM     15  H13 <0> d           2.178  -3.324  -1.796  0.00  0.00     0.028 H 
ATOM     16  H14 <0> d           1.294  -4.219  -3.055  0.00  0.00     0.028 H 
ATOM     17  H15 <0> d           1.271  -2.439  -3.046  0.00  0.00     0.028 H 
ENDBRANCH   8  14
ENDBRANCH   3   8
BRANCH   4  18
ATOM     18  C6  <0> d           0.054  -3.319   1.592  0.00  0.00    -0.037 C 
ATOM     19  H6  <0> d           1.086  -3.597   1.804  0.00  0.00     0.035 H 
ATOM     20  H7  <0> d          -0.459  -3.086   2.525  0.00  0.00     0.035 H 
ATOM     21  H8  <0> d          -0.451  -4.148   1.097  0.00  0.00     0.035 H 
ENDBRANCH   4  18
BRANCH   1  22
ATOM     22  C1  <0> d          -0.018   1.503   0.010  0.00  0.00    -0.037 C 
ATOM     23  H2  <0> d           1.004   1.880   0.003  0.00  0.00     0.035 H 
ATOM     24  H3  <0> d          -0.545   1.864  -0.873  0.00  0.00     0.035 H 
ATOM     25  H4  <0> d          -0.529   1.854   0.907  0.00  0.00     0.035 H 
ENDBRANCH   1  22
TORSDOF 5
