REMARK  5 active torsions:
REMARK  status: ('A' for Active; 'I' for Inactive)
REMARK    1  A    between atoms: C1_1  and  C2_2 
REMARK    2  A    between atoms: C5_5  and  C7_8 
REMARK    3  A    between atoms: C7_8  and  C8_9 
REMARK    4  A    between atoms: C7_8  and  C9_10 
REMARK    5  A    between atoms: C7_8  and  O1_11 
ROOT
ATOM      1  C2  <0> d           0.852   1.630   0.070  0.00  0.00    -0.087 C 
ATOM      2  C3  <0> d          -0.266   0.987  -0.134  0.00  0.00    -0.101 C 
ATOM      3  C4  <0> d          -1.438   1.940  -0.196  0.00  0.00    -0.043 C 
ATOM      4  C5  <0> d          -0.803   3.333  -0.402  0.00  0.00    -0.018 C 
ATOM      5  H1  <0> d          -0.753   3.583  -1.462  0.00  0.00     0.045 H 
ATOM      6  C6  <0> d           0.611   3.117   0.185  0.00  0.00    -0.039 C 
ATOM      7  H5  <0> d          -0.343  -0.084  -0.249  0.00  0.00     0.077 H 
ATOM      8  H6  <0> d          -2.087   1.689  -1.035  0.00  0.00     0.039 H 
ATOM      9  H7  <0> d          -1.997   1.914   0.739  0.00  0.00     0.039 H 
ATOM     10  H8  <0> d           0.640   3.427   1.230  0.00  0.00     0.040 H 
ATOM     11  H9  <0> d           1.351   3.668  -0.396  0.00  0.00     0.040 H 
ENDROOT
BRANCH   4  12
ATOM     12  C7  <0> d          -1.564   4.407   0.378  0.00  0.00     0.055 C 
BRANCH  12  13
ATOM     13  C8  <0> d          -0.872   5.759   0.191  0.00  0.00    -0.048 C 
ATOM     14  H10 <0> d          -0.861   6.018  -0.867  0.00  0.00     0.031 H 
ATOM     15  H11 <0> d          -1.414   6.524   0.747  0.00  0.00     0.031 H 
ATOM     16  H12 <0> d           0.151   5.697   0.561  0.00  0.00     0.031 H 
ENDBRANCH  12  13
BRANCH  12  17
ATOM     17  C9  <0> d          -3.001   4.494  -0.141  0.00  0.00    -0.048 C 
ATOM     18  H13 <0> d          -3.522   3.562   0.077  0.00  0.00     0.031 H 
ATOM     19  H14 <0> d          -3.514   5.321   0.348  0.00  0.00     0.031 H 
ATOM     20  H15 <0> d          -2.988   4.659  -1.218  0.00  0.00     0.031 H 
ENDBRANCH  12  17
BRANCH  12  21
ATOM     21  O1  <0> d          -1.579   4.067   1.766  0.00  0.00    -0.390 OA
ATOM     22  H16 <0> d          -2.003   3.220   1.959  0.00  0.00     0.210 HD
ENDBRANCH  12  21
ENDBRANCH   4  12
BRANCH   1  23
ATOM     23  C1  <0> d           2.204   0.975   0.177  0.00  0.00    -0.055 C 
ATOM     24  H2  <0> d           2.096  -0.103   0.059  0.00  0.00     0.033 H 
ATOM     25  H3  <0> d           2.859   1.363  -0.603  0.00  0.00     0.033 H 
ATOM     26  H4  <0> d           2.637   1.191   1.155  0.00  0.00     0.033 H 
ENDBRANCH   1  23
TORSDOF 5
