REMARK  1 active torsions:
REMARK  status: ('A' for Active; 'I' for Inactive)
REMARK    1  A    between atoms: C6_8  and  O2_10 
ROOT
ATOM      1  C1  <0> d          -0.017   1.383   0.010  0.00  0.00    -0.079 A 
ATOM      2  C2  <0> d           1.150   2.094   0.002  0.00  0.00    -0.069 A 
ATOM      3  C3  <0> d           2.375   1.421  -0.013  0.00  0.00     0.022 A 
ATOM      4  C4  <0> d           3.773   1.863  -0.023  0.00  0.00     0.042 A 
ATOM      5  N1  <0> d           4.516   0.800  -0.036  0.00  0.00    -0.139 NA
ATOM      6  O1  <0> d           3.699  -0.354  -0.035  0.00  0.00    -0.210 OA
ATOM      7  C5  <0> d           2.403   0.018  -0.021  0.00  0.00     0.146 A 
ATOM      8  C6  <0> d           1.202  -0.690  -0.013  0.00  0.00     0.102 A 
ATOM      9  C7  <0> d           0.002  -0.004   0.002  0.00  0.00    -0.048 A 
ATOM     10  H1  <0> d          -0.962   1.905   0.026  0.00  0.00     0.083 H 
ATOM     11  H2  <0> d           1.126   3.173   0.008  0.00  0.00     0.085 H 
ATOM     12  H3  <0> d           4.120   2.886  -0.021  0.00  0.00     0.119 H 
ATOM     13  H4  <0> d          -0.928  -0.552   0.008  0.00  0.00     0.087 H 
ENDROOT
BRANCH   8  14
ATOM     14  O2  <0> d           1.212  -2.050  -0.021  0.00  0.00    -0.358 OA
ATOM     15  H5  <0> d           1.223  -2.448   0.861  0.00  0.00     0.217 HD
ENDBRANCH   8  14
TORSDOF 1
