REMARK  0 active torsions:
REMARK  status: ('A' for Active; 'I' for Inactive)
ROOT
ATOM      1  C1  <0> d          -0.013   1.089   0.008  0.00  0.00    -0.049 C 
ATOM      2  C2  <0> d          -0.735   1.593  -1.239  0.00  0.00    -0.009 C 
ATOM      3  C3  <0> d          -1.029   3.067  -1.123  0.00  0.00     0.131 C 
ATOM      4  O1  <0> d          -0.867   3.791  -2.085  0.00  0.00    -0.298 OA
ATOM      5  C4  <0> d          -1.522   3.651   0.177  0.00  0.00     0.005 C 
ATOM      6  H1  <0> d          -1.441   4.648   0.146  0.00  0.00     0.051 H 
ATOM      7  C5  <0> d          -2.986   3.287   0.408  0.00  0.00    -0.049 C 
ATOM      8  C6  <0> d          -3.176   1.772   0.421  0.00  0.00    -0.009 C 
ATOM      9  C7  <0> d          -2.143   1.115   1.302  0.00  0.00     0.131 C 
ATOM     10  O2  <0> d          -2.469   0.205   2.038  0.00  0.00    -0.298 OA
ATOM     11  C8  <0> d          -0.708   1.578   1.276  0.00  0.00     0.005 C 
ATOM     12  H2  <0> d          -0.236   1.210   2.078  0.00  0.00     0.051 H 
ATOM     13  C9  <0> d          -0.670   3.107   1.327  0.00  0.00    -0.046 C 
ATOM     14  H3  <0> d           0.002  -0.004   0.002  0.00  0.00     0.034 H 
ATOM     15  H4  <0> d           1.020   1.450   0.000  0.00  0.00     0.034 H 
ATOM     16  H5  <0> d          -0.150   1.461  -2.040  0.00  0.00     0.044 H 
ATOM     17  H6  <0> d          -1.652   1.030  -1.398  0.00  0.00     0.044 H 
ATOM     18  H7  <0> d          -3.315   3.702   1.364  0.00  0.00     0.034 H 
ATOM     19  H8  <0> d          -3.597   3.722  -0.388  0.00  0.00     0.034 H 
ATOM     20  H9  <0> d          -4.077   1.552   0.793  0.00  0.00     0.044 H 
ATOM     21  H10 <0> d          -3.126   1.376  -0.591  0.00  0.00     0.044 H 
ATOM     22  H11 <0> d           0.357   3.453   1.218  0.00  0.00     0.035 H 
ATOM     23  H12 <0> d          -1.075   3.453   2.278  0.00  0.00     0.035 H 
ENDROOT
TORSDOF 0
