REMARK  4 active torsions:
REMARK  status: ('A' for Active; 'I' for Inactive)
REMARK    1  A    between atoms: C1_1  and  C2_2 
REMARK    2  A    between atoms: C2_2  and  O1_3 
REMARK    3  A    between atoms: O1_3  and  C3_4 
REMARK    4  A    between atoms: C3_4  and  C4_6 
ROOT
ATOM      1  O1  <0> d           3.213   3.577  -0.010  0.00  0.00    -0.317 OA
ENDROOT
BRANCH   1   2
ATOM      2  C2  <0> d           3.677   4.953  -0.007  0.00  0.00     0.026 C 
ATOM      3  H4  <0> d           3.297   5.466  -0.891  0.00  0.00     0.074 H 
ATOM      4  H5  <0> d           3.314   5.457   0.889  0.00  0.00     0.074 H 
BRANCH   2   5
ATOM      5  C1  <0> d           5.207   4.976  -0.022  0.00  0.00    -0.056 C 
ATOM      6  H1  <0> d           5.586   4.463   0.862  0.00  0.00     0.030 H 
ATOM      7  H2  <0> d           5.569   4.472  -0.918  0.00  0.00     0.030 H 
ATOM      8  H3  <0> d           5.555   6.009  -0.020  0.00  0.00     0.030 H 
ENDBRANCH   2   5
ENDBRANCH   1   2
BRANCH   1   9
ATOM      9  C3  <0> d           1.880   3.381   0.002  0.00  0.00     0.314 C 
ATOM     10  O2  <0> d           1.126   4.333   0.014  0.00  0.00    -0.257 OA
BRANCH   9  11
ATOM     11  C4  <0> d           1.337   2.011   0.000  0.00  0.00     0.162 A 
ATOM     12  N2  <0> d           2.099   0.923  -0.013  0.00  0.00    -0.136 NA
ATOM     13  N1  <0> d           1.562  -0.242  -0.014  0.00  0.00    -0.110 NA
ATOM     14  S1  <0> d           0.002  -0.004   0.002  0.00  0.00     0.025 SA
ATOM     15  C5  <0> d          -0.021   1.728   0.011  0.00  0.00     0.010 A 
ATOM     16  H6  <0> d          -0.864   2.403   0.019  0.00  0.00     0.101 H 
ENDBRANCH   9  11
ENDBRANCH   1   9
TORSDOF 4
