REMARK  1 active torsions:
REMARK  status: ('A' for Active; 'I' for Inactive)
REMARK    1  A    between atoms: C10_14  and  O1_16 
ROOT
ATOM      1  C1  <0> d           1.524   1.778  -0.003  0.00  0.00    -0.064 C 
ATOM      2  C2  <0> d          -0.018   1.475   0.010  0.00  0.00    -0.061 C 
ATOM      3  C3  <0> d           0.002  -0.004   0.002  0.00  0.00    -0.047 C 
ATOM      4  H1  <0> d           0.659  -0.282   0.826  0.00  0.00     0.041 H 
ATOM      5  C4  <0> d           1.027  -0.285  -1.171  0.00  0.00    -0.044 C 
ATOM      6  H2  <0> d           0.676   0.117  -2.121  0.00  0.00     0.041 H 
ATOM      7  C5  <0> d           2.201   0.517  -0.629  0.00  0.00    -0.061 C 
ATOM      8  C6  <0> d           1.049  -1.830  -1.176  0.00  0.00    -0.025 C 
ATOM      9  H3  <0> d           2.015  -2.314  -1.321  0.00  0.00     0.044 H 
ATOM     10  C7  <0> d           0.185  -2.253   0.075  0.00  0.00    -0.055 C 
ATOM     11  C8  <0> d          -0.933  -1.139  -0.130  0.00  0.00    -0.048 C 
ATOM     12  H4  <0> d          -1.762  -1.137   0.579  0.00  0.00     0.040 H 
ATOM     13  C9  <0> d          -1.329  -1.451  -1.590  0.00  0.00    -0.037 C 
ATOM     14  C10 <0> d          -0.075  -2.076  -2.259  0.00  0.00     0.040 C 
ATOM     15  H5  <0> d          -0.220  -3.143  -2.432  0.00  0.00     0.083 H 
ATOM     16  H6  <0> d           1.729   2.657  -0.614  0.00  0.00     0.033 H 
ATOM     17  H7  <0> d           1.885   1.933   1.014  0.00  0.00     0.033 H 
ATOM     18  H8  <0> d          -0.505   1.868  -0.882  0.00  0.00     0.033 H 
ATOM     19  H9  <0> d          -0.488   1.858   0.916  0.00  0.00     0.033 H 
ATOM     20  H10 <0> d           2.735  -0.051   0.134  0.00  0.00     0.033 H 
ATOM     21  H11 <0> d           2.876   0.802  -1.436  0.00  0.00     0.033 H 
ATOM     22  H12 <0> d          -0.216  -3.261  -0.025  0.00  0.00     0.034 H 
ATOM     23  H13 <0> d           0.727  -2.123   1.011  0.00  0.00     0.034 H 
ATOM     24  H14 <0> d          -1.609  -0.532  -2.105  0.00  0.00     0.037 H 
ATOM     25  H15 <0> d          -2.157  -2.159  -1.611  0.00  0.00     0.037 H 
ENDROOT
BRANCH  14  26
ATOM     26  O1  <0> d           0.239  -1.402  -3.479  0.00  0.00    -0.395 OA
ATOM     27  H16 <0> d          -0.421  -1.522  -4.176  0.00  0.00     0.210 HD
ENDBRANCH  14  26
TORSDOF 1
