REMARK  5 active torsions:
REMARK  status: ('A' for Active; 'I' for Inactive)
REMARK    1  A    between atoms: C1_1  and  C2_2 
REMARK    2  A    between atoms: C2_2  and  C3_3 
REMARK    3  A    between atoms: C3_3  and  C4_4 
REMARK    4  A    between atoms: C4_4  and  C5_5 
REMARK    5  A    between atoms: C5_5  and  C6_7 
ROOT
ATOM      1  C5  <0> d          -0.520   0.748   2.448  0.00  0.00     0.131 C 
ATOM      2  O1  <0> d          -0.185  -0.403   2.305  0.00  0.00    -0.298 OA
ENDROOT
BRANCH   1   3
ATOM      3  C4  <0> d          -0.671   1.323   3.833  0.00  0.00    -0.009 C 
ATOM      4  H8  <0> d          -0.045   2.094   3.944  0.00  0.00     0.044 H 
ATOM      5  H9  <0> d          -1.697   1.663   3.976  0.00  0.00     0.044 H 
BRANCH   3   6
ATOM      6  C3  <0> d          -0.342   0.246   4.870  0.00  0.00    -0.059 C 
ATOM      7  H6  <0> d          -1.025  -0.595   4.749  0.00  0.00     0.033 H 
ATOM      8  H7  <0> d           0.683  -0.094   4.727  0.00  0.00     0.033 H 
BRANCH   6   9
ATOM      9  C2  <0> d          -0.495   0.829   6.276  0.00  0.00    -0.068 C 
ATOM     10  H4  <0> d           0.187   1.671   6.397  0.00  0.00     0.032 H 
ATOM     11  H5  <0> d          -1.521   1.170   6.419  0.00  0.00     0.032 H 
BRANCH   9  12
ATOM     12  C1  <0> d          -0.166  -0.247   7.313  0.00  0.00    -0.077 C 
ATOM     13  H1  <0> d          -0.849  -1.088   7.192  0.00  0.00     0.027 H 
ATOM     14  H2  <0> d           0.859  -0.587   7.170  0.00  0.00     0.027 H 
ATOM     15  H3  <0> d          -0.275   0.168   8.315  0.00  0.00     0.027 H 
ENDBRANCH   9  12
ENDBRANCH   6   9
ENDBRANCH   3   6
ENDBRANCH   1   3
BRANCH   1  16
ATOM     16  C6  <0> d          -0.789   1.611   1.242  0.00  0.00     0.004 C 
ATOM     17  C10 <0> d          -2.268   1.485   0.789  0.00  0.00    -0.055 C 
ATOM     18  C9  <0> d          -2.243   1.875  -0.703  0.00  0.00    -0.064 C 
ATOM     19  H17 <0> d          -2.899   2.172   1.353  0.00  0.00     0.034 H 
ATOM     20  H18 <0> d          -2.620   0.460   0.909  0.00  0.00     0.034 H 
ATOM     21  C8  <0> d          -0.809   1.622  -1.200  0.00  0.00    -0.064 C 
ATOM     22  H15 <0> d          -2.497   2.929  -0.818  0.00  0.00     0.033 H 
ATOM     23  H16 <0> d          -2.946   1.258  -1.263  0.00  0.00     0.033 H 
ATOM     24  C7  <0> d          -0.013   1.086   0.008  0.00  0.00    -0.055 C 
ATOM     25  H13 <0> d          -0.367   2.552  -1.555  0.00  0.00     0.033 H 
ATOM     26  H14 <0> d          -0.816   0.882  -2.000  0.00  0.00     0.033 H 
ATOM     27  H11 <0> d           0.002  -0.004   0.002  0.00  0.00     0.034 H 
ATOM     28  H12 <0> d           1.003   1.480   0.000  0.00  0.00     0.034 H 
ATOM     29  H10 <0> d          -0.549   2.559   1.450  0.00  0.00     0.051 H 
ENDBRANCH   1  16
TORSDOF 5
