REMARK  2 active torsions:
REMARK  status: ('A' for Active; 'I' for Inactive)
REMARK    1  A    between atoms: C1_1  and  C2_2 
REMARK    2  A    between atoms: C2_2  and  C3_3 
ROOT
ATOM      1  C3  <0> d           0.000   1.080   2.488  0.00  0.00     0.008 A 
ATOM      2  C4  <0> d          -0.174  -0.120   3.077  0.00  0.00    -0.060 A 
ATOM      3  C5  <0> d           0.701  -0.181   4.179  0.00  0.00    -0.066 A 
ATOM      4  C6  <0> d           1.372   0.989   4.226  0.00  0.00    -0.023 A 
ATOM      5  N1  <0> d           0.945   1.766   3.191  0.00  0.00    -0.369 N 
ATOM      6  H1  <0> d           1.262   2.660   2.987  0.00  0.00     0.165 HD
ATOM      7  H7  <0> d          -0.858  -0.894   2.761  0.00  0.00     0.086 H 
ATOM      8  H8  <0> d           0.812  -1.009   4.863  0.00  0.00     0.085 H 
ATOM      9  H9  <0> d           2.117   1.262   4.958  0.00  0.00     0.111 H 
ENDROOT
BRANCH   1  10
ATOM     10  C2  <0> d          -0.729   1.579   1.267  0.00  0.00    -0.030 C 
ATOM     11  H5  <0> d          -0.744   2.669   1.273  0.00  0.00     0.041 H 
ATOM     12  H6  <0> d          -1.751   1.202   1.275  0.00  0.00     0.041 H 
BRANCH  10  13
ATOM     13  C1  <0> d          -0.013   1.086   0.008  0.00  0.00    -0.071 C 
ATOM     14  H2  <0> d           0.002  -0.004   0.002  0.00  0.00     0.028 H 
ATOM     15  H3  <0> d           1.010   1.463   0.000  0.00  0.00     0.028 H 
ATOM     16  H4  <0> d          -0.540   1.447  -0.875  0.00  0.00     0.028 H 
ENDBRANCH  10  13
ENDBRANCH   1  10
TORSDOF 2
