REMARK  0 active torsions:
REMARK  status: ('A' for Active; 'I' for Inactive)
ROOT
ATOM      1  C1  <0> d          -2.992   4.046   0.050  0.00  0.00    -0.078 A 
ATOM      2  C2  <0> d          -1.640   4.307   0.039  0.00  0.00    -0.056 A 
ATOM      3  C3  <0> d          -0.729   3.256   0.025  0.00  0.00     0.045 A 
ATOM      4  C4  <0> d          -1.202   1.931   0.018  0.00  0.00     0.030 A 
ATOM      5  C5  <0> d          -0.013   1.076   0.008  0.00  0.00    -0.053 A 
ATOM      6  C6  <0> d           1.055   1.889   0.002  0.00  0.00    -0.022 A 
ATOM      7  N1  <0> d           0.647   3.195   0.012  0.00  0.00    -0.365 N 
ATOM      8  H1  <0> d           1.238   3.964   0.011  0.00  0.00     0.165 HD
ATOM      9  C7  <0> d          -2.577   1.682   0.035  0.00  0.00     0.129 A 
ATOM     10  C8  <0> d          -3.461   2.740   0.048  0.00  0.00    -0.045 A 
ATOM     11  F1  <0> d          -3.037   0.411   0.034  0.00  0.00    -0.205 F 
ATOM     12  H2  <0> d          -3.695   4.866   0.060  0.00  0.00     0.083 H 
ATOM     13  H3  <0> d          -1.287   5.328   0.040  0.00  0.00     0.086 H 
ATOM     14  H4  <0> d           0.002  -0.004   0.002  0.00  0.00     0.087 H 
ATOM     15  H5  <0> d           2.084   1.561  -0.009  0.00  0.00     0.111 H 
ATOM     16  H6  <0> d          -4.525   2.551   0.057  0.00  0.00     0.088 H 
ENDROOT
TORSDOF 0
