REMARK  0 active torsions:
REMARK  status: ('A' for Active; 'I' for Inactive)
ROOT
ATOM      1  C1  <0> d          -0.017   1.380   0.010  0.00  0.00    -0.077 A 
ATOM      2  C2  <0> d           1.160   2.101   0.002  0.00  0.00    -0.050 A 
ATOM      3  C3  <0> d           2.388   1.446  -0.013  0.00  0.00     0.086 A 
ATOM      4  C4  <0> d           2.408   0.043  -0.021  0.00  0.00     0.084 A 
ATOM      5  C5  <0> d           1.207  -0.679  -0.013  0.00  0.00     0.133 A 
ATOM      6  C6  <0> d           0.002  -0.004   0.002  0.00  0.00    -0.044 A 
ATOM      7  F1  <0> d           1.228  -2.030  -0.020  0.00  0.00    -0.205 F 
ATOM      8  C7  <0> d           3.812  -0.391  -0.037  0.00  0.00     0.189 A 
ATOM      9  O1  <0> d           4.239  -1.526  -0.048  0.00  0.00    -0.290 OA
ATOM     10  C8  <0> d           4.608   0.898  -0.038  0.00  0.00     0.085 A 
ATOM     11  O2  <0> d           3.644   1.951  -0.023  0.00  0.00    -0.343 OA
ATOM     12  H1  <0> d          -0.962   1.901   0.026  0.00  0.00     0.083 H 
ATOM     13  H2  <0> d           1.128   3.181   0.008  0.00  0.00     0.087 H 
ATOM     14  H3  <0> d          -0.926  -0.557   0.008  0.00  0.00     0.088 H 
ATOM     15  H4  <0> d           5.237   0.951   0.850  0.00  0.00     0.087 H 
ATOM     16  H5  <0> d           5.220   0.961  -0.938  0.00  0.00     0.087 H 
ENDROOT
TORSDOF 0
