REMARK  8 active torsions:
REMARK  status: ('A' for Active; 'I' for Inactive)
REMARK    1  A    between atoms: C1_1  and  C2_2 
REMARK    2  A    between atoms: C2_2  and  N1_3 
REMARK    3  A    between atoms: N1_3  and  C3_4 
REMARK    4  A    between atoms: N1_3  and  C5_6 
REMARK    5  A    between atoms: C3_4  and  C4_5 
REMARK    6  A    between atoms: C5_6  and  C6_7 
REMARK    7  A    between atoms: C7_8  and  C8_9 
REMARK    8  A    between atoms: C8_9  and  C10_11 
ROOT
ATOM      1  N1  <0> d          -2.627   6.288  -0.060  0.00  0.00     0.098 N 
ENDROOT
BRANCH   1   2
ATOM      2  C2  <0> d          -3.086   5.731   1.220  0.00  0.00     0.111 C 
ATOM      3  H4  <0> d          -3.108   4.633   1.154  0.00  0.00     0.079 H 
ATOM      4  H5  <0> d          -4.096   6.106   1.442  0.00  0.00     0.079 H 
BRANCH   2   5
ATOM      5  C1  <0> d          -2.128   6.156   2.334  0.00  0.00    -0.051 C 
ATOM      6  H1  <0> d          -2.472   5.739   3.292  0.00  0.00     0.029 H 
ATOM      7  H2  <0> d          -2.106   7.254   2.399  0.00  0.00     0.029 H 
ATOM      8  H3  <0> d          -1.118   5.782   2.112  0.00  0.00     0.029 H 
ENDBRANCH   2   5
ENDBRANCH   1   2
BRANCH   1   9
ATOM      9  C3  <0> d          -2.630   7.757  -0.025  0.00  0.00     0.111 C 
ATOM     10  H6  <0> d          -2.131   8.103   0.892  0.00  0.00     0.079 H 
ATOM     11  H7  <0> d          -2.092   8.145  -0.903  0.00  0.00     0.079 H 
BRANCH   9  12
ATOM     12  C4  <0> d          -4.073   8.265  -0.045  0.00  0.00    -0.051 C 
ATOM     13  H8  <0> d          -4.074   9.365  -0.019  0.00  0.00     0.029 H 
ATOM     14  H9  <0> d          -4.610   7.877   0.833  0.00  0.00     0.029 H 
ATOM     15  H10 <0> d          -4.571   7.919  -0.963  0.00  0.00     0.029 H 
ENDBRANCH   9  12
ENDBRANCH   1   9
BRANCH   1  16
ATOM     16  C5  <0> d          -1.298   5.772  -0.412  0.00  0.00     0.167 C 
ATOM     17  H11 <0> d          -0.933   6.285  -1.314  0.00  0.00     0.099 H 
ATOM     18  H12 <0> d          -0.602   5.954   0.420  0.00  0.00     0.099 H 
BRANCH  16  19
ATOM     19  C6  <0> d          -1.386   4.326  -0.672  0.00  0.00    -0.071 C 
ATOM     20  C7  <0> d          -1.456   3.173  -0.879  0.00  0.00    -0.071 C 
BRANCH  20  21
ATOM     21  C8  <0> d          -1.542   1.766  -1.132  0.00  0.00    -0.018 C 
ATOM     22  C9  <0> d          -0.453   1.084  -1.470  0.00  0.00    -0.108 C 
ATOM     23  H13 <0> d          -0.519   0.003  -1.665  0.00  0.00     0.068 H 
ATOM     24  H14 <0> d           0.515   1.600  -1.556  0.00  0.00     0.068 H 
BRANCH  21  25
ATOM     25  C10 <0> d          -2.868   1.058  -1.014  0.00  0.00    -0.045 C 
ATOM     26  H15 <0> d          -2.735  -0.009  -1.244  0.00  0.00     0.034 H 
ATOM     27  H16 <0> d          -3.583   1.500  -1.723  0.00  0.00     0.034 H 
ATOM     28  H17 <0> d          -3.252   1.168   0.011  0.00  0.00     0.034 H 
ENDBRANCH  21  25
ENDBRANCH  20  21
ENDBRANCH  16  19
ENDBRANCH   1  16
TORSDOF 8
