REMARK  3 active torsions:
REMARK  status: ('A' for Active; 'I' for Inactive)
REMARK    1  A    between atoms: C1_1  and  C2_2 
REMARK    2  A    between atoms: C6_7  and  O2_10 
REMARK    3  A    between atoms: O2_10  and  C7_11 
ROOT
ATOM      1  C2  <0> d          -2.847   1.614   0.132  0.00  0.00     0.038 C 
ATOM      2  H1  <0> d          -2.853   2.704   0.143  0.00  0.00     0.082 H 
ATOM      3  C3  <0> d          -2.211   1.120  -1.170  0.00  0.00    -0.041 C 
ATOM      4  C4  <0> d          -0.756   1.595  -1.231  0.00  0.00    -0.059 C 
ATOM      5  C5  <0> d          -0.013   1.086   0.008  0.00  0.00    -0.019 C 
ATOM      6  C6  <0> d          -0.732   1.581   1.266  0.00  0.00     0.131 C 
ATOM      7  H2  <0> d          -0.711   2.670   1.291  0.00  0.00     0.129 H 
ATOM      8  O1  <0> d          -2.089   1.131   1.243  0.00  0.00    -0.356 OA
ATOM      9  H6  <0> d          -2.762   1.524  -2.020  0.00  0.00     0.036 H 
ATOM     10  H7  <0> d          -2.241   0.031  -1.200  0.00  0.00     0.036 H 
ATOM     11  H8  <0> d          -0.728   2.684  -1.251  0.00  0.00     0.033 H 
ATOM     12  H9  <0> d          -0.280   1.201  -2.129  0.00  0.00     0.033 H 
ATOM     13  H10 <0> d           0.002  -0.004   0.002  0.00  0.00     0.040 H 
ATOM     14  H11 <0> d           1.010   1.464   0.000  0.00  0.00     0.040 H 
ENDROOT
BRANCH   6  15
ATOM     15  O2  <0> d          -0.075   1.064   2.425  0.00  0.00    -0.366 OA
BRANCH  15  16
ATOM     16  C7  <0> d          -0.600   1.558   3.659  0.00  0.00     0.007 C 
ATOM     17  H12 <0> d          -0.498   2.642   3.689  0.00  0.00     0.066 H 
ATOM     18  H13 <0> d          -1.653   1.289   3.739  0.00  0.00     0.066 H 
ATOM     19  H14 <0> d          -0.048   1.118   4.490  0.00  0.00     0.066 H 
ENDBRANCH  15  16
ENDBRANCH   6  15
BRANCH   1  20
ATOM     20  C1  <0> d          -4.283   1.094   0.228  0.00  0.00    -0.052 C 
ATOM     21  H3  <0> d          -4.276   0.004   0.218  0.00  0.00     0.030 H 
ATOM     22  H4  <0> d          -4.735   1.445   1.156  0.00  0.00     0.030 H 
ATOM     23  H5  <0> d          -4.860   1.462  -0.620  0.00  0.00     0.030 H 
ENDBRANCH   1  20
TORSDOF 3
