REMARK  1 active torsions:
REMARK  status: ('A' for Active; 'I' for Inactive)
REMARK    1  A    between atoms: C1_1  and  C2_2 
ROOT
ATOM      1  C2  <0> d           0.661   3.780   0.016  0.00  0.00     0.102 A 
ATOM      2  N1  <0> d          -0.690   3.809   0.029  0.00  0.00    -0.333 N 
ATOM      3  H1  <0> d          -1.266   4.627   0.043  0.00  0.00     0.168 HD
ATOM      4  C3  <0> d          -1.123   2.510   0.020  0.00  0.00     0.145 A 
ATOM      5  C4  <0> d          -0.021   1.732   0.012  0.00  0.00     0.166 A 
ATOM      6  N2  <0> d           1.053   2.535   0.006  0.00  0.00    -0.220 NA
ATOM      7 Cl1  <0> d           0.002  -0.004   0.002  0.00  0.00    -0.059 Cl
ATOM      8 Cl2  <0> d          -2.773   1.968   0.024  0.00  0.00    -0.061 Cl
ENDROOT
BRANCH   1   9
ATOM      9  C1  <0> d           1.565   4.985   0.013  0.00  0.00    -0.021 C 
ATOM     10  H2  <0> d           1.773   5.281  -1.015  0.00  0.00     0.037 H 
ATOM     11  H3  <0> d           1.077   5.807   0.536  0.00  0.00     0.037 H 
ATOM     12  H4  <0> d           2.500   4.739   0.517  0.00  0.00     0.037 H 
ENDBRANCH   1   9
TORSDOF 1
