REMARK  3 active torsions:
REMARK  status: ('A' for Active; 'I' for Inactive)
REMARK    1  A    between atoms: C2_2  and  C5_10 
REMARK    2  A    between atoms: C3_6  and  C4_7 
REMARK       I    between atoms: C4_7  and  N3_9 
REMARK    3  A    between atoms: C5_10  and  O2_11 
ROOT
ATOM      1  C1  <0> d          -0.012   3.761   0.017  0.00  0.00    -0.023 A 
ATOM      2  C2  <0> d           1.147   3.062   0.008  0.00  0.00     0.053 A 
ATOM      3  N1  <0> d           2.155   3.961   0.002  0.00  0.00    -0.280 N 
ATOM      4  H1  <0> d           3.200   3.615  -0.010  0.00  0.00     0.189 HD
ATOM      5  N2  <0> d           1.685   5.156   0.013  0.00  0.00    -0.169 NA
ATOM      6  C3  <0> d           0.368   5.124   0.025  0.00  0.00     0.146 A 
ATOM      7  H2  <0> d          -1.016   3.362   0.019  0.00  0.00     0.090 H 
ENDROOT
BRANCH   2   8
ATOM      8  C5  <0> d           1.286   1.562  -0.002  0.00  0.00     0.056 C 
ATOM      9  H5  <0> d           1.828   1.250  -0.907  0.00  0.00     0.083 H 
ATOM     10  H6  <0> d           1.845   1.240   0.889  0.00  0.00     0.083 H 
BRANCH   8  11
ATOM     11  O2  <0> d          -0.011   0.963   0.007  0.00  0.00    -0.395 OA
ATOM     12  H7  <0> d          -0.111  -0.133   0.002  0.00  0.00     0.209 HD
ENDBRANCH   8  11
ENDBRANCH   2   8
BRANCH   6  13
ATOM     13  C4  <0> d          -0.540   6.290   0.040  0.00  0.00     0.269 C 
ATOM     14  O1  <0> d          -1.744   6.122   0.050  0.00  0.00    -0.266 OA
ATOM     15  N3  <0> d          -0.033   7.538   0.041  0.00  0.00    -0.365 N 
ATOM     16  H3  <0> d          -0.709   8.406   0.051  0.00  0.00     0.159 HD
ATOM     17  H4  <0> d           1.057   7.690   0.031  0.00  0.00     0.159 HD
ENDBRANCH   6  13
TORSDOF 3
