REMARK  4 active torsions:
REMARK  status: ('A' for Active; 'I' for Inactive)
REMARK    1  A    between atoms: C1_1  and  C2_2 
REMARK    2  A    between atoms: C2_2  and  C3_3 
REMARK    3  A    between atoms: C4_4  and  C8_10 
REMARK    4  A    between atoms: C6_6  and  C7_9 
ROOT
ATOM      1  C3  <0> d          -2.143   1.058   1.278  0.00  0.00     0.015 A 
ATOM      2  C4  <0> d          -2.537  -0.147   1.736  0.00  0.00    -0.038 A 
ATOM      3  C5  <0> d          -3.933  -0.229   1.561  0.00  0.00    -0.054 A 
ATOM      4  C6  <0> d          -4.338   0.929   1.001  0.00  0.00     0.006 A 
ATOM      5  N1  <0> d          -3.244   1.725   0.830  0.00  0.00    -0.363 N 
ATOM      6  H1  <0> d          -3.143   2.740   0.418  0.00  0.00     0.165 HD
ATOM      7  H7  <0> d          -4.562  -1.066   1.825  0.00  0.00     0.087 H 
ENDROOT
BRANCH   1   8
ATOM      8  C2  <0> d          -0.729   1.579   1.267  0.00  0.00    -0.030 C 
ATOM      9  H5  <0> d          -0.197   1.215   2.158  0.00  0.00     0.041 H 
ATOM     10  H6  <0> d          -0.744   2.679   1.273  0.00  0.00     0.041 H 
BRANCH   8  11
ATOM     11  C1  <0> d          -0.013   1.086   0.008  0.00  0.00    -0.071 C 
ATOM     12  H2  <0> d           1.019   1.466   0.000  0.00  0.00     0.028 H 
ATOM     13  H3  <0> d          -0.545   1.450  -0.883  0.00  0.00     0.028 H 
ATOM     14  H4  <0> d           0.002  -0.014   0.002  0.00  0.00     0.028 H 
ENDBRANCH   8  11
ENDBRANCH   1   8
BRANCH   2  15
ATOM     15  C8  <0> d          -1.649  -1.211   2.328  0.00  0.00    -0.049 C 
ATOM     16  H11 <0> d          -2.258  -2.082   2.611  0.00  0.00     0.033 H 
ATOM     17  H12 <0> d          -1.143  -0.812   3.220  0.00  0.00     0.033 H 
ATOM     18  H13 <0> d          -0.897  -1.515   1.586  0.00  0.00     0.033 H 
ENDBRANCH   2  15
BRANCH   4  19
ATOM     19  C7  <0> d          -5.755   1.284   0.633  0.00  0.00    -0.037 C 
ATOM     20  H8  <0> d          -5.779   2.293   0.196  0.00  0.00     0.035 H 
ATOM     21  H9  <0> d          -6.385   1.261   1.535  0.00  0.00     0.035 H 
ATOM     22  H10 <0> d          -6.137   0.557  -0.099  0.00  0.00     0.035 H 
ENDBRANCH   4  19
TORSDOF 4
