REMARK  4 active torsions:
REMARK  status: ('A' for Active; 'I' for Inactive)
REMARK    1  A    between atoms: C1_1  and  O1_2 
REMARK    2  A    between atoms: O1_2  and  C2_3 
REMARK    3  A    between atoms: C2_3  and  C3_5 
REMARK    4  A    between atoms: C5_7  and  N1_10 
ROOT
ATOM      1  C3  <0> d           0.659  -2.063  -1.123  0.00  0.00     0.082 A 
ATOM      2  C4  <0> d           1.227  -2.867  -2.102  0.00  0.00    -0.035 A 
ATOM      3  C5  <0> d           1.123  -4.224  -1.895  0.00  0.00     0.033 A 
ATOM      4  C6  <0> d           0.489  -4.673  -0.778  0.00  0.00    -0.019 A 
ATOM      5  S1  <0> d           0.025  -3.272   0.024  0.00  0.00    -0.094 SA
ATOM      6  H4  <0> d           1.719  -2.454  -2.971  0.00  0.00     0.089 H 
ATOM      7  H5  <0> d           0.326  -5.696  -0.474  0.00  0.00     0.098 H 
ENDROOT
BRANCH   1   8
ATOM      8  C2  <0> d           0.601  -0.603  -1.048  0.00  0.00     0.299 C 
ATOM      9  O2  <0> d           1.094   0.071  -1.933  0.00  0.00    -0.259 OA
BRANCH   8  10
ATOM     10  O1  <0> d           0.002  -0.004   0.002  0.00  0.00    -0.322 OA
BRANCH  10  11
ATOM     11  C1  <0> d          -0.017   1.425   0.010  0.00  0.00     0.013 C 
ATOM     12  H1  <0> d           1.005   1.802   0.002  0.00  0.00     0.067 H 
ATOM     13  H2  <0> d          -0.544   1.786  -0.873  0.00  0.00     0.067 H 
ATOM     14  H3  <0> d          -0.527   1.776   0.907  0.00  0.00     0.067 H 
ENDBRANCH  10  11
ENDBRANCH   8  10
ENDBRANCH   1   8
BRANCH   3  15
ATOM     15  N1  <0> d           1.663  -5.133  -2.824  0.00  0.00    -0.399 N 
ATOM     16  H6  <0> d           2.113  -4.805  -3.618  0.00  0.00     0.156 HD
ATOM     17  H7  <0> d           1.585  -6.088  -2.670  0.00  0.00     0.156 HD
ENDBRANCH   3  15
TORSDOF 4
