REMARK  2 active torsions:
REMARK  status: ('A' for Active; 'I' for Inactive)
REMARK    1  A    between atoms: C1_1  and  O1_2 
REMARK    2  A    between atoms: O1_2  and  C2_3 
ROOT
ATOM      1  C2  <0> d           0.603  -0.604  -1.050  0.00  0.00     0.180 A 
ATOM      2  C3  <0> d           0.664  -2.015  -1.145  0.00  0.00     0.083 A 
ATOM      3  C4  <0> d           0.235  -3.078  -0.379  0.00  0.00     0.014 A 
ATOM      4  N1  <0> d           0.596  -4.205  -1.004  0.00  0.00    -0.286 N 
ATOM      5  N2  <0> d           1.268  -3.899  -2.192  0.00  0.00    -0.154 NA
ATOM      6  C5  <0> d           1.335  -2.592  -2.323  0.00  0.00     0.186 A 
ATOM      7  N3  <0> d           1.847  -1.742  -3.234  0.00  0.00    -0.220 NA
ATOM      8  C6  <0> d           1.744  -0.449  -3.063  0.00  0.00     0.091 A 
ATOM      9  N4  <0> d           1.145   0.112  -2.023  0.00  0.00    -0.217 NA
ATOM     10  H4  <0> d          -0.296  -3.012   0.559  0.00  0.00     0.115 H 
ATOM     11  H5  <0> d           2.167   0.200  -3.816  0.00  0.00     0.146 H 
ATOM     12  H6  <0> d           0.418  -5.102  -0.680  0.00  0.00     0.188 HD
ENDROOT
BRANCH   1  13
ATOM     13  O1  <0> d           0.002  -0.004   0.002  0.00  0.00    -0.339 OA
BRANCH  13  14
ATOM     14  C1  <0> d          -0.017   1.425   0.010  0.00  0.00     0.012 C 
ATOM     15  H1  <0> d           1.005   1.802   0.002  0.00  0.00     0.067 H 
ATOM     16  H2  <0> d          -0.544   1.786  -0.873  0.00  0.00     0.067 H 
ATOM     17  H3  <0> d          -0.527   1.776   0.907  0.00  0.00     0.067 H 
ENDBRANCH  13  14
ENDBRANCH   1  13
TORSDOF 2
