REMARK  4 active torsions:
REMARK  status: ('A' for Active; 'I' for Inactive)
REMARK    1  A    between atoms: C1_1  and  C2_2 
REMARK    2  A    between atoms: C2_2  and  C3_3 
REMARK    3  A    between atoms: C3_3  and  N1_4 
REMARK    4  A    between atoms: N1_4  and  C4_5 
ROOT
ATOM      1  N1  <0> d           0.738  -1.962  -1.265  0.00  0.00    -0.223 N 
ATOM      2  H9  <0> d           0.332  -2.457  -0.536  0.00  0.00     0.177 HD
ENDROOT
BRANCH   1   3
ATOM      3  C3  <0> d           0.718  -0.497  -1.257  0.00  0.00     0.009 C 
ATOM      4  H7  <0> d           0.191  -0.136  -2.140  0.00  0.00     0.064 H 
ATOM      5  H8  <0> d           1.741  -0.120  -1.264  0.00  0.00     0.064 H 
BRANCH   3   6
ATOM      6  C2  <0> d           0.002  -0.004   0.002  0.00  0.00    -0.053 C 
ATOM      7  H5  <0> d           0.529  -0.365   0.885  0.00  0.00     0.034 H 
ATOM      8  H6  <0> d          -1.020  -0.381   0.010  0.00  0.00     0.034 H 
BRANCH   6   9
ATOM      9  C1  <0> d          -0.019   1.526   0.010  0.00  0.00    -0.075 C 
ATOM     10  H2  <0> d           1.004   1.903   0.003  0.00  0.00     0.027 H 
ATOM     11  H3  <0> d          -0.546   1.887  -0.873  0.00  0.00     0.027 H 
ATOM     12  H4  <0> d          -0.529   1.877   0.907  0.00  0.00     0.027 H 
ENDBRANCH   6   9
ENDBRANCH   3   6
ENDBRANCH   1   3
BRANCH   1  13
ATOM     13  C4  <0> d           1.331  -2.634  -2.301  0.00  0.00     0.719 A 
ATOM     14  N4  <0> d           1.879  -1.950  -3.286  0.00  0.00    -0.021 NA
ATOM     15  C6  <0> d           2.469  -2.582  -4.307  0.00  0.00     0.302 A 
ATOM     16  C5  <0> d           2.491  -4.047  -4.331  0.00  0.00     0.090 A 
ATOM     17  O1  <0> d           2.980  -1.943  -5.214  0.00  0.00    -0.264 OA
ATOM     18  N3  <0> d           1.936  -4.702  -3.348  0.00  0.00    -0.167 NA
ATOM     19  H10 <0> d           2.958  -4.576  -5.149  0.00  0.00     0.126 H 
ATOM     20  N2  <0> d           1.337  -3.991  -2.299  0.00  0.00    -0.108 N 
ATOM     21  H1  <0> d           0.923  -4.472  -1.566  0.00  0.00     0.208 HD
ENDBRANCH   1  13
TORSDOF 4
