REMARK  4 active torsions:
REMARK  status: ('A' for Active; 'I' for Inactive)
REMARK    1  A    between atoms: C1_1  and  C2_2 
REMARK    2  A    between atoms: C2_2  and  C3_4 
REMARK    3  A    between atoms: C5_6  and  N1_11 
REMARK    4  A    between atoms: C8_9  and  O2_10 
ROOT
ATOM      1  C3  <0> d          -3.640   1.625   0.028  0.00  0.00     0.044 A 
ATOM      2  C4  <0> d          -2.420   0.940   0.019  0.00  0.00    -0.042 A 
ATOM      3  C5  <0> d          -1.233   1.649   0.017  0.00  0.00     0.026 A 
ATOM      4  C6  <0> d          -1.249   3.041   0.030  0.00  0.00    -0.055 A 
ATOM      5  C7  <0> d          -2.448   3.725   0.034  0.00  0.00    -0.048 A 
ATOM      6  C8  <0> d          -3.647   3.029   0.036  0.00  0.00     0.079 A 
ATOM      7  H4  <0> d          -2.405  -0.140   0.013  0.00  0.00     0.088 H 
ATOM      8  H5  <0> d          -0.319   3.589   0.034  0.00  0.00     0.087 H 
ATOM      9  H6  <0> d          -2.452   4.805   0.040  0.00  0.00     0.087 H 
ENDROOT
BRANCH   1  10
ATOM     10  C2  <0> d          -4.905   0.881   0.030  0.00  0.00     0.158 C 
ATOM     11  O1  <0> d          -5.961   1.478   0.038  0.00  0.00    -0.293 OA
BRANCH  10  12
ATOM     12  C1  <0> d          -4.893  -0.626   0.021  0.00  0.00    -0.017 C 
ATOM     13  H1  <0> d          -3.947  -0.952   0.015  0.00  0.00     0.038 H 
ATOM     14  H2  <0> d          -5.399  -0.999   0.911  0.00  0.00     0.038 H 
ATOM     15  H3  <0> d          -5.407  -0.989  -0.869  0.00  0.00     0.038 H 
ENDBRANCH  10  12
ENDBRANCH   1  10
BRANCH   6  16
ATOM     16  O2  <0> d          -4.825   3.704   0.045  0.00  0.00    -0.360 OA
ATOM     17  H7  <0> d          -5.162   3.894   0.932  0.00  0.00     0.217 HD
ENDBRANCH   6  16
BRANCH   3  18
ATOM     18  N1  <0> d          -0.011   0.966   0.007  0.00  0.00    -0.399 N 
ATOM     19  H8  <0> d           0.002  -0.004   0.002  0.00  0.00     0.156 HD
ATOM     20  H9  <0> d           0.822   1.462   0.002  0.00  0.00     0.156 HD
ENDBRANCH   3  18
TORSDOF 4
