REMARK  5 active torsions:
REMARK  status: ('A' for Active; 'I' for Inactive)
REMARK    1  A    between atoms: C1_1  and  C2_2 
REMARK    2  A    between atoms: C2_2  and  O1_3 
REMARK    3  A    between atoms: O1_3  and  C3_4 
REMARK    4  A    between atoms: C3_4  and  C4_5 
REMARK       I    between atoms: C4_5  and  N1_7 
REMARK    5  A    between atoms: N1_7  and  C5_8 
ROOT
ATOM      1  C4  <0> d          -2.883  -2.333   0.017  0.00  0.00     0.241 C 
ATOM      2  O2  <0> d          -3.751  -1.486   0.030  0.00  0.00    -0.271 OA
ATOM      3  N1  <0> d          -3.215  -3.639   0.013  0.00  0.00    -0.355 N 
ATOM      4  H8  <0> d          -2.521  -4.316   0.003  0.00  0.00     0.162 HD
ENDROOT
BRANCH   1   5
ATOM      5  C3  <0> d          -1.432  -1.925   0.005  0.00  0.00     0.093 C 
ATOM      6  H6  <0> d          -0.952  -2.316  -0.891  0.00  0.00     0.089 H 
ATOM      7  H7  <0> d          -0.935  -2.325   0.888  0.00  0.00     0.089 H 
BRANCH   5   8
ATOM      8  O1  <0> d          -1.339  -0.499   0.012  0.00  0.00    -0.382 OA
BRANCH   8   9
ATOM      9  C2  <0> d           0.002  -0.004   0.002  0.00  0.00     0.017 C 
ATOM     10  H4  <0> d           0.512  -0.356  -0.895  0.00  0.00     0.073 H 
ATOM     11  H5  <0> d           0.529  -0.365   0.885  0.00  0.00     0.073 H 
BRANCH   9  12
ATOM     12  C1  <0> d          -0.019   1.526   0.010  0.00  0.00    -0.056 C 
ATOM     13  H1  <0> d           1.004   1.903   0.003  0.00  0.00     0.030 H 
ATOM     14  H2  <0> d          -0.546   1.887  -0.873  0.00  0.00     0.030 H 
ATOM     15  H3  <0> d          -0.529   1.877   0.907  0.00  0.00     0.030 H 
ENDBRANCH   9  12
ENDBRANCH   8   9
ENDBRANCH   5   8
ENDBRANCH   1   5
BRANCH   3  16
ATOM     16  C5  <0> d          -4.625  -4.036   0.025  0.00  0.00     0.012 A 
ATOM     17  C7  <0> d          -4.978  -5.408  -0.553  0.00  0.00    -0.044 A 
ATOM     18  C6  <0> d          -5.030  -5.178   0.959  0.00  0.00    -0.044 A 
ATOM     19  H12 <0> d          -5.926  -5.504  -1.081  0.00  0.00     0.036 H 
ATOM     20  H13 <0> d          -4.160  -6.016  -0.942  0.00  0.00     0.036 H 
ATOM     21  H10 <0> d          -4.247  -5.634   1.565  0.00  0.00     0.036 H 
ATOM     22  H11 <0> d          -6.014  -5.122   1.425  0.00  0.00     0.036 H 
ATOM     23  H9  <0> d          -5.342  -3.228  -0.124  0.00  0.00     0.072 H 
ENDBRANCH   3  16
TORSDOF 5
