REMARK  3 active torsions:
REMARK  status: ('A' for Active; 'I' for Inactive)
REMARK    1  A    between atoms: C1_1  and  C2_2 
REMARK    2  A    between atoms: C2_2  and  O1_6 
REMARK    3  A    between atoms: O1_6  and  C4_7 
ROOT
ATOM      1  C2  <0> d          -1.911   1.389  -1.689  0.00  0.00     0.124 C 
ATOM      2  H1  <0> d          -2.577   2.197  -1.993  0.00  0.00     0.107 H 
ATOM      3  C3  <0> d          -2.575   0.563  -0.668  0.00  0.00     0.091 C 
ATOM      4  N1  <0> d          -3.088  -0.075   0.120  0.00  0.00    -0.195 NA
ENDROOT
BRANCH   1   5
ATOM      5  C1  <0> d          -1.572   0.524  -2.905  0.00  0.00    -0.040 C 
ATOM      6  H2  <0> d          -0.906  -0.284  -2.601  0.00  0.00     0.032 H 
ATOM      7  H3  <0> d          -2.489   0.103  -3.318  0.00  0.00     0.032 H 
ATOM      8  H4  <0> d          -1.080   1.136  -3.661  0.00  0.00     0.032 H 
ENDBRANCH   1   5
BRANCH   1   9
ATOM      9  O1  <0> d          -0.709   1.941  -1.148  0.00  0.00    -0.332 OA
BRANCH   9  10
ATOM     10  C4  <0> d          -0.251   3.092  -1.708  0.00  0.00     0.070 A 
ATOM     11  C9  <0> d          -0.878   3.617  -2.828  0.00  0.00    -0.051 A 
ATOM     12  C8  <0> d          -0.411   4.787  -3.395  0.00  0.00    -0.080 A 
ATOM     13  H9  <0> d          -1.732   3.112  -3.256  0.00  0.00     0.087 H 
ATOM     14  C7  <0> d           0.681   5.434  -2.847  0.00  0.00    -0.083 A 
ATOM     15  H8  <0> d          -0.899   5.196  -4.267  0.00  0.00     0.083 H 
ATOM     16  C6  <0> d           1.308   4.913  -1.730  0.00  0.00    -0.080 A 
ATOM     17  H7  <0> d           1.045   6.348  -3.292  0.00  0.00     0.083 H 
ATOM     18  C5  <0> d           0.841   3.746  -1.156  0.00  0.00    -0.051 A 
ATOM     19  H6  <0> d           2.160   5.420  -1.304  0.00  0.00     0.083 H 
ATOM     20  H5  <0> d           1.328   3.342  -0.281  0.00  0.00     0.087 H 
ENDBRANCH   9  10
ENDBRANCH   1   9
TORSDOF 3
