REMARK  2 active torsions:
REMARK  status: ('A' for Active; 'I' for Inactive)
REMARK    1  A    between atoms: C1_1  and  C2_2 
REMARK    2  A    between atoms: C5_5  and  C8_12 
ROOT
ATOM      1  C2  <0> d          -0.036   4.287   0.025  0.00  0.00    -0.031 A 
ATOM      2  C3  <0> d           1.152   3.590   0.010  0.00  0.00    -0.074 A 
ATOM      3  C4  <0> d           1.153   2.201   0.003  0.00  0.00    -0.074 A 
ATOM      4  C5  <0> d          -0.018   1.503   0.010  0.00  0.00    -0.029 A 
ATOM      5  C6  <0> d          -1.240   2.187   0.020  0.00  0.00     0.115 A 
ATOM      6  C7  <0> d          -1.241   3.593   0.033  0.00  0.00     0.088 A 
ATOM      7  N1  <0> d          -2.562   3.974   0.047  0.00  0.00    -0.257 N 
ATOM      8  H1  <0> d          -2.826   5.042   0.055  0.00  0.00     0.191 HD
ATOM      9  N2  <0> d          -3.317   2.792   0.048  0.00  0.00    -0.067 NA
ATOM     10  N3  <0> d          -2.525   1.778   0.036  0.00  0.00    -0.130 NA
ATOM     11  H5  <0> d           2.089   4.128   0.004  0.00  0.00     0.084 H 
ATOM     12  H6  <0> d           2.093   1.669  -0.009  0.00  0.00     0.084 H 
ENDROOT
BRANCH   1  13
ATOM     13  C1  <0> d          -0.029   5.794   0.033  0.00  0.00    -0.049 C 
ATOM     14  H2  <0> d           1.009   6.156   0.025  0.00  0.00     0.033 H 
ATOM     15  H3  <0> d          -0.538   6.158   0.938  0.00  0.00     0.033 H 
ATOM     16  H4  <0> d          -0.555   6.167  -0.858  0.00  0.00     0.033 H 
ENDBRANCH   1  13
BRANCH   4  17
ATOM     17  C8  <0> d           0.002  -0.004   0.002  0.00  0.00    -0.049 C 
ATOM     18  H7  <0> d          -1.030  -0.385   0.010  0.00  0.00     0.033 H 
ATOM     19  H8  <0> d           0.534  -0.368   0.893  0.00  0.00     0.033 H 
ATOM     20  H9  <0> d           0.517  -0.359  -0.903  0.00  0.00     0.033 H 
ENDBRANCH   4  17
TORSDOF 2
