REMARK  6 active torsions:
REMARK  status: ('A' for Active; 'I' for Inactive)
REMARK    1  A    between atoms: C1_1  and  C2_2 
REMARK    2  A    between atoms: C2_2  and  C3_4 
REMARK    3  A    between atoms: C2_2  and  C5_7 
REMARK    4  A    between atoms: C3_4  and  C4_5 
REMARK    5  A    between atoms: C5_7  and  C6_9 
REMARK    6  A    between atoms: C5_7  and  C7_10 
ROOT
ATOM      1  C2  <0> d          -0.729   1.579   1.267  0.00  0.00    -0.036 C 
ATOM      2  H1  <0> d          -0.822   2.665   1.230  0.00  0.00     0.041 H 
ENDROOT
BRANCH   1   3
ATOM      3  C1  <0> d          -2.121   0.950   1.341  0.00  0.00    -0.072 C 
ATOM      4  H3  <0> d          -2.697   1.235   0.460  0.00  0.00     0.028 H 
ATOM      5  H4  <0> d          -2.028  -0.136   1.378  0.00  0.00     0.028 H 
ATOM      6  H5  <0> d          -2.632   1.301   2.238  0.00  0.00     0.028 H 
ENDBRANCH   1   3
BRANCH   1   7
ATOM      7  C3  <0> d          -0.013   1.086   0.008  0.00  0.00     0.019 C 
ATOM      8  H6  <0> d           0.002  -0.004   0.002  0.00  0.00     0.049 H 
ATOM      9  H7  <0> d           1.010   1.463   0.000  0.00  0.00     0.049 H 
BRANCH   7  10
ATOM     10  C4  <0> d          -0.742   1.585  -1.213  0.00  0.00     0.172 C 
ATOM     11  O1  <0> d          -1.732   2.266  -1.089  0.00  0.00    -0.648 OA
ATOM     12  O3  <0> d          -0.290   1.274  -2.438  0.00  0.00    -0.648 OA
ENDBRANCH   7  10
ENDBRANCH   1   7
BRANCH   1  13
ATOM     13  C5  <0> d           0.079   1.179   2.503  0.00  0.00     0.031 C 
ATOM     14  H2  <0> d           0.172   0.093   2.540  0.00  0.00     0.056 H 
BRANCH  13  15
ATOM     15  C6  <0> d          -0.637   1.672   3.762  0.00  0.00    -0.063 C 
ATOM     16  H8  <0> d          -0.731   2.757   3.725  0.00  0.00     0.028 H 
ATOM     17  H9  <0> d          -1.630   1.224   3.815  0.00  0.00     0.028 H 
ATOM     18  H10 <0> d          -0.062   1.387   4.643  0.00  0.00     0.028 H 
ENDBRANCH  13  15
BRANCH  13  19
ATOM     19  C7  <0> d           1.450   1.798   2.430  0.00  0.00     0.177 C 
ATOM     20  O2  <0> d           1.751   2.490   1.486  0.00  0.00    -0.648 OA
ATOM     21  O4  <0> d           2.338   1.583   3.413  0.00  0.00    -0.648 OA
ENDBRANCH  13  19
ENDBRANCH   1  13
TORSDOF 6
