REMARK  2 active torsions:
REMARK  status: ('A' for Active; 'I' for Inactive)
REMARK    1  A    between atoms: C1_1  and  C2_2 
REMARK    2  A    between atoms: C5_5  and  C8_8 
ROOT
ATOM      1  C2  <0> d           1.155   3.167   0.008  0.00  0.00    -0.062 A 
ATOM      2  C3  <0> d           1.172   1.783   0.000  0.00  0.00    -0.076 A 
ATOM      3  C4  <0> d          -0.013   1.076   0.008  0.00  0.00    -0.070 A 
ATOM      4  C5  <0> d          -1.229   1.758   0.017  0.00  0.00    -0.004 A 
ATOM      5  C6  <0> d          -1.240   3.153   0.031  0.00  0.00    -0.070 A 
ATOM      6  C7  <0> d          -0.048   3.849   0.023  0.00  0.00    -0.076 A 
ATOM      7  H5  <0> d           2.115   1.256  -0.011  0.00  0.00     0.084 H 
ATOM      8  H6  <0> d           0.002  -0.004   0.002  0.00  0.00     0.084 H 
ATOM      9  H7  <0> d          -2.178   3.687   0.042  0.00  0.00     0.084 H 
ATOM     10  H8  <0> d          -0.055   4.929   0.029  0.00  0.00     0.084 H 
ENDROOT
BRANCH   4  11
ATOM     11  C8  <0> d          -2.503   1.005   0.019  0.00  0.00     0.107 A 
ATOM     12  C9  <0> d          -3.768   1.524   0.034  0.00  0.00     0.053 A 
ATOM     13  H9  <0> d          -4.038   2.569   0.043  0.00  0.00     0.121 H 
ATOM     14  N1  <0> d          -4.602   0.481   0.036  0.00  0.00    -0.167 NA
ATOM     15  N2  <0> d          -3.921  -0.608   0.017  0.00  0.00    -0.197 N 
ATOM     16  H1  <0> d          -4.316  -1.527   0.012  0.00  0.00     0.212 HD
ATOM     17  N3  <0> d          -2.659  -0.352   0.007  0.00  0.00    -0.155 NA
ENDBRANCH   4  11
BRANCH   1  18
ATOM     18  C1  <0> d           2.452   3.933  -0.002  0.00  0.00    -0.051 C 
ATOM     19  H2  <0> d           2.755   4.123  -1.032  0.00  0.00     0.033 H 
ATOM     20  H3  <0> d           2.318   4.882   0.518  0.00  0.00     0.033 H 
ATOM     21  H4  <0> d           3.223   3.349   0.501  0.00  0.00     0.033 H 
ENDBRANCH   1  18
TORSDOF 2
