REMARK  2 active torsions:
REMARK  status: ('A' for Active; 'I' for Inactive)
REMARK    1  A    between atoms: C1_1  and  O1_2 
REMARK    2  A    between atoms: O1_2  and  C2_3 
ROOT
ATOM      1  C2  <0> d          -0.664   3.108   1.324  0.00  0.00     0.095 C 
ATOM      2  H1  <0> d           0.285   3.405   1.431  0.00  0.00     0.095 H 
ATOM      3  C3  <0> d          -0.726   1.578   1.269  0.00  0.00    -0.034 C 
ATOM      4  C4  <0> d          -0.013   1.086   0.008  0.00  0.00    -0.062 C 
ATOM      5  C5  <0> d          -0.750   1.591  -1.233  0.00  0.00    -0.059 C 
ATOM      6  C6  <0> d          -0.690   3.122  -1.273  0.00  0.00    -0.007 C 
ATOM      7  C7  <0> d          -1.231   3.658   0.034  0.00  0.00     0.155 C 
ATOM      8  O2  <0> d          -2.093   4.504   0.048  0.00  0.00    -0.295 OA
ATOM      9  H5  <0> d          -1.767   1.255   1.247  0.00  0.00     0.037 H 
ATOM     10  H6  <0> d          -0.235   1.163   2.149  0.00  0.00     0.037 H 
ATOM     11  H7  <0> d           0.002  -0.004   0.002  0.00  0.00     0.033 H 
ATOM     12  H8  <0> d           1.010   1.462   0.000  0.00  0.00     0.033 H 
ATOM     13  H9  <0> d          -0.276   1.186  -2.127  0.00  0.00     0.033 H 
ATOM     14  H10 <0> d          -1.790   1.268  -1.195  0.00  0.00     0.033 H 
ATOM     15  H11 <0> d           0.257   3.415  -1.398  0.00  0.00     0.044 H 
ATOM     16  H12 <0> d          -1.298   3.490  -2.099  0.00  0.00     0.044 H 
ENDROOT
BRANCH   1  17
ATOM     17  O1  <0> d          -1.438   3.579   2.429  0.00  0.00    -0.383 OA
BRANCH  17  18
ATOM     18  C1  <0> d          -0.974   4.814   2.979  0.00  0.00     0.005 C 
ATOM     19  H2  <0> d           0.050   4.691   3.333  0.00  0.00     0.066 H 
ATOM     20  H3  <0> d          -1.003   5.588   2.212  0.00  0.00     0.066 H 
ATOM     21  H4  <0> d          -1.614   5.104   3.812  0.00  0.00     0.066 H 
ENDBRANCH  17  18
ENDBRANCH   1  17
TORSDOF 2
