REMARK  5 active torsions:
REMARK  status: ('A' for Active; 'I' for Inactive)
REMARK    1  A    between atoms: C1_1  and  C2_2 
REMARK    2  A    between atoms: C2_2  and  C3_3 
REMARK    3  A    between atoms: C3_3  and  N1_4 
REMARK    4  A    between atoms: N1_4  and  C4_5 
REMARK    5  A    between atoms: C9_10  and  N2_11 
ROOT
ATOM      1  C4  <0> d          -0.203   1.220   2.479  0.00  0.00     0.054 A 
ATOM      2  C5  <0> d           0.932   0.433   2.593  0.00  0.00    -0.055 A 
ATOM      3  C6  <0> d           1.422   0.103   3.844  0.00  0.00    -0.081 A 
ATOM      4  C7  <0> d           0.777   0.548   4.982  0.00  0.00    -0.081 A 
ATOM      5  C8  <0> d          -0.359   1.329   4.877  0.00  0.00    -0.056 A 
ATOM      6  C9  <0> d          -0.855   1.668   3.627  0.00  0.00     0.052 A 
ATOM      7  H9  <0> d           1.437   0.080   1.706  0.00  0.00     0.087 H 
ATOM      8  H10 <0> d           2.309  -0.506   3.931  0.00  0.00     0.083 H 
ATOM      9  H11 <0> d           1.161   0.285   5.957  0.00  0.00     0.083 H 
ATOM     10  H12 <0> d          -0.862   1.675   5.769  0.00  0.00     0.087 H 
ENDROOT
BRANCH   1  11
ATOM     11  N1  <0> d          -0.698   1.558   1.213  0.00  0.00    -0.388 N 
ATOM     12  H8  <0> d          -1.495   2.106   1.135  0.00  0.00     0.159 HD
BRANCH  11  13
ATOM     13  C3  <0> d          -0.013   1.086   0.008  0.00  0.00    -0.007 C 
ATOM     14  H6  <0> d           0.002  -0.004   0.002  0.00  0.00     0.063 H 
ATOM     15  H7  <0> d           1.010   1.463   0.000  0.00  0.00     0.063 H 
BRANCH  13  16
ATOM     16  C2  <0> d          -0.753   1.593  -1.232  0.00  0.00    -0.054 C 
ATOM     17  H4  <0> d          -1.775   1.215  -1.224  0.00  0.00     0.034 H 
ATOM     18  H5  <0> d          -0.767   2.683  -1.226  0.00  0.00     0.034 H 
BRANCH  16  19
ATOM     19  C1  <0> d          -0.037   1.099  -2.490  0.00  0.00    -0.075 C 
ATOM     20  H1  <0> d          -0.022   0.009  -2.496  0.00  0.00     0.027 H 
ATOM     21  H2  <0> d          -0.564   1.460  -3.373  0.00  0.00     0.027 H 
ATOM     22  H3  <0> d           0.986   1.476  -2.498  0.00  0.00     0.027 H 
ENDBRANCH  16  19
ENDBRANCH  13  16
ENDBRANCH  11  13
ENDBRANCH   1  11
BRANCH   6  23
ATOM     23  N2  <0> d          -2.005   2.459   3.519  0.00  0.00    -0.397 N 
ATOM     24  H13 <0> d          -2.351   2.695   2.644  0.00  0.00     0.156 HD
ATOM     25  H14 <0> d          -2.457   2.770   4.319  0.00  0.00     0.156 HD
ENDBRANCH   6  23
TORSDOF 5
