REMARK  4 active torsions:
REMARK  status: ('A' for Active; 'I' for Inactive)
REMARK    1  A    between atoms: C1_1  and  C2_2 
REMARK    2  A    between atoms: C2_2  and  O1_3 
REMARK    3  A    between atoms: O1_3  and  C3_4 
REMARK    4  A    between atoms: C3_4  and  C4_6 
ROOT
ATOM      1  C4  <0> d           0.821   2.765  -0.979  0.00  0.00     0.035 C 
ATOM      2  C5  <0> d           1.388   1.721  -0.002  0.00  0.00    -0.026 C 
ATOM      3  C6  <0> d          -0.013   1.086   0.008  0.00  0.00     0.074 C 
ATOM      4  C7  <0> d          -0.218   1.707  -1.384  0.00  0.00    -0.026 C 
ATOM      5  O3  <0> d          -0.878   1.623   1.010  0.00  0.00    -0.235 OA
ATOM      6  H6  <0> d           0.541   3.781  -0.664  0.00  0.00     0.055 H 
ATOM      7  H7  <0> d           2.218   1.182  -0.482  0.00  0.00     0.038 H 
ATOM      8  H8  <0> d           1.754   2.227   0.904  0.00  0.00     0.038 H 
ATOM      9  H9  <0> d          -0.207   0.029   0.243  0.00  0.00     0.088 H 
ATOM     10  H10 <0> d          -1.173   2.201  -1.615  0.00  0.00     0.038 H 
ATOM     11  H11 <0> d           0.138   1.164  -2.272  0.00  0.00     0.038 H 
ENDROOT
BRANCH   1  12
ATOM     12  C3  <0> d           1.773   3.132  -2.088  0.00  0.00     0.263 C 
ATOM     13  O2  <0> d           2.864   2.616  -2.144  0.00  0.00    -0.265 OA
BRANCH  12  14
ATOM     14  O1  <0> d           1.408   4.034  -3.014  0.00  0.00    -0.322 OA
BRANCH  14  15
ATOM     15  C2  <0> d           2.375   4.339  -4.053  0.00  0.00     0.025 C 
ATOM     16  H4  <0> d           2.615   3.422  -4.611  0.00  0.00     0.074 H 
ATOM     17  H5  <0> d           3.291   4.740  -3.595  0.00  0.00     0.074 H 
BRANCH  15  18
ATOM     18  C1  <0> d           1.786   5.378  -5.008  0.00  0.00    -0.056 C 
ATOM     19  H1  <0> d           2.518   5.610  -5.796  0.00  0.00     0.030 H 
ATOM     20  H2  <0> d           1.546   6.295  -4.450  0.00  0.00     0.030 H 
ATOM     21  H3  <0> d           0.869   4.978  -5.466  0.00  0.00     0.030 H 
ENDBRANCH  15  18
ENDBRANCH  14  15
ENDBRANCH  12  14
ENDBRANCH   1  12
TORSDOF 4
