REMARK  2 active torsions:
REMARK  status: ('A' for Active; 'I' for Inactive)
REMARK    1  A    between atoms: C1_1  and  S1_2 
REMARK    2  A    between atoms: S1_2  and  C2_3 
ROOT
ATOM      1  C2  <0> d           1.303  -0.366  -0.012  0.00  0.00     0.183 A 
ATOM      2  N1  <0> d           0.002  -0.004   0.002  0.00  0.00    -0.254 N 
ATOM      3  N2  <0> d          -0.017   1.400   0.009  0.00  0.00    -0.166 NA
ATOM      4  C3  <0> d           1.226   1.799   0.000  0.00  0.00     0.108 A 
ATOM      5  N3  <0> d           2.028   0.733  -0.013  0.00  0.00    -0.215 NA
ATOM      6  H4  <0> d           1.438   2.776   0.003  0.00  0.00     0.149 H 
ATOM      7  H5  <0> d          -0.943  -0.567   0.008  0.00  0.00     0.191 HD
ENDROOT
BRANCH   1   8
ATOM      8  S1  <0> d           1.921  -2.016  -0.027  0.00  0.00    -0.095 SA
BRANCH   8   9
ATOM      9  C1  <0> d           3.701  -1.685  -0.042  0.00  0.00    -0.027 C 
ATOM     10  H1  <0> d           4.251  -2.638  -0.053  0.00  0.00     0.042 H 
ATOM     11  H2  <0> d           3.975  -1.113   0.856  0.00  0.00     0.042 H 
ATOM     12  H3  <0> d           3.958  -1.104  -0.940  0.00  0.00     0.042 H 
ENDBRANCH   8   9
ENDBRANCH   1   8
TORSDOF 2
