REMARK  4 active torsions:
REMARK  status: ('A' for Active; 'I' for Inactive)
REMARK    1  A    between atoms: C1_1  and  C2_2 
REMARK    2  A    between atoms: N2_6  and  C5_7 
REMARK    3  A    between atoms: C5_7  and  C6_9 
REMARK    4  A    between atoms: C5_7  and  C7_10 
ROOT
ATOM      1  C2  <0> d          -0.718   1.572   1.248  0.00  0.00     0.102 A 
ATOM      2  N1  <0> d          -0.151   1.827   2.395  0.00  0.00    -0.246 NA
ATOM      3  C3  <0> d          -1.083   2.239   3.268  0.00  0.00     0.019 A 
ATOM      4  C4  <0> d          -2.273   2.238   2.637  0.00  0.00    -0.001 A 
ATOM      5  N2  <0> d          -2.041   1.821   1.354  0.00  0.00    -0.329 N 
ATOM      6  H5  <0> d          -0.909   2.521   4.295  0.00  0.00     0.117 H 
ATOM      7  H6  <0> d          -3.226   2.518   3.061  0.00  0.00     0.113 H 
ENDROOT
BRANCH   5   8
ATOM      8  C5  <0> d          -3.042   1.669   0.295  0.00  0.00     0.098 C 
ATOM      9  H1  <0> d          -2.557   1.317  -0.615  0.00  0.00     0.089 H 
BRANCH   8  10
ATOM     10  C6  <0> d          -3.711   3.019   0.029  0.00  0.00    -0.048 C 
ATOM     11  H7  <0> d          -4.456   2.906  -0.759  0.00  0.00     0.030 H 
ATOM     12  H8  <0> d          -4.196   3.370   0.939  0.00  0.00     0.030 H 
ATOM     13  H9  <0> d          -2.958   3.742  -0.284  0.00  0.00     0.030 H 
ENDBRANCH   8  10
BRANCH   8  14
ATOM     14  C7  <0> d          -4.083   0.669   0.728  0.00  0.00     0.196 C 
ATOM     15  O1  <0> d          -3.998   0.138   1.810  0.00  0.00    -0.646 OA
ATOM     16  O2  <0> d          -5.106   0.369  -0.088  0.00  0.00    -0.646 OA
ENDBRANCH   8  14
ENDBRANCH   5   8
BRANCH   1  17
ATOM     17  C1  <0> d          -0.013   1.086   0.008  0.00  0.00    -0.021 C 
ATOM     18  H2  <0> d           0.002  -0.004   0.002  0.00  0.00     0.037 H 
ATOM     19  H3  <0> d           1.010   1.463   0.000  0.00  0.00     0.037 H 
ATOM     20  H4  <0> d          -0.540   1.447  -0.875  0.00  0.00     0.037 H 
ENDBRANCH   1  17
TORSDOF 4
