REMARK  3 active torsions:
REMARK  status: ('A' for Active; 'I' for Inactive)
REMARK    1  A    between atoms: C3_4  and  N2_6 
REMARK    2  A    between atoms: N2_6  and  C4_7 
REMARK    3  A    between atoms: C4_7  and  C5_8 
ROOT
ATOM      1  C4  <0> d          -1.023   3.589   0.027  0.00  0.00    -0.001 C 
ATOM      2  H4  <0> d          -0.475   3.901   0.916  0.00  0.00     0.064 H 
ATOM      3  H5  <0> d          -0.484   3.911  -0.864  0.00  0.00     0.064 H 
ENDROOT
BRANCH   1   4
ATOM      4  N2  <0> d          -1.149   2.129   0.019  0.00  0.00    -0.354 N 
ATOM      5  H3  <0> d          -2.027   1.718   0.021  0.00  0.00     0.163 HD
BRANCH   4   6
ATOM      6  C3  <0> d          -0.016   1.338   0.009  0.00  0.00     0.246 A 
ATOM      7  O1  <0> d           0.002  -0.004   0.002  0.00  0.00    -0.289 OA
ATOM      8  C2  <0> d           1.294  -0.398  -0.012  0.00  0.00     0.039 A 
ATOM      9  C1  <0> d           2.049   0.710  -0.014  0.00  0.00     0.028 A 
ATOM     10  H2  <0> d           1.653  -1.417  -0.022  0.00  0.00     0.126 H 
ATOM     11  N1  <0> d           1.220   1.772  -0.000  0.00  0.00    -0.219 NA
ATOM     12  H1  <0> d           3.128   0.745  -0.024  0.00  0.00     0.117 H 
ENDBRANCH   4   6
ENDBRANCH   1   4
BRANCH   1  13
ATOM     13  C5  <0> d          -2.416   4.221   0.037  0.00  0.00    -0.039 A 
ATOM     14  C7  <0> d          -2.500   5.743   0.162  0.00  0.00    -0.060 A 
ATOM     15  C6  <0> d          -2.817   5.066  -1.174  0.00  0.00    -0.060 A 
ATOM     16  H9  <0> d          -3.335   6.157   0.727  0.00  0.00     0.033 H 
ATOM     17  H10 <0> d          -1.563   6.295   0.237  0.00  0.00     0.033 H 
ATOM     18  H7  <0> d          -2.089   5.171  -1.978  0.00  0.00     0.033 H 
ATOM     19  H8  <0> d          -3.861   5.034  -1.486  0.00  0.00     0.033 H 
ATOM     20  H6  <0> d          -3.196   3.632   0.520  0.00  0.00     0.042 H 
ENDBRANCH   1  13
TORSDOF 3
