REMARK  1 active torsions:
REMARK  status: ('A' for Active; 'I' for Inactive)
REMARK    1  A    between atoms: C6_6  and  N1_7 
ROOT
ATOM      1  C1  <0> d          -0.017   1.389   0.010  0.00  0.00    -0.057 A 
ATOM      2  C2  <0> d           1.154   2.088   0.002  0.00  0.00    -0.067 A 
ATOM      3  C3  <0> d           2.384   1.408  -0.013  0.00  0.00     0.016 A 
ATOM      4  C4  <0> d           2.396   0.010  -0.021  0.00  0.00    -0.042 A 
ATOM      5  C5  <0> d           1.217  -0.684  -0.013  0.00  0.00    -0.051 A 
ATOM      6  C6  <0> d           0.002  -0.004   0.002  0.00  0.00     0.026 A 
ATOM      7  C7  <0> d           3.823  -0.483  -0.037  0.00  0.00    -0.034 A 
ATOM      8  C8  <0> d           4.710   0.770  -0.039  0.00  0.00    -0.001 A 
ATOM      9  C9  <0> d           3.754   1.937  -0.023  0.00  0.00     0.160 A 
ATOM     10  O1  <0> d           4.063   3.110  -0.020  0.00  0.00    -0.292 OA
ATOM     11  H1  <0> d          -0.960   1.915   0.026  0.00  0.00     0.086 H 
ATOM     12  H2  <0> d           1.136   3.168   0.008  0.00  0.00     0.085 H 
ATOM     13  H3  <0> d           1.229  -1.764  -0.019  0.00  0.00     0.087 H 
ATOM     14  H6  <0> d           4.023  -1.082   0.852  0.00  0.00     0.040 H 
ATOM     15  H7  <0> d           4.006  -1.072  -0.935  0.00  0.00     0.040 H 
ATOM     16  H8  <0> d           5.341   0.787   0.850  0.00  0.00     0.045 H 
ATOM     17  H9  <0> d           5.324   0.796  -0.939  0.00  0.00     0.045 H 
ENDROOT
BRANCH   6  18
ATOM     18  N1  <0> d          -1.191  -0.715   0.009  0.00  0.00    -0.399 N 
ATOM     19  H4  <0> d          -2.038  -0.241   0.020  0.00  0.00     0.156 HD
ATOM     20  H5  <0> d          -1.178  -1.685   0.004  0.00  0.00     0.156 HD
ENDBRANCH   6  18
TORSDOF 1
