REMARK  0 active torsions:
REMARK  status: ('A' for Active; 'I' for Inactive)
ROOT
ATOM      1  C1  <0> d          -1.240   3.425   0.031  0.00  0.00    -0.016 A 
ATOM      2  C2  <0> d          -1.240   2.024   0.019  0.00  0.00     0.105 A 
ATOM      3  C3  <0> d          -0.016   1.347   0.009  0.00  0.00     0.233 A 
ATOM      4  N1  <0> d           1.121   2.016   0.002  0.00  0.00    -0.187 NA
ATOM      5  C4  <0> d           1.151   3.337   0.009  0.00  0.00     0.251 A 
ATOM      6  C5  <0> d          -0.022   4.081   0.023  0.00  0.00     0.175 A 
ATOM      7  F1  <0> d           0.026   5.431   0.030  0.00  0.00    -0.201 F 
ATOM      8  F2  <0> d           2.343   3.974   0.000  0.00  0.00    -0.181 F 
ATOM      9  F3  <0> d           0.002  -0.004   0.002  0.00  0.00    -0.182 F 
ATOM     10  C6  <0> d          -2.474   1.297   0.021  0.00  0.00     0.104 C 
ATOM     11  N2  <0> d          -3.453   0.720   0.022  0.00  0.00    -0.191 NA
ATOM     12  H1  <0> d          -2.167   3.979   0.043  0.00  0.00     0.091 H 
ENDROOT
TORSDOF 0
