REMARK  2 active torsions:
REMARK  status: ('A' for Active; 'I' for Inactive)
REMARK    1  A    between atoms: C1_1  and  C2_2 
REMARK    2  A    between atoms: C5_5  and  N4_12 
ROOT
ATOM      1  C2  <0> d           0.002  -0.004   0.002  0.00  0.00     0.065 A 
ATOM      2  C3  <0> d           0.008  -0.858  -1.180  0.00  0.00     0.039 A 
ATOM      3  C4  <0> d          -0.002  -0.615  -2.559  0.00  0.00    -0.041 A 
ATOM      4  C5  <0> d           0.009  -1.707  -3.413  0.00  0.00     0.044 A 
ATOM      5  C6  <0> d           0.028  -2.994  -2.876  0.00  0.00     0.030 A 
ATOM      6  N1  <0> d           0.037  -3.195  -1.577  0.00  0.00    -0.239 NA
ATOM      7  C7  <0> d           0.029  -2.187  -0.714  0.00  0.00     0.155 A 
ATOM      8  N2  <0> d           0.034  -2.120   0.655  0.00  0.00    -0.260 N 
ATOM      9  H1  <0> d           0.047  -2.881   1.255  0.00  0.00     0.191 HD
ATOM     10  N3  <0> d           0.023  -0.778   1.049  0.00  0.00    -0.177 NA
ATOM     11  H5  <0> d          -0.018   0.393  -2.946  0.00  0.00     0.088 H 
ATOM     12  H6  <0> d           0.036  -3.843  -3.542  0.00  0.00     0.118 H 
ENDROOT
BRANCH   1  13
ATOM     13  C1  <0> d          -0.018   1.503   0.010  0.00  0.00    -0.033 C 
ATOM     14  H2  <0> d           1.004   1.880   0.003  0.00  0.00     0.035 H 
ATOM     15  H3  <0> d          -0.545   1.864  -0.873  0.00  0.00     0.035 H 
ATOM     16  H4  <0> d          -0.529   1.854   0.907  0.00  0.00     0.035 H 
ENDBRANCH   1  13
BRANCH   4  17
ATOM     17  N4  <0> d          -0.002  -1.520  -4.800  0.00  0.00    -0.398 N 
ATOM     18  H7  <0> d          -0.016  -0.623  -5.168  0.00  0.00     0.156 HD
ATOM     19  H8  <0> d           0.006  -2.287  -5.393  0.00  0.00     0.156 HD
ENDBRANCH   4  17
TORSDOF 2
