REMARK  9 active torsions:
REMARK  status: ('A' for Active; 'I' for Inactive)
REMARK    1  A    between atoms: C1_1  and  C2_2 
REMARK    2  A    between atoms: C2_2  and  C3_3 
REMARK    3  A    between atoms: C3_3  and  C4_5 
REMARK    4  A    between atoms: C3_3  and  C5_6 
REMARK    5  A    between atoms: C5_6  and  O1_7 
REMARK    6  A    between atoms: O1_7  and  C6_8 
REMARK    7  A    between atoms: C6_8  and  C7_10 
REMARK    8  A    between atoms: C7_10  and  C8_11 
REMARK    9  A    between atoms: C7_10  and  C9_12 
ROOT
ATOM      1  C5  <0> d          -0.013   1.086   0.008  0.00  0.00     0.032 C 
ATOM      2  H10 <0> d           0.002  -0.004   0.002  0.00  0.00     0.075 H 
ATOM      3  H11 <0> d           1.010   1.463   0.000  0.00  0.00     0.075 H 
ENDROOT
BRANCH   1   4
ATOM      4  C3  <0> d          -0.729   1.579   1.267  0.00  0.00    -0.037 C 
ATOM      5  H1  <0> d          -1.776   1.277   1.232  0.00  0.00     0.042 H 
BRANCH   4   6
ATOM      6  C2  <0> d          -0.064   0.971   2.503  0.00  0.00    -0.064 C 
ATOM      7  H5  <0> d          -0.047  -0.115   2.410  0.00  0.00     0.033 H 
ATOM      8  H6  <0> d           0.957   1.344   2.587  0.00  0.00     0.033 H 
BRANCH   6   9
ATOM      9  C1  <0> d          -0.855   1.364   3.753  0.00  0.00    -0.076 C 
ATOM     10  H2  <0> d          -0.871   2.450   3.846  0.00  0.00     0.027 H 
ATOM     11  H3  <0> d          -1.875   0.991   3.669  0.00  0.00     0.027 H 
ATOM     12  H4  <0> d          -0.381   0.931   4.634  0.00  0.00     0.027 H 
ENDBRANCH   6   9
ENDBRANCH   4   6
BRANCH   4  13
ATOM     13  C4  <0> d          -0.641   3.105   1.339  0.00  0.00    -0.071 C 
ATOM     14  H7  <0> d           0.406   3.407   1.374  0.00  0.00     0.028 H 
ATOM     15  H8  <0> d          -1.115   3.538   0.458  0.00  0.00     0.028 H 
ATOM     16  H9  <0> d          -1.151   3.457   2.235  0.00  0.00     0.028 H 
ENDBRANCH   4  13
ENDBRANCH   1   4
BRANCH   1  17
ATOM     17  O1  <0> d          -0.715   1.567  -1.168  0.00  0.00    -0.321 OA
BRANCH  17  18
ATOM     18  C6  <0> d          -0.211   1.220  -2.363  0.00  0.00     0.262 C 
ATOM     19  O2  <0> d           0.783   0.536  -2.424  0.00  0.00    -0.265 OA
BRANCH  18  20
ATOM     20  C7  <0> d          -0.887   1.682  -3.629  0.00  0.00     0.023 C 
ATOM     21  H12 <0> d          -0.901   2.771  -3.655  0.00  0.00     0.054 H 
BRANCH  20  22
ATOM     22  C8  <0> d          -0.117   1.152  -4.840  0.00  0.00    -0.065 C 
ATOM     23  H13 <0> d          -0.103   0.062  -4.813  0.00  0.00     0.028 H 
ATOM     24  H14 <0> d          -0.606   1.486  -5.755  0.00  0.00     0.028 H 
ATOM     25  H15 <0> d           0.905   1.529  -4.815  0.00  0.00     0.028 H 
ENDBRANCH  20  22
BRANCH  20  26
ATOM     26  C9  <0> d          -2.321   1.152  -3.664  0.00  0.00    -0.065 C 
ATOM     27  H16 <0> d          -2.307   0.062  -3.637  0.00  0.00     0.028 H 
ATOM     28  H17 <0> d          -2.870   1.529  -2.801  0.00  0.00     0.028 H 
ATOM     29  H18 <0> d          -2.810   1.486  -4.579  0.00  0.00     0.028 H 
ENDBRANCH  20  26
ENDBRANCH  18  20
ENDBRANCH  17  18
ENDBRANCH   1  17
TORSDOF 9
