REMARK  3 active torsions:
REMARK  status: ('A' for Active; 'I' for Inactive)
REMARK    1  A    between atoms: N1_3  and  C4_6 
REMARK    2  A    between atoms: C4_6  and  C5_7 
REMARK    3  A    between atoms: C5_7  and  O1_8 
ROOT
ATOM      1  C1  <0> d           0.618  -0.132   4.140  0.00  0.00     0.018 A 
ATOM      2  C2  <0> d          -0.255  -0.081   3.116  0.00  0.00    -0.003 A 
ATOM      3  N1  <0> d          -0.020   1.094   2.454  0.00  0.00    -0.348 N 
ATOM      4  C3  <0> d           0.982   1.725   3.102  0.00  0.00     0.065 A 
ATOM      5  N2  <0> d           1.359   0.986   4.110  0.00  0.00    -0.255 NA
ATOM      6  H1  <0> d           0.703  -0.930   4.862  0.00  0.00     0.117 H 
ATOM      7  H2  <0> d          -0.996  -0.825   2.864  0.00  0.00     0.113 H 
ATOM      8  H3  <0> d           1.403   2.682   2.831  0.00  0.00     0.143 H 
ENDROOT
BRANCH   3   9
ATOM      9  C4  <0> d          -0.729   1.579   1.267  0.00  0.00     0.019 C 
ATOM     10  H4  <0> d          -0.744   2.669   1.273  0.00  0.00     0.068 H 
ATOM     11  H5  <0> d          -1.751   1.202   1.275  0.00  0.00     0.068 H 
BRANCH   9  12
ATOM     12  C5  <0> d          -0.013   1.086   0.008  0.00  0.00     0.032 C 
ATOM     13  H6  <0> d           0.002  -0.004   0.002  0.00  0.00     0.076 H 
ATOM     14  H7  <0> d           1.010   1.463   0.000  0.00  0.00     0.076 H 
BRANCH  12  15
ATOM     15  O1  <0> d          -0.704   1.559  -1.150  0.00  0.00    -0.399 OA
ATOM     16  H8  <0> d          -0.304   1.284  -1.986  0.00  0.00     0.209 HD
ENDBRANCH  12  15
ENDBRANCH   9  12
ENDBRANCH   3   9
TORSDOF 3
