REMARK  3 active torsions:
REMARK  status: ('A' for Active; 'I' for Inactive)
REMARK    1  A    between atoms: C1_1  and  C2_2 
REMARK    2  A    between atoms: C5_5  and  O1_9 
REMARK    3  A    between atoms: C7_7  and  N1_8 
ROOT
ATOM      1  C2  <0> d           1.175   1.782   0.000  0.00  0.00    -0.036 A 
ATOM      2  C3  <0> d          -0.013   1.076   0.008  0.00  0.00    -0.072 A 
ATOM      3  C4  <0> d          -1.219   1.749   0.017  0.00  0.00    -0.050 A 
ATOM      4  C5  <0> d          -1.242   3.137   0.030  0.00  0.00     0.067 A 
ATOM      5  C6  <0> d          -0.053   3.849   0.022  0.00  0.00    -0.025 A 
ATOM      6  C7  <0> d           1.159   3.171   0.007  0.00  0.00     0.034 A 
ATOM      7  H4  <0> d           0.002  -0.004   0.002  0.00  0.00     0.084 H 
ATOM      8  H5  <0> d          -2.146   1.194   0.019  0.00  0.00     0.087 H 
ATOM      9  H6  <0> d          -0.069   4.928   0.027  0.00  0.00     0.091 H 
ENDROOT
BRANCH   1  10
ATOM     10  C1  <0> d           2.489   1.044  -0.016  0.00  0.00    -0.049 C 
ATOM     11  H1  <0> d           2.796   0.871  -1.047  0.00  0.00     0.033 H 
ATOM     12  H2  <0> d           3.247   1.640   0.494  0.00  0.00     0.033 H 
ATOM     13  H3  <0> d           2.375   0.087   0.494  0.00  0.00     0.033 H 
ENDBRANCH   1  10
BRANCH   6  14
ATOM     14  N1  <0> d           2.359   3.884  -0.001  0.00  0.00    -0.399 N 
ATOM     15  H7  <0> d           3.205   3.410  -0.011  0.00  0.00     0.156 HD
ATOM     16  H8  <0> d           2.347   4.854   0.004  0.00  0.00     0.156 HD
ENDBRANCH   6  14
BRANCH   4  17
ATOM     17  O1  <0> d          -2.429   3.797   0.044  0.00  0.00    -0.361 OA
ATOM     18  H9  <0> d          -2.781   3.993  -0.836  0.00  0.00     0.217 HD
ENDBRANCH   4  17
TORSDOF 3
