REMARK  4 active torsions:
REMARK  status: ('A' for Active; 'I' for Inactive)
REMARK    1  A    between atoms: C1_1  and  C2_2 
REMARK    2  A    between atoms: C2_2  and  C3_3 
REMARK    3  A    between atoms: C3_3  and  C4_5 
REMARK    4  A    between atoms: N3_9  and  C6_10 
ROOT
ATOM      1  C4  <0> d           1.242   1.736  -0.001  0.00  0.00     0.193 A 
ATOM      2  N1  <0> d          -0.016   1.324   0.009  0.00  0.00    -0.218 NA
ATOM      3  C5  <0> d           0.002  -0.004   0.002  0.00  0.00     0.108 A 
ATOM      4  N2  <0> d           1.249  -0.406  -0.012  0.00  0.00    -0.164 NA
ATOM      5  N3  <0> d           2.024   0.624  -0.014  0.00  0.00    -0.253 N 
ATOM      6  H6  <0> d          -0.867  -0.646   0.006  0.00  0.00     0.149 H 
ENDROOT
BRANCH   1   7
ATOM      7  C3  <0> d           1.706   3.131   0.003  0.00  0.00     0.196 C 
ATOM      8  O1  <0> d           2.893   3.375  -0.008  0.00  0.00    -0.289 OA
BRANCH   7   9
ATOM      9  C2  <0> d           0.705   4.258   0.019  0.00  0.00    -0.005 C 
ATOM     10  H4  <0> d           0.123   4.198  -0.792  0.00  0.00     0.044 H 
ATOM     11  H5  <0> d           0.088   4.183   0.914  0.00  0.00     0.044 H 
BRANCH   9  12
ATOM     12  C1  <0> d           1.444   5.597   0.019  0.00  0.00    -0.070 C 
ATOM     13  H1  <0> d           2.061   5.671  -0.877  0.00  0.00     0.028 H 
ATOM     14  H2  <0> d           0.721   6.412   0.030  0.00  0.00     0.028 H 
ATOM     15  H3  <0> d           2.079   5.662   0.903  0.00  0.00     0.028 H 
ENDBRANCH   9  12
ENDBRANCH   7   9
ENDBRANCH   1   7
BRANCH   5  16
ATOM     16  C6  <0> d           3.488   0.600  -0.028  0.00  0.00     0.004 C 
ATOM     17  H7  <0> d           3.842   0.600  -1.059  0.00  0.00     0.059 H 
ATOM     18  H8  <0> d           3.871   1.481   0.487  0.00  0.00     0.059 H 
ATOM     19  H9  <0> d           3.842  -0.299   0.477  0.00  0.00     0.059 H 
ENDBRANCH   5  16
TORSDOF 4
