REMARK  2 active torsions:
REMARK  status: ('A' for Active; 'I' for Inactive)
REMARK    1  A    between atoms: C1_1  and  C2_2 
REMARK    2  A    between atoms: C8_11  and  O1_14 
ROOT
ATOM      1  C2  <0> d          -0.753   1.593  -1.232  0.00  0.00    -0.051 C 
ATOM      2  H1  <0> d          -0.082   2.211  -1.828  0.00  0.00     0.040 H 
ATOM      3  C3  <0> d          -0.013   1.086   0.008  0.00  0.00    -0.058 C 
ATOM      4  C4  <0> d          -0.729   1.579   1.267  0.00  0.00    -0.051 C 
ATOM      5  H2  <0> d          -0.202   1.218   2.150  0.00  0.00     0.040 H 
ATOM      6  C5  <0> d          -2.164   1.050   1.278  0.00  0.00    -0.061 C 
ATOM      7  C6  <0> d          -2.904   1.556   0.038  0.00  0.00    -0.059 C 
ATOM      8  C7  <0> d          -1.962   2.424  -0.799  0.00  0.00    -0.026 C 
ATOM      9  H3  <0> d          -2.489   2.785  -1.682  0.00  0.00     0.044 H 
ATOM     10  C8  <0> d          -1.490   3.616   0.036  0.00  0.00     0.040 C 
ATOM     11  H4  <0> d          -2.351   4.208   0.344  0.00  0.00     0.083 H 
ATOM     12  C9  <0> d          -0.750   3.109   1.275  0.00  0.00    -0.037 C 
ATOM     13  H8  <0> d           0.002  -0.004   0.002  0.00  0.00     0.034 H 
ATOM     14  H9  <0> d           1.010   1.463   0.000  0.00  0.00     0.034 H 
ATOM     15  H10 <0> d          -2.674   1.401   2.175  0.00  0.00     0.033 H 
ATOM     16  H11 <0> d          -2.149  -0.040   1.272  0.00  0.00     0.033 H 
ATOM     17  H12 <0> d          -3.766   2.149   0.346  0.00  0.00     0.033 H 
ATOM     18  H13 <0> d          -3.241   0.707  -0.557  0.00  0.00     0.033 H 
ATOM     19  H14 <0> d          -1.260   3.461   2.172  0.00  0.00     0.037 H 
ATOM     20  H15 <0> d           0.273   3.486   1.268  0.00  0.00     0.037 H 
ENDROOT
BRANCH   1  21
ATOM     21  C1  <0> d          -1.225   0.401  -2.066  0.00  0.00    -0.072 C 
ATOM     22  H5  <0> d          -1.896  -0.217  -1.470  0.00  0.00     0.028 H 
ATOM     23  H6  <0> d          -1.752   0.762  -2.949  0.00  0.00     0.028 H 
ATOM     24  H7  <0> d          -0.364  -0.192  -2.374  0.00  0.00     0.028 H 
ENDBRANCH   1  21
BRANCH  10  25
ATOM     25  O1  <0> d          -0.610   4.426  -0.746  0.00  0.00    -0.395 OA
ATOM     26  H16 <0> d          -0.270   5.202  -0.279  0.00  0.00     0.210 HD
ENDBRANCH  10  25
TORSDOF 2
