REMARK  3 active torsions:
REMARK  status: ('A' for Active; 'I' for Inactive)
REMARK    1  A    between atoms: C1_1  and  N1_2 
REMARK    2  A    between atoms: C2_3  and  C6_9 
REMARK    3  A    between atoms: C6_9  and  C7_10 
ROOT
ATOM      1  N1  <0> d           0.059   1.588  -0.027  0.00  0.00    -0.351 N 
ATOM      2  C2  <0> d          -1.105   2.481  -0.062  0.00  0.00     0.024 C 
ATOM      3  H1  <0> d          -1.765   2.273   0.780  0.00  0.00     0.073 H 
ATOM      4  C3  <0> d          -0.528   3.911   0.052  0.00  0.00    -0.038 C 
ATOM      5  C4  <0> d           0.896   3.721  -0.519  0.00  0.00     0.011 C 
ATOM      6  C5  <0> d           1.196   2.256  -0.290  0.00  0.00     0.219 C 
ATOM      7  O1  <0> d           2.300   1.758  -0.335  0.00  0.00    -0.273 OA
ATOM      8  H5  <0> d          -0.491   4.240   1.091  0.00  0.00     0.036 H 
ATOM      9  H6  <0> d          -1.103   4.611  -0.556  0.00  0.00     0.036 H 
ATOM     10  H7  <0> d           1.609   4.346   0.019  0.00  0.00     0.047 H 
ATOM     11  H8  <0> d           0.913   3.952  -1.585  0.00  0.00     0.047 H 
ENDROOT
BRANCH   2  12
ATOM     12  C6  <0> d          -1.861   2.314  -1.382  0.00  0.00     0.035 C 
ATOM     13  H9  <0> d          -1.229   2.644  -2.207  0.00  0.00     0.052 H 
ATOM     14  H10 <0> d          -2.121   1.265  -1.521  0.00  0.00     0.052 H 
BRANCH  12  15
ATOM     15  C7  <0> d          -3.118   3.143  -1.349  0.00  0.00     0.174 C 
ATOM     16  O2  <0> d          -3.437   3.718  -0.335  0.00  0.00    -0.648 OA
ATOM     17  O3  <0> d          -3.885   3.244  -2.447  0.00  0.00    -0.648 OA
ENDBRANCH  12  15
ENDBRANCH   2  12
BRANCH   1  18
ATOM     18  C1  <0> d          -0.009   0.151   0.252  0.00  0.00    -0.016 C 
ATOM     19  H2  <0> d           0.980  -0.290   0.126  0.00  0.00     0.056 H 
ATOM     20  H3  <0> d          -0.349  -0.004   1.276  0.00  0.00     0.056 H 
ATOM     21  H4  <0> d          -0.708  -0.320  -0.439  0.00  0.00     0.056 H 
ENDBRANCH   1  18
TORSDOF 3
