REMARK  9 active torsions:
REMARK  status: ('A' for Active; 'I' for Inactive)
REMARK    1  A    between atoms: C1_1  and  C2_2 
REMARK    2  A    between atoms: C2_2  and  C3_3 
REMARK    3  A    between atoms: C3_3  and  C4_4 
REMARK    4  A    between atoms: C4_4  and  C5_5 
REMARK    5  A    between atoms: C5_5  and  C6_7 
REMARK    6  A    between atoms: C5_5  and  C8_9 
REMARK    7  A    between atoms: C6_7  and  C7_8 
REMARK    8  A    between atoms: C8_9  and  C9_11 
REMARK    9  A    between atoms: C8_9  and  O1_13 
ROOT
ATOM      1  C9  <0> d           0.148   0.064   0.054  0.00  0.00    -0.085 C 
ATOM      2  C10 <0> d           0.137  -1.110   0.026  0.00  0.00    -0.151 C 
ATOM      3  H17 <0> d           0.127  -2.159   0.001  0.00  0.00     0.166 H 
ENDROOT
BRANCH   1   4
ATOM      4  C8  <0> d           0.162   1.536   0.089  0.00  0.00     0.096 C 
ATOM      5  H2  <0> d          -0.370   1.883   0.975  0.00  0.00     0.103 H 
BRANCH   4   6
ATOM      6  C5  <0> d           1.609   2.031   0.136  0.00  0.00    -0.019 C 
ATOM      7  H1  <0> d           2.123   1.571   0.980  0.00  0.00     0.045 H 
BRANCH   6   8
ATOM      8  C4  <0> d           1.622   3.552   0.299  0.00  0.00    -0.059 C 
ATOM      9  H10 <0> d           2.647   3.916   0.228  0.00  0.00     0.033 H 
ATOM     10  H11 <0> d           1.019   4.007  -0.488  0.00  0.00     0.033 H 
BRANCH   8  11
ATOM     11  C3  <0> d           1.042   3.924   1.665  0.00  0.00    -0.065 C 
ATOM     12  H8  <0> d           0.025   3.541   1.745  0.00  0.00     0.033 H 
ATOM     13  H9  <0> d           1.657   3.489   2.452  0.00  0.00     0.033 H 
BRANCH  11  14
ATOM     14  C2  <0> d           1.026   5.447   1.814  0.00  0.00    -0.069 C 
ATOM     15  H6  <0> d           2.043   5.831   1.734  0.00  0.00     0.032 H 
ATOM     16  H7  <0> d           0.410   5.883   1.027  0.00  0.00     0.032 H 
BRANCH  14  17
ATOM     17  C1  <0> d           0.446   5.819   3.180  0.00  0.00    -0.077 C 
ATOM     18  H3  <0> d          -0.571   5.435   3.260  0.00  0.00     0.027 H 
ATOM     19  H4  <0> d           1.061   5.383   3.967  0.00  0.00     0.027 H 
ATOM     20  H5  <0> d           0.434   6.904   3.287  0.00  0.00     0.027 H 
ENDBRANCH  14  17
ENDBRANCH  11  14
ENDBRANCH   8  11
ENDBRANCH   6   8
BRANCH   6  21
ATOM     21  C6  <0> d           2.320   1.651  -1.164  0.00  0.00    -0.062 C 
ATOM     22  H12 <0> d           2.229   0.577  -1.327  0.00  0.00     0.033 H 
ATOM     23  H13 <0> d           1.864   2.185  -1.997  0.00  0.00     0.033 H 
BRANCH  21  24
ATOM     24  C7  <0> d           3.800   2.027  -1.064  0.00  0.00    -0.076 C 
ATOM     25  H14 <0> d           4.226   1.591  -0.161  0.00  0.00     0.027 H 
ATOM     26  H15 <0> d           4.331   1.647  -1.937  0.00  0.00     0.027 H 
ATOM     27  H16 <0> d           3.896   3.112  -1.024  0.00  0.00     0.027 H 
ENDBRANCH  21  24
ENDBRANCH   6  21
ENDBRANCH   4   6
BRANCH   4  28
ATOM     28  O1  <0> d          -0.479   2.046  -1.081  0.00  0.00    -0.383 OA
ATOM     29  H18 <0> d          -0.058   1.777  -1.909  0.00  0.00     0.211 HD
ENDBRANCH   4  28
ENDBRANCH   1   4
TORSDOF 9
