REMARK  4 active torsions:
REMARK  status: ('A' for Active; 'I' for Inactive)
REMARK    1  A    between atoms: C1_1  and  C2_2 
REMARK    2  A    between atoms: C2_2  and  C10_14 
REMARK    3  A    between atoms: C7_9  and  C9_12 
REMARK    4  A    between atoms: C9_12  and  O1_13 
ROOT
ATOM      1  C2  <0> d           2.182   5.113   0.791  0.00  0.00    -0.040 C 
ATOM      2  C3  <0> d           1.450   4.464   2.019  0.00  0.00    -0.047 C 
ATOM      3  H1  <0> d           1.041   5.146   2.764  0.00  0.00     0.041 H 
ATOM      4  C4  <0> d           2.551   3.482   2.524  0.00  0.00    -0.061 C 
ATOM      5  C5  <0> d           3.278   3.017   1.242  0.00  0.00    -0.060 C 
ATOM      6  C6  <0> d           2.548   3.761   0.083  0.00  0.00    -0.042 C 
ATOM      7  H2  <0> d           3.095   3.830  -0.858  0.00  0.00     0.041 H 
ATOM      8  C7  <0> d           1.145   3.085   0.008  0.00  0.00    -0.029 C 
ATOM      9  H3  <0> d           0.606   3.421  -0.878  0.00  0.00     0.043 H 
ATOM     10  C8  <0> d           0.418   3.551   1.290  0.00  0.00    -0.055 C 
ATOM     11  H7  <0> d           3.245   3.999   3.188  0.00  0.00     0.033 H 
ATOM     12  H8  <0> d           2.098   2.632   3.034  0.00  0.00     0.033 H 
ATOM     13  H9  <0> d           4.329   3.304   1.276  0.00  0.00     0.033 H 
ATOM     14  H10 <0> d           3.184   1.938   1.122  0.00  0.00     0.033 H 
ATOM     15  H11 <0> d          -0.477   4.118   1.034  0.00  0.00     0.034 H 
ATOM     16  H12 <0> d           0.159   2.694   1.913  0.00  0.00     0.034 H 
ENDROOT
BRANCH   1  17
ATOM     17  C1  <0> d           1.235   5.966  -0.056  0.00  0.00    -0.069 C 
ATOM     18  H4  <0> d           0.842   6.783   0.550  0.00  0.00     0.028 H 
ATOM     19  H5  <0> d           1.778   6.374  -0.908  0.00  0.00     0.028 H 
ATOM     20  H6  <0> d           0.410   5.349  -0.412  0.00  0.00     0.028 H 
ENDBRANCH   1  17
BRANCH   1  21
ATOM     21  C10 <0> d           3.427   5.896   1.213  0.00  0.00    -0.069 C 
ATOM     22  H16 <0> d           4.116   5.230   1.732  0.00  0.00     0.028 H 
ATOM     23  H17 <0> d           3.915   6.305   0.328  0.00  0.00     0.028 H 
ATOM     24  H18 <0> d           3.136   6.709   1.877  0.00  0.00     0.028 H 
ENDBRANCH   1  21
BRANCH   8  25
ATOM     25  C9  <0> d           1.286   1.562  -0.002  0.00  0.00     0.021 C 
ATOM     26  H13 <0> d           1.761   1.235   0.924  0.00  0.00     0.074 H 
ATOM     27  H14 <0> d           1.899   1.259  -0.851  0.00  0.00     0.074 H 
BRANCH  25  28
ATOM     28  O1  <0> d          -0.007   0.964  -0.111  0.00  0.00    -0.400 OA
ATOM     29  H15 <0> d           0.006  -0.003  -0.123  0.00  0.00     0.209 HD
ENDBRANCH  25  28
ENDBRANCH   8  25
TORSDOF 4
