REMARK  4 active torsions:
REMARK  status: ('A' for Active; 'I' for Inactive)
REMARK    1  A    between atoms: C1_1  and  C2_2 
REMARK    2  A    between atoms: C2_2  and  O1_3 
REMARK    3  A    between atoms: O1_3  and  C3_4 
REMARK    4  A    between atoms: C5_6  and  N2_10 
ROOT
ATOM      1  C3  <0> d           1.099   2.030   0.003  0.00  0.00     0.166 A 
ATOM      2  C4  <0> d           2.338   1.408  -0.013  0.00  0.00    -0.007 A 
ATOM      3  C5  <0> d           2.394   0.017  -0.021  0.00  0.00     0.031 A 
ATOM      4  C6  <0> d           1.193  -0.696  -0.013  0.00  0.00    -0.041 A 
ATOM      5  C7  <0> d           0.002  -0.004   0.002  0.00  0.00     0.007 A 
ATOM      6  N1  <0> d          -0.016   1.317   0.009  0.00  0.00    -0.237 NA
ATOM      7  H6  <0> d           3.245   1.993  -0.019  0.00  0.00     0.093 H 
ATOM      8  H7  <0> d           1.198  -1.776  -0.019  0.00  0.00     0.089 H 
ATOM      9  H8  <0> d          -0.930  -0.549   0.008  0.00  0.00     0.115 H 
ENDROOT
BRANCH   1  10
ATOM     10  O1  <0> d           1.029   3.385   0.010  0.00  0.00    -0.335 OA
BRANCH  10  11
ATOM     11  C2  <0> d          -0.276   3.967   0.025  0.00  0.00     0.024 C 
ATOM     12  H4  <0> d          -0.814   3.638   0.927  0.00  0.00     0.074 H 
ATOM     13  H5  <0> d          -0.830   3.647  -0.870  0.00  0.00     0.074 H 
BRANCH  11  14
ATOM     14  C1  <0> d          -0.154   5.492   0.032  0.00  0.00    -0.056 C 
ATOM     15  H1  <0> d          -1.159   5.940   0.043  0.00  0.00     0.030 H 
ATOM     16  H2  <0> d           0.384   5.821  -0.870  0.00  0.00     0.030 H 
ATOM     17  H3  <0> d           0.400   5.812   0.926  0.00  0.00     0.030 H 
ENDBRANCH  11  14
ENDBRANCH  10  11
ENDBRANCH   1  10
BRANCH   3  18
ATOM     18  N2  <0> d           3.618  -0.647  -0.036  0.00  0.00    -0.399 N 
ATOM     19  H9  <0> d           3.647  -1.747  -0.043  0.00  0.00     0.156 HD
ATOM     20  H10 <0> d           4.555  -0.072  -0.043  0.00  0.00     0.156 HD
ENDBRANCH   3  18
TORSDOF 4
