REMARK  1 active torsions:
REMARK  status: ('A' for Active; 'I' for Inactive)
REMARK    1  A    between atoms: C1_1  and  C2_2 
ROOT
ATOM      1  C2  <0> d           1.154   3.196   0.008  0.00  0.00    -0.039 A 
ATOM      2  C3  <0> d          -0.031   3.870   0.023  0.00  0.00    -0.049 A 
ATOM      3  C4  <0> d          -1.236   3.171   0.030  0.00  0.00     0.043 A 
ATOM      4  C5  <0> d          -1.224   1.762   0.017  0.00  0.00    -0.007 A 
ATOM      5  C6  <0> d          -2.630   1.346   0.022  0.00  0.00    -0.056 A 
ATOM      6  C7  <0> d          -3.369   2.465   0.031  0.00  0.00    -0.022 A 
ATOM      7  N1  <0> d          -2.554   3.564   0.045  0.00  0.00    -0.365 N 
ATOM      8  H1  <0> d          -2.860   4.484   0.052  0.00  0.00     0.165 HD
ATOM      9  C8  <0> d          -0.013   1.076   0.008  0.00  0.00    -0.050 A 
ATOM     10  C9  <0> d           1.180   1.795   0.000  0.00  0.00     0.051 A 
ATOM     11  C10 <0> d           2.433   1.102  -0.016  0.00  0.00     0.100 C 
ATOM     12  N2  <0> d           3.427   0.552  -0.029  0.00  0.00    -0.191 NA
ATOM     13  H5  <0> d          -0.036   4.950   0.028  0.00  0.00     0.087 H 
ATOM     14  H6  <0> d          -2.999   0.331   0.018  0.00  0.00     0.086 H 
ATOM     15  H7  <0> d          -4.449   2.495   0.037  0.00  0.00     0.111 H 
ATOM     16  H8  <0> d           0.002  -0.004   0.002  0.00  0.00     0.087 H 
ENDROOT
BRANCH   1  17
ATOM     17  C1  <0> d           2.450   3.966   0.000  0.00  0.00    -0.050 C 
ATOM     18  H2  <0> d           2.752   4.157  -1.030  0.00  0.00     0.033 H 
ATOM     19  H3  <0> d           2.312   4.914   0.520  0.00  0.00     0.033 H 
ATOM     20  H4  <0> d           3.221   3.384   0.503  0.00  0.00     0.033 H 
ENDBRANCH   1  17
TORSDOF 1
