REMARK  1 active torsions:
REMARK  status: ('A' for Active; 'I' for Inactive)
REMARK    1  A    between atoms: C4_5  and  C5_7 
REMARK       I    between atoms: C5_7  and  N1_9 
ROOT
ATOM      1  C1  <0> d          -0.019   1.541   0.011  0.00  0.00    -0.032 C 
ATOM      2  C2  <0> d           1.474   1.937  -0.002  0.00  0.00     0.020 C 
ATOM      3  O1  <0> d           2.163   0.795   0.553  0.00  0.00    -0.390 OA
ATOM      4  C3  <0> d           1.506  -0.359  -0.014  0.00  0.00     0.031 C 
ATOM      5  C4  <0> d           0.002  -0.004   0.002  0.00  0.00     0.046 C 
ATOM      6  H1  <0> d          -0.491  -0.388  -0.891  0.00  0.00     0.058 H 
ATOM      7  H2  <0> d          -0.505   1.911   0.913  0.00  0.00     0.037 H 
ATOM      8  H3  <0> d          -0.522   1.921  -0.879  0.00  0.00     0.037 H 
ATOM      9  H4  <0> d           1.809   2.123  -1.022  0.00  0.00     0.074 H 
ATOM     10  H5  <0> d           1.639   2.817   0.619  0.00  0.00     0.074 H 
ATOM     11  H6  <0> d           1.845  -0.525  -1.037  0.00  0.00     0.075 H 
ATOM     12  H7  <0> d           1.694  -1.242   0.597  0.00  0.00     0.075 H 
ENDROOT
BRANCH   5  13
ATOM     13  C5  <0> d          -0.655  -0.548   1.244  0.00  0.00     0.221 C 
ATOM     14  O2  <0> d          -1.107   0.213   2.074  0.00  0.00    -0.273 OA
ATOM     15  N1  <0> d          -0.742  -1.880   1.433  0.00  0.00    -0.370 N 
ATOM     16  H8  <0> d          -0.381  -2.488   0.769  0.00  0.00     0.159 HD
ATOM     17  H9  <0> d          -1.165  -2.230   2.232  0.00  0.00     0.159 HD
ENDBRANCH   5  13
TORSDOF 1
