REMARK  7 active torsions:
REMARK  status: ('A' for Active; 'I' for Inactive)
REMARK    1  A    between atoms: C1_1  and  C2_2 
REMARK    2  A    between atoms: C2_2  and  C3_3 
REMARK    3  A    between atoms: C3_3  and  C4_4 
REMARK    4  A    between atoms: C4_4  and  C5_5 
REMARK    5  A    between atoms: C6_6  and  C7_7 
REMARK    6  A    between atoms: C7_7  and  C8_9 
REMARK    7  A    between atoms: C7_7  and  O1_10 
ROOT
ATOM      1  C4  <0> d          -2.451   0.944   0.019  0.00  0.00    -0.050 C 
ATOM      2  H9  <0> d          -2.989   1.136  -0.909  0.00  0.00     0.038 H 
ATOM      3  H10 <0> d          -2.239  -0.122   0.102  0.00  0.00     0.038 H 
ENDROOT
BRANCH   1   4
ATOM      4  C3  <0> d          -3.307   1.388   1.207  0.00  0.00    -0.062 C 
ATOM      5  H7  <0> d          -2.768   1.195   2.135  0.00  0.00     0.033 H 
ATOM      6  H8  <0> d          -3.519   2.454   1.124  0.00  0.00     0.033 H 
BRANCH   4   7
ATOM      7  C2  <0> d          -4.621   0.605   1.209  0.00  0.00    -0.068 C 
ATOM      8  H5  <0> d          -5.160   0.797   0.281  0.00  0.00     0.032 H 
ATOM      9  H6  <0> d          -4.409  -0.461   1.292  0.00  0.00     0.032 H 
BRANCH   7  10
ATOM     10  C1  <0> d          -5.477   1.048   2.397  0.00  0.00    -0.077 C 
ATOM     11  H2  <0> d          -5.689   2.114   2.314  0.00  0.00     0.027 H 
ATOM     12  H3  <0> d          -6.413   0.490   2.398  0.00  0.00     0.027 H 
ATOM     13  H4  <0> d          -4.938   0.856   3.325  0.00  0.00     0.027 H 
ENDBRANCH   7  10
ENDBRANCH   4   7
ENDBRANCH   1   4
BRANCH   1  14
ATOM     14  C5  <0> d          -1.156   1.715   0.017  0.00  0.00    -0.104 C 
ATOM     15  C6  <0> d          -0.013   1.076   0.008  0.00  0.00    -0.080 C 
ATOM     16  H12 <0> d           0.002  -0.004   0.002  0.00  0.00     0.080 H 
ATOM     17  H11 <0> d          -1.171   2.795   0.023  0.00  0.00     0.076 H 
BRANCH  15  18
ATOM     18  C7  <0> d           1.282   1.847  -0.000  0.00  0.00     0.048 C 
ATOM     19  H1  <0> d           1.069   2.916   0.007  0.00  0.00     0.088 H 
BRANCH  18  20
ATOM     20  C8  <0> d           2.101   1.482   1.239  0.00  0.00    -0.049 C 
ATOM     21  H13 <0> d           2.315   0.413   1.232  0.00  0.00     0.031 H 
ATOM     22  H14 <0> d           3.038   2.039   1.233  0.00  0.00     0.031 H 
ATOM     23  H15 <0> d           1.535   1.732   2.136  0.00  0.00     0.031 H 
ENDBRANCH  18  20
BRANCH  18  24
ATOM     24  O1  <0> d           2.025   1.518  -1.176  0.00  0.00    -0.392 OA
ATOM     25  H16 <0> d           2.251   0.581  -1.249  0.00  0.00     0.210 HD
ENDBRANCH  18  24
ENDBRANCH  15  18
ENDBRANCH   1  14
TORSDOF 7
