REMARK  3 active torsions:
REMARK  status: ('A' for Active; 'I' for Inactive)
REMARK    1  A    between atoms: C1_1  and  C2_2 
REMARK    2  A    between atoms: C2_2  and  C3_4 
REMARK    3  A    between atoms: C2_2  and  N2_7 
REMARK       I    between atoms: C3_4  and  N1_6 
ROOT
ATOM      1  N2  <0> d           0.690  -0.478  -1.207  0.00  0.00     0.105 N 
ATOM      2  C4  <0> d           0.056   0.061  -2.419  0.00  0.00     0.134 C 
ATOM      3  C5  <0> d           0.838  -0.408  -3.648  0.00  0.00     0.044 C 
ATOM      4  O2  <0> d           0.892  -1.837  -3.656  0.00  0.00    -0.388 OA
ATOM      5  C6  <0> d           1.504  -2.396  -2.490  0.00  0.00     0.044 C 
ATOM      6  C7  <0> d           0.729  -1.947  -1.249  0.00  0.00     0.134 C 
ATOM      7  H7  <0> d          -0.971  -0.296  -2.482  0.00  0.00     0.083 H 
ATOM      8  H8  <0> d           0.061   1.151  -2.378  0.00  0.00     0.083 H 
ATOM      9  H9  <0> d           0.339  -0.058  -4.552  0.00  0.00     0.077 H 
ATOM     10  H10 <0> d           1.850  -0.005  -3.611  0.00  0.00     0.077 H 
ATOM     11  H11 <0> d           1.487  -3.484  -2.557  0.00  0.00     0.077 H 
ATOM     12  H12 <0> d           2.536  -2.051  -2.420  0.00  0.00     0.077 H 
ATOM     13  H13 <0> d           1.225  -2.324  -0.354  0.00  0.00     0.083 H 
ATOM     14  H14 <0> d          -0.288  -2.337  -1.294  0.00  0.00     0.083 H 
ENDROOT
BRANCH   1  15
ATOM     15  C2  <0> d           0.002  -0.004   0.002  0.00  0.00     0.207 C 
ATOM     16  H1  <0> d          -1.020  -0.381   0.010  0.00  0.00     0.103 H 
BRANCH  15  17
ATOM     17  C1  <0> d          -0.019   1.526   0.010  0.00  0.00    -0.039 C 
ATOM     18  H2  <0> d           1.004   1.903   0.003  0.00  0.00     0.031 H 
ATOM     19  H3  <0> d          -0.546   1.887  -0.873  0.00  0.00     0.031 H 
ATOM     20  H4  <0> d          -0.529   1.877   0.907  0.00  0.00     0.031 H 
ENDBRANCH  15  17
BRANCH  15  21
ATOM     21  C3  <0> d           0.731  -0.503   1.223  0.00  0.00     0.248 C 
ATOM     22  O1  <0> d           1.725  -1.187   1.099  0.00  0.00    -0.271 OA
ATOM     23  N1  <0> d           0.278  -0.191   2.453  0.00  0.00    -0.368 N 
ATOM     24  H5  <0> d          -0.517   0.356   2.553  0.00  0.00     0.159 HD
ATOM     25  H6  <0> d           0.747  -0.512   3.239  0.00  0.00     0.159 HD
ENDBRANCH  15  21
ENDBRANCH   1  15
TORSDOF 3
