REMARK  1 active torsions:
REMARK  status: ('A' for Active; 'I' for Inactive)
REMARK    1  A    between atoms: C1_1  and  C2_2 
ROOT
ATOM      1  C2  <0> d           3.366   2.564  -0.015  0.00  0.00    -0.060 A 
ATOM      2  C3  <0> d           2.916   3.877  -0.005  0.00  0.00    -0.076 A 
ATOM      3  C4  <0> d           1.578   4.152   0.009  0.00  0.00    -0.070 A 
ATOM      4  C5  <0> d           0.654   3.105   0.012  0.00  0.00    -0.008 A 
ATOM      5  C6  <0> d          -0.809   3.037   0.025  0.00  0.00    -0.056 A 
ATOM      6  C7  <0> d          -1.142   1.737   0.016  0.00  0.00    -0.022 A 
ATOM      7  N1  <0> d          -0.011   0.966   0.007  0.00  0.00    -0.365 N 
ATOM      8  H1  <0> d           0.002  -0.004   0.002  0.00  0.00     0.165 HD
ATOM      9  C8  <0> d           1.105   1.772   0.001  0.00  0.00     0.042 A 
ATOM     10  C9  <0> d           2.472   1.515  -0.013  0.00  0.00    -0.051 A 
ATOM     11  H5  <0> d           3.629   4.688  -0.007  0.00  0.00     0.084 H 
ATOM     12  H6  <0> d           1.235   5.176   0.016  0.00  0.00     0.084 H 
ATOM     13  H7  <0> d          -1.490   3.875   0.035  0.00  0.00     0.086 H 
ATOM     14  H8  <0> d          -2.152   1.355   0.018  0.00  0.00     0.111 H 
ATOM     15  H9  <0> d           2.832   0.497  -0.021  0.00  0.00     0.087 H 
ENDROOT
BRANCH   1  16
ATOM     16  C1  <0> d           4.846   2.282  -0.030  0.00  0.00    -0.051 C 
ATOM     17  H2  <0> d           5.212   2.209   0.995  0.00  0.00     0.033 H 
ATOM     18  H3  <0> d           5.032   1.343  -0.550  0.00  0.00     0.033 H 
ATOM     19  H4  <0> d           5.365   3.091  -0.544  0.00  0.00     0.033 H 
ENDBRANCH   1  16
TORSDOF 1
