REMARK  3 active torsions:
REMARK  status: ('A' for Active; 'I' for Inactive)
REMARK    1  A    between atoms: C1_1  and  O1_2 
REMARK    2  A    between atoms: O1_2  and  C2_3 
REMARK    3  A    between atoms: C4_5  and  N2_8 
ROOT
ATOM      1  C2  <0> d           1.328  -0.313  -0.012  0.00  0.00     0.212 A 
ATOM      2  C3  <0> d           0.002  -0.004   0.002  0.00  0.00     0.021 A 
ATOM      3  C4  <0> d          -0.017   1.413   0.010  0.00  0.00     0.153 A 
ATOM      4  N1  <0> d           1.234   1.797  -0.000  0.00  0.00    -0.108 NA
ATOM      5  O2  <0> d           1.990   0.854  -0.012  0.00  0.00    -0.186 OA
ATOM      6  H4  <0> d          -0.839  -0.681   0.006  0.00  0.00     0.097 H 
ENDROOT
BRANCH   1   7
ATOM      7  O1  <0> d           1.871  -1.554  -0.024  0.00  0.00    -0.334 OA
BRANCH   7   8
ATOM      8  C1  <0> d           3.297  -1.637  -0.038  0.00  0.00     0.012 C 
ATOM      9  H1  <0> d           3.603  -2.694  -0.047  0.00  0.00     0.067 H 
ATOM     10  H2  <0> d           3.702  -1.146   0.859  0.00  0.00     0.067 H 
ATOM     11  H3  <0> d           3.685  -1.136  -0.938  0.00  0.00     0.067 H 
ENDBRANCH   7   8
ENDBRANCH   1   7
BRANCH   3  12
ATOM     12  N2  <0> d          -1.142   2.232   0.020  0.00  0.00    -0.382 N 
ATOM     13  H5  <0> d          -1.025   3.326   0.025  0.00  0.00     0.157 HD
ATOM     14  H6  <0> d          -2.147   1.786   0.022  0.00  0.00     0.157 HD
ENDBRANCH   3  12
TORSDOF 3
