REMARK  5 active torsions:
REMARK  status: ('A' for Active; 'I' for Inactive)
REMARK    1  A    between atoms: C1_1  and  C2_2 
REMARK    2  A    between atoms: C2_2  and  O1_3 
REMARK    3  A    between atoms: O1_3  and  C3_4 
REMARK    4  A    between atoms: C3_4  and  C4_6 
REMARK    5  A    between atoms: C7_9  and  N2_12 
ROOT
ATOM      1  C4  <0> d          -2.797  -2.398   0.016  0.00  0.00     0.110 A 
ATOM      2  C5  <0> d          -3.106  -3.746   0.018  0.00  0.00    -0.048 A 
ATOM      3  C6  <0> d          -4.494  -3.855   0.028  0.00  0.00    -0.039 A 
ATOM      4  C7  <0> d          -5.017  -2.582   0.032  0.00  0.00     0.099 A 
ATOM      5  N1  <0> d          -3.989  -1.692   0.031  0.00  0.00    -0.338 N 
ATOM      6  H1  <0> d          -4.076  -0.726   0.037  0.00  0.00     0.167 HD
ATOM      7  H7  <0> d          -2.400  -4.564   0.012  0.00  0.00     0.087 H 
ATOM      8  H8  <0> d          -5.059  -4.775   0.031  0.00  0.00     0.089 H 
ENDROOT
BRANCH   1   9
ATOM      9  C3  <0> d          -1.497  -1.839   0.006  0.00  0.00     0.310 C 
ATOM     10  O2  <0> d          -0.522  -2.567  -0.007  0.00  0.00    -0.258 OA
BRANCH   9  11
ATOM     11  O1  <0> d          -1.339  -0.499   0.012  0.00  0.00    -0.317 OA
BRANCH  11  12
ATOM     12  C2  <0> d           0.002  -0.004   0.002  0.00  0.00     0.026 C 
ATOM     13  H5  <0> d           0.512  -0.356  -0.895  0.00  0.00     0.074 H 
ATOM     14  H6  <0> d           0.529  -0.365   0.885  0.00  0.00     0.074 H 
BRANCH  12  15
ATOM     15  C1  <0> d          -0.019   1.526   0.010  0.00  0.00    -0.056 C 
ATOM     16  H2  <0> d           1.004   1.903   0.003  0.00  0.00     0.030 H 
ATOM     17  H3  <0> d          -0.546   1.887  -0.873  0.00  0.00     0.030 H 
ATOM     18  H4  <0> d          -0.529   1.877   0.907  0.00  0.00     0.030 H 
ENDBRANCH  12  15
ENDBRANCH  11  12
ENDBRANCH   9  11
ENDBRANCH   1   9
BRANCH   4  19
ATOM     19  N2  <0> d          -6.362  -2.261   0.042  0.00  0.00    -0.385 N 
ATOM     20  H9  <0> d          -7.029  -2.966   0.047  0.00  0.00     0.157 HD
ATOM     21  H10 <0> d          -6.639  -1.332   0.044  0.00  0.00     0.157 HD
ENDBRANCH   4  19
TORSDOF 5
