REMARK  4 active torsions:
REMARK  status: ('A' for Active; 'I' for Inactive)
REMARK    1  A    between atoms: C1_1  and  C2_2 
REMARK    2  A    between atoms: C2_2  and  C3_3 
REMARK    3  A    between atoms: C2_2  and  C5_5 
REMARK    4  A    between atoms: C2_2  and  O1_11 
ROOT
ATOM      1  C3  <0> d          -2.958   0.791  -1.367  0.00  0.00    -0.074 C 
ATOM      2  C4  <0> d          -3.303   0.603  -2.473  0.00  0.00    -0.151 C 
ATOM      3  H4  <0> d          -3.613   0.435  -3.462  0.00  0.00     0.166 H 
ENDROOT
BRANCH   1   4
ATOM      4  C2  <0> d          -2.524   1.026   0.020  0.00  0.00     0.145 C 
BRANCH   4   5
ATOM      5  C1  <0> d          -3.581   1.857   0.750  0.00  0.00    -0.033 C 
ATOM      6  H1  <0> d          -3.706   2.813   0.242  0.00  0.00     0.033 H 
ATOM      7  H2  <0> d          -4.529   1.319   0.752  0.00  0.00     0.033 H 
ATOM      8  H3  <0> d          -3.260   2.031   1.778  0.00  0.00     0.033 H 
ENDBRANCH   4   5
BRANCH   4   9
ATOM      9  C5  <0> d          -1.213   1.769   0.017  0.00  0.00     0.005 A 
ATOM     10  C9  <0> d          -1.193   3.151   0.030  0.00  0.00     0.012 A 
ATOM     11  N1  <0> d          -0.050   3.809   0.022  0.00  0.00    -0.272 NA
ATOM     12  H8  <0> d          -2.124   3.699   0.041  0.00  0.00     0.115 H 
ATOM     13  C8  <0> d           1.111   3.183   0.008  0.00  0.00     0.002 A 
ATOM     14  C7  <0> d           1.169   1.802   0.001  0.00  0.00    -0.065 A 
ATOM     15  H7  <0> d           2.026   3.755   0.002  0.00  0.00     0.114 H 
ATOM     16  C6  <0> d          -0.013   1.076   0.008  0.00  0.00    -0.070 A 
ATOM     17  H6  <0> d           2.122   1.294  -0.011  0.00  0.00     0.085 H 
ATOM     18  H5  <0> d           0.002  -0.004   0.002  0.00  0.00     0.084 H 
ENDBRANCH   4   9
BRANCH   4  19
ATOM     19  O1  <0> d          -2.359  -0.228   0.686  0.00  0.00    -0.373 OA
ATOM     20  H9  <0> d          -1.703  -0.808   0.277  0.00  0.00     0.212 HD
ENDBRANCH   4  19
ENDBRANCH   1   4
TORSDOF 4
