REMARK  2 active torsions:
REMARK  status: ('A' for Active; 'I' for Inactive)
REMARK    1  A    between atoms: C1_1  and  C2_2 
REMARK    2  A    between atoms: C7_7  and  O1_8 
ROOT
ATOM      1  C2  <0> d           0.002  -0.004   0.002  0.00  0.00    -0.027 A 
ATOM      2  C3  <0> d           0.005  -0.672  -1.189  0.00  0.00    -0.046 A 
ATOM      3  C4  <0> d           0.024  -2.064  -1.208  0.00  0.00     0.062 A 
ATOM      4  C5  <0> d           0.039  -2.776   0.007  0.00  0.00     0.014 A 
ATOM      5  C6  <0> d           0.036  -2.078   1.220  0.00  0.00    -0.037 A 
ATOM      6  C7  <0> d           0.023  -0.699   1.210  0.00  0.00     0.072 A 
ATOM      7  C8  <0> d           0.056  -4.192  -0.346  0.00  0.00     0.034 A 
ATOM      8  N1  <0> d           0.050  -4.278  -1.646  0.00  0.00    -0.186 NA
ATOM      9  N2  <0> d           0.031  -2.999  -2.212  0.00  0.00    -0.278 N 
ATOM     10  H1  <0> d           0.024  -2.804  -3.162  0.00  0.00     0.189 HD
ATOM     11  H5  <0> d          -0.006  -0.121  -2.117  0.00  0.00     0.088 H 
ATOM     12  H6  <0> d           0.048  -2.615   2.157  0.00  0.00     0.089 H 
ATOM     13  H8  <0> d           0.070  -5.021   0.346  0.00  0.00     0.118 H 
ENDROOT
BRANCH   1  14
ATOM     14  C1  <0> d          -0.018   1.503   0.010  0.00  0.00    -0.049 C 
ATOM     15  H2  <0> d           1.004   1.880   0.003  0.00  0.00     0.033 H 
ATOM     16  H3  <0> d          -0.545   1.864  -0.873  0.00  0.00     0.033 H 
ATOM     17  H4  <0> d          -0.529   1.854   0.907  0.00  0.00     0.033 H 
ENDBRANCH   1  14
BRANCH   6  18
ATOM     18  O1  <0> d           0.025  -0.014   2.384  0.00  0.00    -0.360 OA
ATOM     19  H7  <0> d          -0.858   0.172   2.732  0.00  0.00     0.217 HD
ENDBRANCH   6  18
TORSDOF 2
