REMARK  1 active torsions:
REMARK  status: ('A' for Active; 'I' for Inactive)
REMARK    1  A    between atoms: C4_6  and  C6_9 
ROOT
ATOM      1  C6  <0> d           1.689  -1.864  -0.025  0.00  0.00     0.071 C 
ATOM      2  C7  <0> d           1.825  -2.322  -1.417  0.00  0.00     0.066 C 
ATOM      3  N4  <0> d           1.929  -2.676  -2.492  0.00  0.00    -0.197 NA
ATOM      4  H7  <0> d           2.661  -1.947   0.484  0.00  0.00     0.067 H 
ATOM      5  H8  <0> d           0.947  -2.487   0.496  0.00  0.00     0.067 H 
ENDROOT
BRANCH   1   6
ATOM      6  C4  <0> d           1.237  -0.426  -0.011  0.00  0.00     0.143 A 
ATOM      7  N2  <0> d           0.002  -0.004   0.002  0.00  0.00    -0.134 NA
ATOM      8  N1  <0> d          -0.015   1.282   0.009  0.00  0.00    -0.135 NA
ATOM      9  C3  <0> d           1.209   1.737  -0.000  0.00  0.00     0.130 A 
ATOM     10  C2  <0> d           2.018   3.017  -0.005  0.00  0.00    -0.006 C 
ATOM     11  N3  <0> d           2.037   0.668  -0.011  0.00  0.00    -0.320 N 
ATOM     12  C1  <0> d           3.432   2.572  -0.444  0.00  0.00    -0.043 C 
ATOM     13  H3  <0> d           2.071   3.474   0.994  0.00  0.00     0.044 H 
ATOM     14  H4  <0> d           1.625   3.750  -0.724  0.00  0.00     0.044 H 
ATOM     15  C5  <0> d           3.444   1.088  -0.016  0.00  0.00     0.003 C 
ATOM     16  H1  <0> d           4.236   3.110   0.078  0.00  0.00     0.035 H 
ATOM     17  H2  <0> d           3.589   2.642  -1.530  0.00  0.00     0.035 H 
ATOM     18  H5  <0> d           4.034   0.503  -0.737  0.00  0.00     0.065 H 
ATOM     19  H6  <0> d           3.893   0.998   0.984  0.00  0.00     0.065 H 
ENDBRANCH   1   6
TORSDOF 1
