REMARK  9 active torsions:
REMARK  status: ('A' for Active; 'I' for Inactive)
REMARK    1  A    between atoms: C1_1  and  C2_2 
REMARK    2  A    between atoms: C2_2  and  C3_3 
REMARK    3  A    between atoms: C3_3  and  C4_4 
REMARK    4  A    between atoms: C4_4  and  C5_5 
REMARK    5  A    between atoms: C5_5  and  C6_6 
REMARK    6  A    between atoms: C5_5  and  C8_8 
REMARK    7  A    between atoms: C5_5  and  O1_10 
REMARK    8  A    between atoms: C6_6  and  C7_7 
REMARK    9  A    between atoms: C8_8  and  C9_9 
ROOT
ATOM      1  C5  <0> d           1.081   1.600   0.049  0.00  0.00     0.057 C 
ENDROOT
BRANCH   1   2
ATOM      2  C4  <0> d           1.857   1.109   1.272  0.00  0.00    -0.036 C 
ATOM      3  H8  <0> d           2.890   1.452   1.209  0.00  0.00     0.037 H 
ATOM      4  H9  <0> d           1.398   1.506   2.178  0.00  0.00     0.037 H 
BRANCH   2   5
ATOM      5  C3  <0> d           1.829  -0.420   1.315  0.00  0.00    -0.063 C 
ATOM      6  H6  <0> d           0.796  -0.765   1.281  0.00  0.00     0.033 H 
ATOM      7  H7  <0> d           2.373  -0.817   0.458  0.00  0.00     0.033 H 
BRANCH   5   8
ATOM      8  C2  <0> d           2.487  -0.907   2.607  0.00  0.00    -0.068 C 
ATOM      9  H4  <0> d           3.521  -0.562   2.641  0.00  0.00     0.032 H 
ATOM     10  H5  <0> d           1.943  -0.510   3.464  0.00  0.00     0.032 H 
BRANCH   8  11
ATOM     11  C1  <0> d           2.459  -2.436   2.649  0.00  0.00    -0.077 C 
ATOM     12  H1  <0> d           2.928  -2.783   3.570  0.00  0.00     0.027 H 
ATOM     13  H2  <0> d           1.425  -2.781   2.615  0.00  0.00     0.027 H 
ATOM     14  H3  <0> d           3.003  -2.833   1.792  0.00  0.00     0.027 H 
ENDBRANCH   8  11
ENDBRANCH   5   8
ENDBRANCH   2   5
ENDBRANCH   1   2
BRANCH   1  15
ATOM     15  C6  <0> d           1.653   0.949  -1.212  0.00  0.00    -0.040 C 
ATOM     16  H10 <0> d           2.723   1.145  -1.270  0.00  0.00     0.036 H 
ATOM     17  H11 <0> d           1.482  -0.127  -1.175  0.00  0.00     0.036 H 
BRANCH  15  18
ATOM     18  C7  <0> d           0.961   1.533  -2.446  0.00  0.00    -0.074 C 
ATOM     19  H12 <0> d           1.368   1.069  -3.345  0.00  0.00     0.027 H 
ATOM     20  H13 <0> d          -0.110   1.337  -2.389  0.00  0.00     0.027 H 
ATOM     21  H14 <0> d           1.132   2.609  -2.483  0.00  0.00     0.027 H 
ENDBRANCH  15  18
ENDBRANCH   1  15
BRANCH   1  22
ATOM     22  C8  <0> d           1.209   3.121  -0.060  0.00  0.00    -0.040 C 
ATOM     23  H15 <0> d           2.260   3.391  -0.164  0.00  0.00     0.036 H 
ATOM     24  H16 <0> d           0.656   3.471  -0.931  0.00  0.00     0.036 H 
BRANCH  22  25
ATOM     25  C9  <0> d           0.639   3.772   1.202  0.00  0.00    -0.074 C 
ATOM     26  H17 <0> d          -0.403   3.477   1.323  0.00  0.00     0.027 H 
ATOM     27  H18 <0> d           1.212   3.447   2.070  0.00  0.00     0.027 H 
ATOM     28  H19 <0> d           0.701   4.857   1.111  0.00  0.00     0.027 H 
ENDBRANCH  22  25
ENDBRANCH   1  22
BRANCH   1  29
ATOM     29  O1  <0> d          -0.296   1.247   0.185  0.00  0.00    -0.390 OA
ATOM     30  H20 <0> d          -0.453   0.295   0.259  0.00  0.00     0.210 HD
ENDBRANCH   1  29
TORSDOF 9
