REMARK  2 active torsions:
REMARK  status: ('A' for Active; 'I' for Inactive)
REMARK    1  A    between atoms: C1_1  and  C2_2 
REMARK    2  A    between atoms: C4_4  and  N2_9 
ROOT
ATOM      1  C2  <0> d           1.159   2.042   0.002  0.00  0.00    -0.042 A 
ATOM      2  C3  <0> d           2.372   1.369  -0.013  0.00  0.00    -0.047 A 
ATOM      3  C4  <0> d           2.356  -0.022  -0.020  0.00  0.00     0.067 A 
ATOM      4  C5  <0> d           1.132  -0.683  -0.013  0.00  0.00     0.151 A 
ATOM      5  N1  <0> d           0.002  -0.004   0.002  0.00  0.00    -0.246 NA
ATOM      6  C6  <0> d          -0.016   1.315   0.009  0.00  0.00     0.010 A 
ATOM      7 Cl1  <0> d           1.092  -2.419  -0.021  0.00  0.00    -0.060 Cl
ATOM      8  H4  <0> d           3.305   1.912  -0.019  0.00  0.00     0.087 H 
ATOM      9  H5  <0> d          -0.963   1.835   0.017  0.00  0.00     0.115 H 
ENDROOT
BRANCH   1  10
ATOM     10  C1  <0> d           1.124   3.548   0.010  0.00  0.00    -0.050 C 
ATOM     11  H1  <0> d           1.125   3.906   1.040  0.00  0.00     0.033 H 
ATOM     12  H2  <0> d           2.000   3.935  -0.510  0.00  0.00     0.033 H 
ATOM     13  H3  <0> d           0.221   3.893  -0.494  0.00  0.00     0.033 H 
ENDBRANCH   1  10
BRANCH   3  14
ATOM     14  N2  <0> d           3.552  -0.745  -0.035  0.00  0.00    -0.397 N 
ATOM     15  H6  <0> d           3.533  -1.715  -0.041  0.00  0.00     0.156 HD
ATOM     16  H7  <0> d           4.402  -0.277  -0.041  0.00  0.00     0.156 HD
ENDBRANCH   3  14
TORSDOF 2
