REMARK  3 active torsions:
REMARK  status: ('A' for Active; 'I' for Inactive)
REMARK    1  A    between atoms: C1_1  and  C2_2 
REMARK    2  A    between atoms: C4_4  and  O1_9 
REMARK    3  A    between atoms: O1_9  and  C8_10 
ROOT
ATOM      1  C2  <0> d           0.002  -0.004   0.002  0.00  0.00    -0.057 A 
ATOM      2  C3  <0> d           0.006  -0.688  -1.199  0.00  0.00    -0.045 A 
ATOM      3  C4  <0> d           0.025  -2.075  -1.207  0.00  0.00     0.071 A 
ATOM      4  C5  <0> d           0.041  -2.774  -0.009  0.00  0.00    -0.014 A 
ATOM      5  C6  <0> d           0.037  -2.086   1.191  0.00  0.00     0.119 A 
ATOM      6  C7  <0> d           0.023  -0.701   1.196  0.00  0.00    -0.040 A 
ATOM      7  F1  <0> d           0.052  -2.765   2.359  0.00  0.00    -0.206 F 
ATOM      8  H4  <0> d          -0.007  -0.142  -2.131  0.00  0.00     0.088 H 
ATOM      9  H5  <0> d           0.055  -3.853  -0.013  0.00  0.00     0.092 H 
ATOM     10  H6  <0> d           0.024  -0.164   2.133  0.00  0.00     0.089 H 
ENDROOT
BRANCH   3  11
ATOM     11  O1  <0> d           0.028  -2.748  -2.388  0.00  0.00    -0.356 OA
BRANCH  11  12
ATOM     12  C8  <0> d           0.049  -4.175  -2.321  0.00  0.00     0.010 C 
ATOM     13  H7  <0> d           0.946  -4.501  -1.795  0.00  0.00     0.066 H 
ATOM     14  H8  <0> d          -0.834  -4.526  -1.786  0.00  0.00     0.066 H 
ATOM     15  H9  <0> d           0.049  -4.586  -3.330  0.00  0.00     0.066 H 
ENDBRANCH  11  12
ENDBRANCH   3  11
BRANCH   1  16
ATOM     16  C1  <0> d          -0.018   1.503   0.010  0.00  0.00    -0.051 C 
ATOM     17  H1  <0> d           1.004   1.880   0.003  0.00  0.00     0.033 H 
ATOM     18  H2  <0> d          -0.545   1.864  -0.873  0.00  0.00     0.033 H 
ATOM     19  H3  <0> d          -0.529   1.854   0.907  0.00  0.00     0.033 H 
ENDBRANCH   1  16
TORSDOF 3
