REMARK  5 active torsions:
REMARK  status: ('A' for Active; 'I' for Inactive)
REMARK    1  A    between atoms: C1_1  and  O1_2 
REMARK    2  A    between atoms: O1_2  and  C2_3 
REMARK    3  A    between atoms: C4_6  and  C5_8 
REMARK    4  A    between atoms: C5_8  and  O4_10 
REMARK    5  A    between atoms: O4_10  and  C6_11 
ROOT
ATOM      1  C2  <0> d          -0.151   1.183   2.375  0.00  0.00     0.205 A 
ATOM      2  C3  <0> d          -0.628   1.513   3.609  0.00  0.00     0.061 A 
ATOM      3  N1  <0> d           0.174   0.962   4.516  0.00  0.00    -0.227 NA
ATOM      4  C4  <0> d           1.129   0.305   3.895  0.00  0.00     0.248 A 
ATOM      5  O2  <0> d           0.942   0.426   2.564  0.00  0.00    -0.262 OA
ATOM      6  H4  <0> d          -1.502   2.114   3.814  0.00  0.00     0.122 H 
ENDROOT
BRANCH   4   7
ATOM      7  C5  <0> d           2.215  -0.442   4.542  0.00  0.00     0.336 C 
ATOM      8  O3  <0> d           3.046  -1.015   3.865  0.00  0.00    -0.255 OA
BRANCH   7   9
ATOM      9  O4  <0> d           2.290  -0.491   5.888  0.00  0.00    -0.320 OA
BRANCH   9  10
ATOM     10  C6  <0> d           3.390  -1.248   6.459  0.00  0.00     0.013 C 
ATOM     11  H5  <0> d           3.327  -2.285   6.130  0.00  0.00     0.067 H 
ATOM     12  H6  <0> d           4.336  -0.819   6.128  0.00  0.00     0.067 H 
ATOM     13  H7  <0> d           3.333  -1.207   7.546  0.00  0.00     0.067 H 
ENDBRANCH   9  10
ENDBRANCH   7   9
ENDBRANCH   4   7
BRANCH   1  14
ATOM     14  O1  <0> d          -0.682   1.547   1.184  0.00  0.00    -0.334 OA
BRANCH  14  15
ATOM     15  C1  <0> d          -0.013   1.086   0.008  0.00  0.00     0.012 C 
ATOM     16  H1  <0> d           0.002  -0.004   0.002  0.00  0.00     0.067 H 
ATOM     17  H2  <0> d           1.010   1.463   0.000  0.00  0.00     0.067 H 
ATOM     18  H3  <0> d          -0.540   1.447  -0.875  0.00  0.00     0.067 H 
ENDBRANCH  14  15
ENDBRANCH   1  14
TORSDOF 5
