REMARK  1 active torsions:
REMARK  status: ('A' for Active; 'I' for Inactive)
REMARK    1  A    between atoms: C5_5  and  C7_7 
ROOT
ATOM      1  C1  <0> d           1.175   1.781   0.000  0.00  0.00    -0.081 A 
ATOM      2  C2  <0> d          -0.013   1.076   0.008  0.00  0.00    -0.063 A 
ATOM      3  C3  <0> d          -1.233   1.756   0.018  0.00  0.00     0.045 A 
ATOM      4  C4  <0> d          -1.250   3.150   0.030  0.00  0.00    -0.046 A 
ATOM      5  C5  <0> d          -0.048   3.855   0.023  0.00  0.00     0.042 A 
ATOM      6  C6  <0> d           1.165   3.161   0.008  0.00  0.00    -0.066 A 
ATOM      7  C8  <0> d          -2.463   1.024   0.019  0.00  0.00     0.099 C 
ATOM      8  N1  <0> d          -3.439   0.442   0.020  0.00  0.00    -0.191 NA
ATOM      9  H1  <0> d           2.115   1.250  -0.012  0.00  0.00     0.083 H 
ATOM     10  H2  <0> d           0.002  -0.004   0.002  0.00  0.00     0.085 H 
ATOM     11  H3  <0> d          -2.190   3.681   0.042  0.00  0.00     0.087 H 
ATOM     12  H4  <0> d           2.098   3.707   0.002  0.00  0.00     0.085 H 
ENDROOT
BRANCH   5  13
ATOM     13  C7  <0> d          -0.056   5.332   0.031  0.00  0.00     0.209 C 
ATOM     14  O1  <0> d          -1.111   5.934   0.044  0.00  0.00    -0.644 OA
ATOM     15  O2  <0> d           1.107   6.012   0.024  0.00  0.00    -0.644 OA
ENDBRANCH   5  13
TORSDOF 1
