REMARK  3 active torsions:
REMARK  status: ('A' for Active; 'I' for Inactive)
REMARK    1  A    between atoms: C1_1  and  C2_2 
REMARK    2  A    between atoms: C2_2  and  C3_3 
REMARK    3  A    between atoms: C7_7  and  C9_9 
ROOT
ATOM      1  C9  <0> d           4.135  -1.383  -2.347  0.00  0.00    -0.078 C 
ATOM      2  C10 <0> d           5.294  -1.569  -2.332  0.00  0.00    -0.149 C 
ATOM      3  H10 <0> d           6.331  -1.735  -2.320  0.00  0.00     0.166 H 
ENDROOT
BRANCH   1   4
ATOM      4  C7  <0> d           2.721  -1.156  -2.364  0.00  0.00     0.017 A 
ATOM      5  C6  <0> d           1.990  -1.384  -3.530  0.00  0.00    -0.065 A 
ATOM      6  C5  <0> d           0.627  -1.164  -3.539  0.00  0.00    -0.081 A 
ATOM      7  H8  <0> d           2.488  -1.733  -4.422  0.00  0.00     0.085 H 
ATOM      8  C4  <0> d          -0.013  -0.718  -2.397  0.00  0.00    -0.077 A 
ATOM      9  H7  <0> d           0.059  -1.341  -4.441  0.00  0.00     0.083 H 
ATOM     10  C3  <0> d           0.707  -0.490  -1.238  0.00  0.00    -0.057 A 
ATOM     11  H6  <0> d          -1.079  -0.547  -2.410  0.00  0.00     0.084 H 
ATOM     12  C8  <0> d           2.071  -0.701  -1.216  0.00  0.00    -0.059 A 
ATOM     13  H9  <0> d           2.632  -0.518  -0.312  0.00  0.00     0.086 H 
BRANCH  10  14
ATOM     14  C2  <0> d           0.002  -0.004   0.002  0.00  0.00    -0.044 C 
ATOM     15  H4  <0> d           0.529  -0.365   0.885  0.00  0.00     0.039 H 
ATOM     16  H5  <0> d          -1.020  -0.381   0.010  0.00  0.00     0.039 H 
BRANCH  14  17
ATOM     17  C1  <0> d          -0.019   1.526   0.010  0.00  0.00    -0.073 C 
ATOM     18  H1  <0> d           1.004   1.903   0.003  0.00  0.00     0.028 H 
ATOM     19  H2  <0> d          -0.546   1.887  -0.873  0.00  0.00     0.028 H 
ATOM     20  H3  <0> d          -0.529   1.877   0.907  0.00  0.00     0.028 H 
ENDBRANCH  14  17
ENDBRANCH  10  14
ENDBRANCH   1   4
TORSDOF 3
