REMARK  2 active torsions:
REMARK  status: ('A' for Active; 'I' for Inactive)
REMARK    1  A    between atoms: C7_7  and  C8_11 
REMARK    2  A    between atoms: C8_11  and  O1_12 
ROOT
ATOM      1  C1  <0> d           0.959   4.747  -3.408  0.00  0.00    -0.082 A 
ATOM      2  C2  <0> d           0.843   6.045  -2.927  0.00  0.00    -0.081 A 
ATOM      3  C3  <0> d           0.832   6.296  -1.585  0.00  0.00    -0.055 A 
ATOM      4  C4  <0> d           0.938   5.242  -0.681  0.00  0.00     0.062 A 
ATOM      5  C5  <0> d           1.062   3.925  -1.166  0.00  0.00     0.021 A 
ATOM      6  C6  <0> d           1.065   3.693  -2.546  0.00  0.00    -0.069 A 
ATOM      7  C7  <0> d           1.147   3.062   0.008  0.00  0.00     0.090 A 
ATOM      8  N1  <0> d           1.087   3.821   1.065  0.00  0.00    -0.176 NA
ATOM      9  N2  <0> d           0.958   5.162   0.687  0.00  0.00    -0.277 N 
ATOM     10  H1  <0> d           0.879   6.076   1.293  0.00  0.00     0.189 HD
ATOM     11  H2  <0> d           0.966   4.569  -4.473  0.00  0.00     0.083 H 
ATOM     12  H3  <0> d           0.761   6.866  -3.624  0.00  0.00     0.083 H 
ATOM     13  H4  <0> d           0.741   7.310  -1.224  0.00  0.00     0.087 H 
ATOM     14  H5  <0> d           1.156   2.687  -2.927  0.00  0.00     0.085 H 
ENDROOT
BRANCH   7  15
ATOM     15  C8  <0> d           1.286   1.562  -0.002  0.00  0.00     0.059 C 
ATOM     16  H6  <0> d           1.828   1.250  -0.907  0.00  0.00     0.083 H 
ATOM     17  H7  <0> d           1.845   1.240   0.889  0.00  0.00     0.083 H 
BRANCH  15  18
ATOM     18  O1  <0> d          -0.011   0.963   0.007  0.00  0.00    -0.395 OA
ATOM     19  H8  <0> d          -0.111  -0.133   0.002  0.00  0.00     0.209 HD
ENDBRANCH  15  18
ENDBRANCH   7  15
TORSDOF 2
