REMARK  2 active torsions:
REMARK  status: ('A' for Active; 'I' for Inactive)
REMARK    1  A    between atoms: C1_1  and  N1_2 
REMARK    2  A    between atoms: N1_2  and  C2_3 
ROOT
ATOM      1  C2  <0> d          -2.030   1.201   1.445  0.00  0.00     0.069 A 
ATOM      2  C3  <0> d          -2.706   0.404   0.532  0.00  0.00    -0.017 A 
ATOM      3  C4  <0> d          -4.022   0.048   0.766  0.00  0.00     0.118 A 
ATOM      4  C5  <0> d          -4.669   0.496   1.907  0.00  0.00    -0.043 A 
ATOM      5  C6  <0> d          -4.000   1.294   2.816  0.00  0.00    -0.041 A 
ATOM      6  C7  <0> d          -2.683   1.649   2.589  0.00  0.00     0.142 A 
ATOM      7  F1  <0> d          -2.030   2.429   3.478  0.00  0.00    -0.204 F 
ATOM      8  F2  <0> d          -4.679  -0.732  -0.120  0.00  0.00    -0.206 F 
ATOM      9  H5  <0> d          -2.203   0.058  -0.359  0.00  0.00     0.091 H 
ATOM     10  H6  <0> d          -5.698   0.221   2.085  0.00  0.00     0.088 H 
ATOM     11  H7  <0> d          -4.507   1.642   3.704  0.00  0.00     0.088 H 
ENDROOT
BRANCH   1  12
ATOM     12  N1  <0> d          -0.698   1.558   1.213  0.00  0.00    -0.392 N 
ATOM     13  H4  <0> d          -0.166   2.194   1.936  0.00  0.00     0.159 HD
BRANCH  12  14
ATOM     14  C1  <0> d          -0.013   1.086   0.008  0.00  0.00    -0.021 C 
ATOM     15  H1  <0> d           1.019   1.467   0.000  0.00  0.00     0.056 H 
ATOM     16  H2  <0> d          -0.545   1.450  -0.883  0.00  0.00     0.056 H 
ATOM     17  H3  <0> d           0.002  -0.014   0.002  0.00  0.00     0.056 H 
ENDBRANCH  12  14
ENDBRANCH   1  12
TORSDOF 2
