REMARK  3 active torsions:
REMARK  status: ('A' for Active; 'I' for Inactive)
REMARK    1  A    between atoms: C1_1  and  C2_2 
REMARK    2  A    between atoms: C2_2  and  C3_3 
REMARK    3  A    between atoms: C2_2  and  C4_4 
ROOT
ATOM      1  C2  <0> d          -2.515   0.980   0.020  0.00  0.00    -0.017 C 
ATOM      2  H4  <0> d          -3.302   1.592   0.461  0.00  0.00     0.048 H 
ENDROOT
BRANCH   1   3
ATOM      3  C1  <0> d          -2.896   0.619  -1.417  0.00  0.00    -0.068 C 
ATOM      4  H1  <0> d          -3.833   0.061  -1.415  0.00  0.00     0.028 H 
ATOM      5  H2  <0> d          -3.018   1.531  -2.001  0.00  0.00     0.028 H 
ATOM      6  H3  <0> d          -2.109   0.006  -1.859  0.00  0.00     0.028 H 
ENDBRANCH   1   3
BRANCH   1   7
ATOM      7  C3  <0> d          -2.345  -0.300   0.840  0.00  0.00    -0.068 C 
ATOM      8  H5  <0> d          -2.073  -0.042   1.864  0.00  0.00     0.028 H 
ATOM      9  H6  <0> d          -3.281  -0.858   0.842  0.00  0.00     0.028 H 
ATOM     10  H7  <0> d          -1.558  -0.912   0.399  0.00  0.00     0.028 H 
ENDBRANCH   1   7
BRANCH   1  11
ATOM     11  C4  <0> d          -1.220   1.751   0.017  0.00  0.00     0.055 A 
ATOM     12  N2  <0> d          -1.238   3.072   0.029  0.00  0.00    -0.262 NA
ATOM     13  C7  <0> d          -0.103   3.749   0.022  0.00  0.00     0.019 A 
ATOM     14  C6  <0> d           1.105   3.073   0.008  0.00  0.00     0.019 A 
ATOM     15  H10 <0> d          -0.117   4.829   0.027  0.00  0.00     0.117 H 
ATOM     16  N1  <0> d           1.123   1.752   0.001  0.00  0.00    -0.270 NA
ATOM     17  H9  <0> d           2.032   3.626   0.002  0.00  0.00     0.117 H 
ATOM     18  C5  <0> d          -0.013   1.076   0.008  0.00  0.00     0.026 A 
ATOM     19  H8  <0> d           0.002  -0.004   0.002  0.00  0.00     0.117 H 
ENDBRANCH   1  11
TORSDOF 3
