REMARK  4 active torsions:
REMARK  status: ('A' for Active; 'I' for Inactive)
REMARK    1  A    between atoms: C1_1  and  C2_2 
REMARK    2  A    between atoms: C2_2  and  C3_3 
REMARK    3  A    between atoms: C2_2  and  C4_4 
REMARK    4  A    between atoms: C4_4  and  C5_5 
ROOT
ATOM      1  C4  <0> d          -1.435  -0.464   0.017  0.00  0.00    -0.056 C 
ATOM      2  H9  <0> d          -2.031  -0.054   0.833  0.00  0.00     0.034 H 
ATOM      3  H10 <0> d          -1.849  -0.133  -0.935  0.00  0.00     0.034 H 
ENDROOT
BRANCH   1   4
ATOM      4  C2  <0> d           0.009   0.026   0.144  0.00  0.00    -0.060 C 
ATOM      5  H5  <0> d           0.624  -0.459  -0.614  0.00  0.00     0.038 H 
BRANCH   4   6
ATOM      6  C1  <0> d           0.052   1.542  -0.058  0.00  0.00    -0.073 C 
ATOM      7  H2  <0> d           1.081   1.891   0.032  0.00  0.00     0.028 H 
ATOM      8  H3  <0> d          -0.330   1.788  -1.049  0.00  0.00     0.028 H 
ATOM      9  H4  <0> d          -0.564   2.027   0.699  0.00  0.00     0.028 H 
ENDBRANCH   4   6
BRANCH   4  10
ATOM     10  C3  <0> d           0.544  -0.319   1.535  0.00  0.00    -0.073 C 
ATOM     11  H6  <0> d           0.469  -1.394   1.697  0.00  0.00     0.028 H 
ATOM     12  H7  <0> d           1.588  -0.013   1.608  0.00  0.00     0.028 H 
ATOM     13  H8  <0> d          -0.042   0.204   2.290  0.00  0.00     0.028 H 
ENDBRANCH   4  10
ENDBRANCH   1   4
BRANCH   1  14
ATOM     14  C5  <0> d          -1.463  -1.992   0.083  0.00  0.00    -0.037 C 
ATOM     15  H1  <0> d          -0.928  -2.343   0.966  0.00  0.00     0.045 H 
ATOM     16  C9  <0> d          -2.889  -2.492   0.098  0.00  0.00    -0.102 C 
ATOM     17  C8  <0> d          -3.040  -3.500  -0.721  0.00  0.00    -0.106 C 
ATOM     18  H16 <0> d          -3.678  -2.072   0.704  0.00  0.00     0.076 H 
ATOM     19  C7  <0> d          -1.740  -3.840  -1.413  0.00  0.00    -0.049 C 
ATOM     20  H15 <0> d          -3.971  -4.023  -0.881  0.00  0.00     0.076 H 
ATOM     21  C6  <0> d          -0.844  -2.597  -1.198  0.00  0.00    -0.056 C 
ATOM     22  H13 <0> d          -1.908  -4.007  -2.477  0.00  0.00     0.038 H 
ATOM     23  H14 <0> d          -1.285  -4.719  -0.956  0.00  0.00     0.038 H 
ATOM     24  H11 <0> d          -0.927  -1.906  -2.037  0.00  0.00     0.034 H 
ATOM     25  H12 <0> d           0.193  -2.887  -1.032  0.00  0.00     0.034 H 
ENDBRANCH   1  14
TORSDOF 4
