REMARK  6 active torsions:
REMARK  status: ('A' for Active; 'I' for Inactive)
REMARK    1  A    between atoms: C1_1  and  C2_2 
REMARK    2  A    between atoms: C2_2  and  C3_3 
REMARK    3  A    between atoms: C3_3  and  C5_7 
REMARK    4  A    between atoms: C5_7  and  O2_9 
REMARK    5  A    between atoms: O2_9  and  C6_10 
REMARK    6  A    between atoms: C6_10  and  C7_11 
ROOT
ATOM      1  C3  <0> d          -2.164   1.050   1.278  0.00  0.00     0.113 C 
ATOM      2  H1  <0> d          -2.152  -0.036   1.182  0.00  0.00     0.078 H 
ATOM      3  C4  <0> d          -2.911   1.633   0.151  0.00  0.00     0.074 C 
ATOM      4  N1  <0> d          -3.487   2.083  -0.718  0.00  0.00    -0.196 NA
ENDROOT
BRANCH   1   5
ATOM      5  C2  <0> d          -0.729   1.579   1.267  0.00  0.00    -0.045 C 
ATOM      6  H5  <0> d          -0.202   1.218   2.150  0.00  0.00     0.035 H 
ATOM      7  H6  <0> d          -0.744   2.669   1.273  0.00  0.00     0.035 H 
BRANCH   5   8
ATOM      8  C1  <0> d          -0.013   1.086   0.008  0.00  0.00    -0.075 C 
ATOM      9  H2  <0> d           0.002  -0.004   0.002  0.00  0.00     0.027 H 
ATOM     10  H3  <0> d           1.010   1.463   0.000  0.00  0.00     0.027 H 
ATOM     11  H4  <0> d          -0.540   1.447  -0.875  0.00  0.00     0.027 H 
ENDBRANCH   5   8
ENDBRANCH   1   5
BRANCH   1  12
ATOM     12  C5  <0> d          -2.831   1.432   2.574  0.00  0.00     0.276 C 
ATOM     13  O1  <0> d          -2.221   2.064   3.404  0.00  0.00    -0.264 OA
BRANCH  12  14
ATOM     14  O2  <0> d          -4.103   1.071   2.806  0.00  0.00    -0.321 OA
BRANCH  14  15
ATOM     15  C6  <0> d          -4.681   1.474   4.076  0.00  0.00     0.025 C 
ATOM     16  H7  <0> d          -4.100   1.044   4.892  0.00  0.00     0.074 H 
ATOM     17  H8  <0> d          -4.666   2.561   4.154  0.00  0.00     0.074 H 
BRANCH  15  18
ATOM     18  C7  <0> d          -6.125   0.977   4.160  0.00  0.00    -0.056 C 
ATOM     19  H9  <0> d          -6.559   1.279   5.113  0.00  0.00     0.030 H 
ATOM     20  H10 <0> d          -6.705   1.407   3.344  0.00  0.00     0.030 H 
ATOM     21  H11 <0> d          -6.140  -0.110   4.082  0.00  0.00     0.030 H 
ENDBRANCH  15  18
ENDBRANCH  14  15
ENDBRANCH  12  14
ENDBRANCH   1  12
TORSDOF 6
