REMARK  1 active torsions:
REMARK  status: ('A' for Active; 'I' for Inactive)
REMARK    1  A    between atoms: C1_1  and  C2_2 
ROOT
ATOM      1  C2  <0> d          -0.718   1.572   1.248  0.00  0.00     0.033 A 
ATOM      2  C3  <0> d           0.016   1.802   2.400  0.00  0.00    -0.057 A 
ATOM      3  C4  <0> d          -0.629   2.248   3.539  0.00  0.00    -0.049 A 
ATOM      4  C5  <0> d          -2.009   2.450   3.478  0.00  0.00     0.115 A 
ATOM      5  C6  <0> d          -2.685   2.195   2.274  0.00  0.00     0.203 A 
ATOM      6  N1  <0> d          -2.020   1.775   1.212  0.00  0.00    -0.227 NA
ATOM      7  O1  <0> d          -3.988   2.473   2.508  0.00  0.00    -0.249 OA
ATOM      8  C7  <0> d          -4.110   2.877   3.784  0.00  0.00     0.324 A 
ATOM      9  N2  <0> d          -2.944   2.868   4.373  0.00  0.00    -0.196 NA
ATOM     10  O2  <0> d          -5.272   3.238   4.374  0.00  0.00    -0.141 OA
ATOM     11  H4  <0> d           1.083   1.633   2.408  0.00  0.00     0.086 H 
ATOM     12  H5  <0> d          -0.080   2.435   4.450  0.00  0.00     0.087 H 
ENDROOT
BRANCH   1  13
ATOM     13  C1  <0> d          -0.013   1.086   0.008  0.00  0.00    -0.035 C 
ATOM     14  H1  <0> d           1.061   0.972   0.218  0.00  0.00     0.035 H 
ATOM     15  H2  <0> d          -0.153   1.815  -0.803  0.00  0.00     0.035 H 
ATOM     16  H3  <0> d          -0.432   0.115  -0.295  0.00  0.00     0.035 H 
ENDBRANCH   1  13
TORSDOF 1
