REMARK  4 active torsions:
REMARK  status: ('A' for Active; 'I' for Inactive)
REMARK    1  A    between atoms: C1_1  and  O1_2 
REMARK    2  A    between atoms: O1_2  and  C2_3 
REMARK    3  A    between atoms: C5_7  and  O3_10 
REMARK    4  A    between atoms: O3_10  and  C6_11 
ROOT
ATOM      1  C2  <0> d          -2.037   1.106   1.292  0.00  0.00     0.133 C 
ATOM      2  H1  <0> d          -2.081   0.020   1.206  0.00  0.00     0.129 H 
ATOM      3  C3  <0> d          -2.625   1.549   2.645  0.00  0.00    -0.015 C 
ATOM      4  C4  <0> d          -3.850   2.415   2.261  0.00  0.00    -0.015 C 
ATOM      5  C5  <0> d          -4.146   1.936   0.817  0.00  0.00     0.133 C 
ATOM      6  H2  <0> d          -4.721   1.011   0.830  0.00  0.00     0.129 H 
ATOM      7  O2  <0> d          -2.832   1.714   0.261  0.00  0.00    -0.332 OA
ATOM      8  H6  <0> d          -2.938   0.682   3.228  0.00  0.00     0.040 H 
ATOM      9  H7  <0> d          -1.899   2.142   3.202  0.00  0.00     0.040 H 
ATOM     10  H8  <0> d          -4.694   2.208   2.920  0.00  0.00     0.040 H 
ATOM     11  H9  <0> d          -3.597   3.475   2.276  0.00  0.00     0.040 H 
ENDROOT
BRANCH   1  12
ATOM     12  O1  <0> d          -0.682   1.547   1.184  0.00  0.00    -0.366 OA
BRANCH  12  13
ATOM     13  C1  <0> d          -0.013   1.086   0.008  0.00  0.00     0.007 C 
ATOM     14  H3  <0> d           0.002  -0.004   0.002  0.00  0.00     0.066 H 
ATOM     15  H4  <0> d           1.010   1.463   0.000  0.00  0.00     0.066 H 
ATOM     16  H5  <0> d          -0.540   1.447  -0.875  0.00  0.00     0.066 H 
ENDBRANCH  12  13
ENDBRANCH   1  12
BRANCH   5  17
ATOM     17  O3  <0> d          -4.838   2.948   0.083  0.00  0.00    -0.366 OA
BRANCH  17  18
ATOM     18  C6  <0> d          -5.346   2.507  -1.178  0.00  0.00     0.007 C 
ATOM     19  H10 <0> d          -5.857   3.333  -1.672  0.00  0.00     0.066 H 
ATOM     20  H11 <0> d          -4.520   2.166  -1.802  0.00  0.00     0.066 H 
ATOM     21  H12 <0> d          -6.046   1.687  -1.021  0.00  0.00     0.066 H 
ENDBRANCH  17  18
ENDBRANCH   5  17
TORSDOF 4
