REMARK  3 active torsions:
REMARK  status: ('A' for Active; 'I' for Inactive)
REMARK    1  A    between atoms: C1_1  and  N1_2 
REMARK    2  A    between atoms: C5_7  and  C7_10 
REMARK    3  A    between atoms: C7_10  and  O1_11 
ROOT
ATOM      1  N1  <0> d           0.002  -0.004   0.002  0.00  0.00    -0.344 N 
ATOM      2  C2  <0> d           0.009  -0.814  -1.117  0.00  0.00    -0.002 A 
ATOM      3  C3  <0> d           0.028  -2.082  -0.718  0.00  0.00     0.021 A 
ATOM      4  N2  <0> d           0.034  -2.111   0.667  0.00  0.00    -0.227 N 
ATOM      5  C4  <0> d           0.024  -0.825   1.110  0.00  0.00     0.140 A 
ATOM      6  C5  <0> d           0.037  -0.865   2.486  0.00  0.00     0.030 A 
ATOM      7  C6  <0> d           0.060  -2.204   2.869  0.00  0.00     0.034 A 
ATOM      8  N3  <0> d           0.051  -2.948   1.789  0.00  0.00    -0.178 NA
ATOM      9  H4  <0> d          -0.001  -0.475  -2.143  0.00  0.00     0.113 H 
ATOM     10  H5  <0> d           0.037  -2.946  -1.366  0.00  0.00     0.117 H 
ATOM     11  H6  <0> d           0.074  -2.568   3.886  0.00  0.00     0.118 H 
ENDROOT
BRANCH   6  12
ATOM     12  C7  <0> d           0.030   0.325   3.411  0.00  0.00     0.045 C 
ATOM     13  H7  <0> d           0.910   0.940   3.219  0.00  0.00     0.081 H 
ATOM     14  H8  <0> d          -0.870   0.915   3.236  0.00  0.00     0.081 H 
BRANCH  12  15
ATOM     15  O1  <0> d           0.049  -0.125   4.767  0.00  0.00    -0.396 OA
ATOM     16  H9  <0> d           0.045   0.589   5.418  0.00  0.00     0.209 HD
ENDBRANCH  12  15
ENDBRANCH   6  12
BRANCH   1  17
ATOM     17  C1  <0> d          -0.018   1.461   0.010  0.00  0.00    -0.013 C 
ATOM     18  H1  <0> d           1.005   1.838   0.002  0.00  0.00     0.057 H 
ATOM     19  H2  <0> d          -0.545   1.822  -0.873  0.00  0.00     0.057 H 
ATOM     20  H3  <0> d          -0.528   1.812   0.907  0.00  0.00     0.057 H 
ENDBRANCH   1  17
TORSDOF 3
