REMARK  3 active torsions:
REMARK  status: ('A' for Active; 'I' for Inactive)
REMARK    1  A    between atoms: C1_1  and  C2_2 
REMARK    2  A    between atoms: C2_2  and  C3_3 
REMARK    3  A    between atoms: C4_5  and  C6_8 
ROOT
ATOM      1  C6  <0> d          -4.300  -1.584  -2.008  0.00  0.00     0.055 C 
ATOM      2  C7  <0> d          -4.403  -0.407  -2.887  0.00  0.00     0.065 C 
ATOM      3  N2  <0> d          -4.482   0.501  -3.565  0.00  0.00    -0.197 NA
ATOM      4  H7  <0> d          -3.876  -2.418  -2.567  0.00  0.00     0.064 H 
ATOM      5  H8  <0> d          -5.292  -1.855  -1.646  0.00  0.00     0.064 H 
ENDROOT
BRANCH   1   6
ATOM      6  C4  <0> d          -3.409  -1.260  -0.837  0.00  0.00     0.055 A 
ATOM      7  N1  <0> d          -2.183  -0.807  -1.008  0.00  0.00    -0.249 NA
ATOM      8  C3  <0> d          -1.412  -0.526   0.013  0.00  0.00     0.075 A 
ATOM      9  S1  <0> d          -2.380  -0.895   1.339  0.00  0.00    -0.085 SA
ATOM     10  C5  <0> d          -3.833  -1.420   0.443  0.00  0.00    -0.018 A 
ATOM     11  H6  <0> d          -4.783  -1.772   0.816  0.00  0.00     0.098 H 
BRANCH   8  12
ATOM     12  C2  <0> d           0.002  -0.004   0.002  0.00  0.00    -0.022 C 
ATOM     13  H4  <0> d           0.512  -0.356  -0.895  0.00  0.00     0.042 H 
ATOM     14  H5  <0> d           0.529  -0.365   0.885  0.00  0.00     0.042 H 
BRANCH  12  15
ATOM     15  C1  <0> d          -0.019   1.526   0.010  0.00  0.00    -0.071 C 
ATOM     16  H1  <0> d           1.004   1.903   0.003  0.00  0.00     0.028 H 
ATOM     17  H2  <0> d          -0.546   1.887  -0.873  0.00  0.00     0.028 H 
ATOM     18  H3  <0> d          -0.529   1.877   0.907  0.00  0.00     0.028 H 
ENDBRANCH  12  15
ENDBRANCH   8  12
ENDBRANCH   1   6
TORSDOF 3
