REMARK  1 active torsions:
REMARK  status: ('A' for Active; 'I' for Inactive)
REMARK    1  A    between atoms: C3_4  and  N5_10 
ROOT
ATOM      1  C1  <0> d          -1.502   4.310   0.037  0.00  0.00    -0.019 A 
ATOM      2  C2  <0> d          -0.818   5.488   0.036  0.00  0.00     0.025 A 
ATOM      3  N1  <0> d           0.515   5.497   0.023  0.00  0.00    -0.075 NA
ATOM      4  C3  <0> d           1.215   4.383   0.012  0.00  0.00     0.722 A 
ATOM      5  N2  <0> d           0.597   3.171   0.013  0.00  0.00    -0.043 N 
ATOM      6  C4  <0> d          -0.771   3.106   0.025  0.00  0.00     0.172 A 
ATOM      7  N3  <0> d          -1.109   1.826   0.017  0.00  0.00    -0.220 NA
ATOM      8  C5  <0> d          -0.013   1.076   0.008  0.00  0.00     0.109 A 
ATOM      9  N4  <0> d           1.049   1.846   0.002  0.00  0.00    -0.144 NA
ATOM     10  H1  <0> d          -2.582   4.300   0.047  0.00  0.00     0.091 H 
ATOM     11  H2  <0> d          -1.360   6.422   0.045  0.00  0.00     0.115 H 
ATOM     12  H3  <0> d           0.002  -0.004   0.002  0.00  0.00     0.149 H 
ENDROOT
BRANCH   4  13
ATOM     13  N5  <0> d           2.589   4.445   0.001  0.00  0.00    -0.231 N 
ATOM     14  H4  <0> d           3.181   3.518  -0.009  0.00  0.00     0.174 HD
ATOM     15  H5  <0> d           3.095   5.421   0.000  0.00  0.00     0.174 HD
ENDBRANCH   4  13
TORSDOF 1
