REMARK  1 active torsions:
REMARK  status: ('A' for Active; 'I' for Inactive)
REMARK    1  A    between atoms: C2_2  and  C4_7 
REMARK       I    between atoms: C4_7  and  N3_9 
ROOT
ATOM      1  C1  <0> d          -0.016   1.350   0.009  0.00  0.00     0.011 A 
ATOM      2  C2  <0> d           1.284   1.763  -0.001  0.00  0.00     0.140 A 
ATOM      3  N1  <0> d           2.066   0.654  -0.014  0.00  0.00    -0.237 NA
ATOM      4  C3  <0> d           1.302  -0.400  -0.013  0.00  0.00     0.064 A 
ATOM      5  N2  <0> d           0.002  -0.004   0.002  0.00  0.00    -0.358 N 
ATOM      6  H1  <0> d          -0.773  -0.587   0.007  0.00  0.00     0.166 HD
ATOM      7  H2  <0> d          -0.892   1.981   0.025  0.00  0.00     0.115 H 
ATOM      8  H3  <0> d           1.645  -1.424  -0.021  0.00  0.00     0.143 H 
ENDROOT
BRANCH   2   9
ATOM      9  C4  <0> d           1.753   3.160   0.002  0.00  0.00     0.269 C 
ATOM     10  O1  <0> d           0.949   4.072   0.015  0.00  0.00    -0.266 OA
ATOM     11  N3  <0> d           3.074   3.426  -0.009  0.00  0.00    -0.365 N 
ATOM     12  H4  <0> d           3.716   2.699  -0.019  0.00  0.00     0.159 HD
ATOM     13  H5  <0> d           3.384   4.346  -0.007  0.00  0.00     0.159 HD
ENDBRANCH   2   9
TORSDOF 1
