REMARK  2 active torsions:
REMARK  status: ('A' for Active; 'I' for Inactive)
REMARK    1  A    between atoms: C3_3  and  O2_10 
REMARK    2  A    between atoms: C6_6  and  C7_7 
ROOT
ATOM      1  C1  <0> d          -1.216   1.747   0.017  0.00  0.00    -0.064 A 
ATOM      2  C2  <0> d          -0.013   1.076   0.008  0.00  0.00    -0.047 A 
ATOM      3  C3  <0> d           1.181   1.785   0.000  0.00  0.00     0.104 A 
ATOM      4  C4  <0> d           1.168   3.178   0.007  0.00  0.00     0.150 A 
ATOM      5  C5  <0> d          -0.031   3.856   0.022  0.00  0.00    -0.026 A 
ATOM      6  C6  <0> d          -1.235   3.144   0.030  0.00  0.00     0.043 A 
ATOM      7  F1  <0> d           2.332   3.864   0.001  0.00  0.00    -0.203 F 
ATOM      8  H1  <0> d          -2.143   1.194   0.019  0.00  0.00     0.085 H 
ATOM      9  H2  <0> d           0.002  -0.004   0.002  0.00  0.00     0.087 H 
ATOM     10  H3  <0> d          -0.042   4.936   0.027  0.00  0.00     0.090 H 
ENDROOT
BRANCH   6  11
ATOM     11  C7  <0> d          -2.521   3.866   0.046  0.00  0.00     0.209 C 
ATOM     12  O1  <0> d          -2.535   5.081   0.052  0.00  0.00    -0.644 OA
ATOM     13  O3  <0> d          -3.679   3.178   0.053  0.00  0.00    -0.644 OA
ENDBRANCH   6  11
BRANCH   3  14
ATOM     14  O2  <0> d           2.365   1.120  -0.015  0.00  0.00    -0.358 OA
ATOM     15  H4  <0> d           2.699   0.931  -0.902  0.00  0.00     0.217 HD
ENDBRANCH   3  14
TORSDOF 2
