REMARK  4 active torsions:
REMARK  status: ('A' for Active; 'I' for Inactive)
REMARK    1  A    between atoms: C1_1  and  C2_2 
REMARK    2  A    between atoms: C2_2  and  C3_3 
REMARK    3  A    between atoms: C2_2  and  N1_4 
REMARK    4  A    between atoms: C6_7  and  N3_9 
ROOT
ATOM      1  N1  <0> d           0.631   3.163   0.013  0.00  0.00    -0.275 N 
ATOM      2  C4  <0> d           1.070   1.887   0.002  0.00  0.00     0.003 A 
ATOM      3  C5  <0> d          -0.013   1.076   0.008  0.00  0.00    -0.021 A 
ATOM      4  C6  <0> d          -1.159   1.887   0.017  0.00  0.00     0.142 A 
ATOM      5  N2  <0> d          -0.770   3.140   0.026  0.00  0.00    -0.155 NA
ATOM      6  H8  <0> d           2.102   1.570  -0.010  0.00  0.00     0.114 H 
ATOM      7  H9  <0> d           0.002  -0.004   0.002  0.00  0.00     0.091 H 
ENDROOT
BRANCH   1   8
ATOM      8  C2  <0> d           1.472   4.362   0.011  0.00  0.00     0.027 C 
ATOM      9  H4  <0> d           0.914   5.197  -0.413  0.00  0.00     0.074 H 
BRANCH   8  10
ATOM     10  C1  <0> d           1.882   4.700   1.446  0.00  0.00    -0.056 C 
ATOM     11  H1  <0> d           0.990   4.883   2.045  0.00  0.00     0.030 H 
ATOM     12  H2  <0> d           2.440   3.866   1.870  0.00  0.00     0.030 H 
ATOM     13  H3  <0> d           2.508   5.593   1.444  0.00  0.00     0.030 H 
ENDBRANCH   8  10
BRANCH   8  14
ATOM     14  C3  <0> d           2.724   4.106  -0.830  0.00  0.00    -0.056 C 
ATOM     15  H5  <0> d           2.432   3.865  -1.852  0.00  0.00     0.030 H 
ATOM     16  H6  <0> d           3.350   4.998  -0.832  0.00  0.00     0.030 H 
ATOM     17  H7  <0> d           3.282   3.271  -0.406  0.00  0.00     0.030 H 
ENDBRANCH   8  14
ENDBRANCH   1   8
BRANCH   4  18
ATOM     18  N3  <0> d          -2.485   1.438   0.019  0.00  0.00    -0.383 N 
ATOM     19  H10 <0> d          -2.674   0.486   0.015  0.00  0.00     0.157 HD
ATOM     20  H11 <0> d          -3.213   2.077   0.026  0.00  0.00     0.157 HD
ENDBRANCH   4  18
TORSDOF 4
