REMARK  2 active torsions:
REMARK  status: ('A' for Active; 'I' for Inactive)
REMARK    1  A    between atoms: C4_4  and  O2_8 
REMARK    2  A    between atoms: C6_6  and  O1_7 
ROOT
ATOM      1  C1  <0> d          -1.214   1.748   0.017  0.00  0.00    -0.049 A 
ATOM      2  C2  <0> d          -0.013   1.076   0.008  0.00  0.00    -0.058 A 
ATOM      3  C3  <0> d           1.188   1.792   0.000  0.00  0.00     0.077 A 
ATOM      4  C4  <0> d           1.162   3.195   0.008  0.00  0.00     0.089 A 
ATOM      5  C5  <0> d          -0.052   3.859   0.022  0.00  0.00    -0.018 A 
ATOM      6  C6  <0> d          -1.238   3.139   0.029  0.00  0.00     0.068 A 
ATOM      7  C7  <0> d           2.440   1.096  -0.015  0.00  0.00     0.102 C 
ATOM      8  N1  <0> d           3.433   0.544  -0.028  0.00  0.00    -0.191 NA
ATOM      9  H1  <0> d          -2.141   1.194   0.019  0.00  0.00     0.087 H 
ATOM     10  H2  <0> d           0.002  -0.004   0.002  0.00  0.00     0.086 H 
ATOM     11  H3  <0> d          -0.076   4.939   0.028  0.00  0.00     0.092 H 
ENDROOT
BRANCH   4  12
ATOM     12  O2  <0> d           2.323   3.898   0.001  0.00  0.00    -0.359 OA
ATOM     13  H5  <0> d           2.651   4.106  -0.885  0.00  0.00     0.217 HD
ENDBRANCH   4  12
BRANCH   6  14
ATOM     14  O1  <0> d          -2.426   3.794   0.043  0.00  0.00    -0.361 OA
ATOM     15  H4  <0> d          -2.779   3.988  -0.837  0.00  0.00     0.217 HD
ENDBRANCH   6  14
TORSDOF 2
