REMARK  6 active torsions:
REMARK  status: ('A' for Active; 'I' for Inactive)
REMARK    1  A    between atoms: C1_1  and  C2_2 
REMARK    2  A    between atoms: C2_2  and  C3_3 
REMARK    3  A    between atoms: C2_2  and  C4_4 
REMARK    4  A    between atoms: C4_4  and  C5_5 
REMARK    5  A    between atoms: C7_7  and  C8_10 
REMARK    6  A    between atoms: C8_10  and  O2_11 
ROOT
ATOM      1  C4  <0> d           0.742  -0.511   1.242  0.00  0.00    -0.020 C 
ATOM      2  H8  <0> d           0.835  -1.596   1.191  0.00  0.00     0.043 H 
ATOM      3  H9  <0> d           1.735  -0.063   1.280  0.00  0.00     0.043 H 
ENDROOT
BRANCH   1   4
ATOM      4  C2  <0> d           0.002  -0.004   0.002  0.00  0.00    -0.056 C 
ATOM      5  H4  <0> d          -1.020  -0.381   0.010  0.00  0.00     0.039 H 
BRANCH   4   6
ATOM      6  C1  <0> d          -0.019   1.526   0.010  0.00  0.00    -0.073 C 
ATOM      7  H1  <0> d           1.004   1.903   0.003  0.00  0.00     0.028 H 
ATOM      8  H2  <0> d          -0.546   1.887  -0.873  0.00  0.00     0.028 H 
ATOM      9  H3  <0> d          -0.529   1.877   0.907  0.00  0.00     0.028 H 
ENDBRANCH   4   6
BRANCH   4  10
ATOM     10  C3  <0> d           0.718  -0.497  -1.257  0.00  0.00    -0.073 C 
ATOM     11  H5  <0> d           1.741  -0.120  -1.264  0.00  0.00     0.028 H 
ATOM     12  H6  <0> d           0.733  -1.587  -1.263  0.00  0.00     0.028 H 
ATOM     13  H7  <0> d           0.191  -0.136  -2.140  0.00  0.00     0.028 H 
ENDBRANCH   4  10
ENDBRANCH   1   4
BRANCH   1  14
ATOM     14  C5  <0> d          -0.030  -0.130   2.478  0.00  0.00     0.065 A 
ATOM     15  N1  <0> d          -0.404   1.075   2.806  0.00  0.00    -0.133 NA
ATOM     16  O1  <0> d          -1.104   0.995   4.034  0.00  0.00    -0.215 OA
ATOM     17  C7  <0> d          -1.118  -0.291   4.417  0.00  0.00     0.104 A 
ATOM     18  C6  <0> d          -0.467  -1.010   3.484  0.00  0.00    -0.024 A 
ATOM     19  H10 <0> d          -0.307  -2.079   3.504  0.00  0.00     0.090 H 
BRANCH  17  20
ATOM     20  C8  <0> d          -1.752  -0.834   5.672  0.00  0.00     0.063 C 
ATOM     21  H11 <0> d          -2.607  -0.215   5.945  0.00  0.00     0.084 H 
ATOM     22  H12 <0> d          -2.087  -1.857   5.496  0.00  0.00     0.084 H 
BRANCH  20  23
ATOM     23  O2  <0> d          -0.796  -0.821   6.733  0.00  0.00    -0.394 OA
ATOM     24  H13 <0> d          -1.136  -1.159   7.573  0.00  0.00     0.209 HD
ENDBRANCH  20  23
ENDBRANCH  17  20
ENDBRANCH   1  14
TORSDOF 6
