REMARK  0 active torsions:
REMARK  status: ('A' for Active; 'I' for Inactive)
ROOT
ATOM      1  C1  <0> d           1.178   1.774   0.000  0.00  0.00    -0.064 A 
ATOM      2  C2  <0> d           1.152   3.161   0.011  0.00  0.00    -0.053 A 
ATOM      3  C3  <0> d          -0.081   3.808   0.027  0.00  0.00     0.064 A 
ATOM      4  C4  <0> d          -1.242   3.036   0.029  0.00  0.00     0.119 A 
ATOM      5  N1  <0> d          -1.168   1.712   0.017  0.00  0.00    -0.252 NA
ATOM      6  C5  <0> d          -0.013   1.076   0.008  0.00  0.00     0.004 A 
ATOM      7  S1  <0> d          -2.832   3.803   0.035  0.00  0.00    -0.106 SA
ATOM      8  C6  <0> d          -2.466   5.518   0.513  0.00  0.00    -0.003 C 
ATOM      9  C7  <0> d          -1.268   5.990  -0.324  0.00  0.00     0.001 C 
ATOM     10  N2  <0> d          -0.096   5.202   0.048  0.00  0.00    -0.387 N 
ATOM     11  H1  <0> d           2.120   1.246  -0.014  0.00  0.00     0.085 H 
ATOM     12  H2  <0> d           2.071   3.728   0.009  0.00  0.00     0.087 H 
ATOM     13  H3  <0> d           0.002  -0.004   0.002  0.00  0.00     0.114 H 
ATOM     14  H4  <0> d          -2.216   5.561   1.573  0.00  0.00     0.051 H 
ATOM     15  H5  <0> d          -3.331   6.150   0.311  0.00  0.00     0.051 H 
ATOM     16  H6  <0> d          -1.077   7.045  -0.126  0.00  0.00     0.065 H 
ATOM     17  H7  <0> d          -1.482   5.850  -1.384  0.00  0.00     0.065 H 
ATOM     18  H8  <0> d           0.708   5.670   0.322  0.00  0.00     0.159 HD
ENDROOT
TORSDOF 0
