REMARK  0 active torsions:
REMARK  status: ('A' for Active; 'I' for Inactive)
ROOT
ATOM      1  C1  <0> d          -0.021   1.678   0.011  0.00  0.00     0.064 A 
ATOM      2  N1  <0> d           1.259   1.969   0.001  0.00  0.00    -0.154 NA
ATOM      3  N2  <0> d           2.103   1.026  -0.013  0.00  0.00    -0.130 NA
ATOM      4  C2  <0> d           1.671  -0.215  -0.015  0.00  0.00     0.190 A 
ATOM      5  S1  <0> d           0.002  -0.004   0.002  0.00  0.00    -0.047 SA
ATOM      6 Cl1  <0> d           2.586  -1.691  -0.033  0.00  0.00    -0.053 Cl
ATOM      7  H1  <0> d          -0.869   2.346   0.027  0.00  0.00     0.129 H 
ENDROOT
TORSDOF 0
