REMARK  0 active torsions:
REMARK  status: ('A' for Active; 'I' for Inactive)
ROOT
ATOM      1  C1  <0> d          -0.013   1.076   0.008  0.00  0.00    -0.082 A 
ATOM      2  C2  <0> d           1.186   1.777   0.000  0.00  0.00    -0.082 A 
ATOM      3  C3  <0> d           1.200   3.145   0.007  0.00  0.00    -0.067 A 
ATOM      4  C4  <0> d          -0.008   3.843   0.022  0.00  0.00     0.042 A 
ATOM      5  C5  <0> d          -1.228   3.130   0.031  0.00  0.00    -0.019 A 
ATOM      6  C6  <0> d          -1.211   1.734   0.017  0.00  0.00    -0.072 A 
ATOM      7  C7  <0> d          -2.478   3.891   0.046  0.00  0.00    -0.057 A 
ATOM      8  C8  <0> d          -2.434   5.233   0.052  0.00  0.00    -0.019 A 
ATOM      9  N1  <0> d          -1.257   5.926   0.044  0.00  0.00    -0.333 N 
ATOM     10  H1  <0> d          -1.285   6.895   0.050  0.00  0.00     0.168 HD
ATOM     11  C9  <0> d          -0.059   5.309   0.030  0.00  0.00     0.256 A 
ATOM     12  O1  <0> d           0.970   5.962   0.023  0.00  0.00    -0.267 OA
ATOM     13  H2  <0> d           0.002  -0.004   0.002  0.00  0.00     0.083 H 
ATOM     14  H3  <0> d           2.120   1.236  -0.012  0.00  0.00     0.083 H 
ATOM     15  H4  <0> d           2.138   3.680   0.001  0.00  0.00     0.085 H 
ATOM     16  H5  <0> d          -2.137   1.178   0.018  0.00  0.00     0.084 H 
ATOM     17  H6  <0> d          -3.429   3.377   0.053  0.00  0.00     0.086 H 
ATOM     18  H7  <0> d          -3.362   5.784   0.063  0.00  0.00     0.111 H 
ENDROOT
TORSDOF 0
