REMARK  0 active torsions:
REMARK  status: ('A' for Active; 'I' for Inactive)
ROOT
ATOM      1  C1  <0> d          -1.451   2.709   3.677  0.00  0.00    -0.082 A 
ATOM      2  C2  <0> d          -2.344   1.940   2.953  0.00  0.00    -0.082 A 
ATOM      3  C3  <0> d          -1.954   1.379   1.754  0.00  0.00    -0.075 A 
ATOM      4  C4  <0> d          -0.670   1.583   1.272  0.00  0.00    -0.027 A 
ATOM      5  C5  <0> d           0.220   2.350   1.994  0.00  0.00    -0.043 A 
ATOM      6  C6  <0> d          -0.173   2.913   3.198  0.00  0.00    -0.076 A 
ATOM      7  C7  <0> d           1.541   2.424   1.267  0.00  0.00     0.016 A 
ATOM      8  C8  <0> d           1.400   1.619  -0.003  0.00  0.00     0.153 A 
ATOM      9  O1  <0> d           2.242   1.439  -0.850  0.00  0.00    -0.296 OA
ATOM     10  C9  <0> d          -0.013   1.086   0.008  0.00  0.00     0.114 A 
ATOM     11  H1  <0> d          -0.015   0.086   0.003  0.00  0.00     0.082 H 
ATOM     12  C10 <0> d          -0.744   1.583  -1.169  0.00  0.00     0.076 C 
ATOM     13  N1  <0> d          -1.308   1.966  -2.077  0.00  0.00    -0.196 NA
ATOM     14  H2  <0> d          -1.754   3.150   4.615  0.00  0.00     0.083 H 
ATOM     15  H3  <0> d          -3.345   1.780   3.326  0.00  0.00     0.083 H 
ATOM     16  H4  <0> d          -2.652   0.778   1.189  0.00  0.00     0.084 H 
ATOM     17  H5  <0> d           0.524   3.514   3.764  0.00  0.00     0.084 H 
ATOM     18  H6  <0> d           2.262   2.047   1.848  0.00  0.00     0.051 H 
ATOM     19  H7  <0> d           1.773   3.461   1.025  0.00  0.00     0.051 H 
ENDROOT
TORSDOF 0
