REMARK  4 active torsions:
REMARK  status: ('A' for Active; 'I' for Inactive)
REMARK    1  A    between atoms: C1_1  and  C2_2 
REMARK    2  A    between atoms: C2_2  and  O1_3 
REMARK    3  A    between atoms: O1_3  and  C3_4 
REMARK    4  A    between atoms: C3_4  and  C4_6 
ROOT
ATOM      1  C4  <0> d           1.262   3.192   0.017  0.00  0.00     0.046 C 
ATOM      2  H1  <0> d           1.541   3.518   1.019  0.00  0.00     0.061 H 
ATOM      3  C5  <0> d          -0.061   3.850  -0.381  0.00  0.00    -0.050 C 
ATOM      4  C6  <0> d          -1.185   3.221   0.453  0.00  0.00    -0.061 C 
ATOM      5  C7  <0> d          -1.347   1.761   0.018  0.00  0.00    -0.050 C 
ATOM      6  C8  <0> d          -0.013   1.076   0.008  0.00  0.00    -0.106 C 
ATOM      7  C9  <0> d           1.122   1.698   0.001  0.00  0.00    -0.093 C 
ATOM      8  H7  <0> d          -0.013   4.920  -0.182  0.00  0.00     0.034 H 
ATOM      9  H8  <0> d          -0.252   3.679  -1.440  0.00  0.00     0.034 H 
ATOM     10  H9  <0> d          -0.925   3.266   1.511  0.00  0.00     0.033 H 
ATOM     11  H10 <0> d          -2.116   3.760   0.278  0.00  0.00     0.033 H 
ATOM     12  H11 <0> d          -1.780   1.725  -0.982  0.00  0.00     0.038 H 
ATOM     13  H12 <0> d          -2.011   1.250   0.716  0.00  0.00     0.038 H 
ATOM     14  H13 <0> d           0.002  -0.004   0.002  0.00  0.00     0.076 H 
ATOM     15  H14 <0> d           2.025   1.105  -0.019  0.00  0.00     0.077 H 
ENDROOT
BRANCH   1  16
ATOM     16  C3  <0> d           2.337   3.604  -0.956  0.00  0.00     0.266 C 
ATOM     17  O2  <0> d           2.068   4.337  -1.879  0.00  0.00    -0.265 OA
BRANCH  16  18
ATOM     18  O1  <0> d           3.592   3.158  -0.798  0.00  0.00    -0.321 OA
BRANCH  18  19
ATOM     19  C2  <0> d           4.576   3.595  -1.772  0.00  0.00     0.025 C 
ATOM     20  H5  <0> d           4.272   3.268  -2.767  0.00  0.00     0.074 H 
ATOM     21  H6  <0> d           4.647   4.683  -1.754  0.00  0.00     0.074 H 
BRANCH  19  22
ATOM     22  C1  <0> d           5.938   2.989  -1.430  0.00  0.00    -0.056 C 
ATOM     23  H2  <0> d           6.242   3.316  -0.436  0.00  0.00     0.030 H 
ATOM     24  H3  <0> d           5.867   1.901  -1.449  0.00  0.00     0.030 H 
ATOM     25  H4  <0> d           6.676   3.317  -2.162  0.00  0.00     0.030 H 
ENDBRANCH  19  22
ENDBRANCH  18  19
ENDBRANCH  16  18
ENDBRANCH   1  16
TORSDOF 4
