REMARK  0 active torsions:
REMARK  status: ('A' for Active; 'I' for Inactive)
ROOT
ATOM      1  C1  <0> d          -0.761   1.597  -1.225  0.00  0.00    -0.049 C 
ATOM      2  C2  <0> d          -0.013   1.086   0.008  0.00  0.00    -0.047 C 
ATOM      3  C3  <0> d          -0.739   1.585   1.264  0.00  0.00     0.033 C 
ATOM      4  H1  <0> d          -0.295   1.130   2.149  0.00  0.00     0.063 H 
ATOM      5  C4  <0> d          -0.595   3.106   1.335  0.00  0.00    -0.035 C 
ATOM      6  C5  <0> d          -0.952   3.725   0.015  0.00  0.00    -0.105 C 
ATOM      7  C6  <0> d          -1.020   3.070  -1.099  0.00  0.00    -0.106 C 
ATOM      8  C7  <0> d          -2.166   1.231   1.183  0.00  0.00     0.064 C 
ATOM      9  N1  <0> d          -3.267   0.958   1.121  0.00  0.00    -0.197 NA
ATOM     10  H2  <0> d          -0.160   1.411  -2.115  0.00  0.00     0.038 H 
ATOM     11  H3  <0> d          -1.712   1.071  -1.314  0.00  0.00     0.038 H 
ATOM     12  H4  <0> d           0.002  -0.004   0.002  0.00  0.00     0.035 H 
ATOM     13  H5  <0> d           1.009   1.466   0.000  0.00  0.00     0.035 H 
ATOM     14  H6  <0> d           0.436   3.356   1.584  0.00  0.00     0.040 H 
ATOM     15  H7  <0> d          -1.258   3.495   2.108  0.00  0.00     0.040 H 
ATOM     16  H8  <0> d          -1.166   4.784  -0.006  0.00  0.00     0.076 H 
ATOM     17  H9  <0> d          -1.280   3.617  -1.993  0.00  0.00     0.076 H 
ENDROOT
TORSDOF 0
