REMARK  2 active torsions:
REMARK  status: ('A' for Active; 'I' for Inactive)
REMARK    1  A    between atoms: C1_1  and  C2_2 
REMARK       I    between atoms: C2_2  and  N1_4 
REMARK    2  A    between atoms: N1_4  and  C3_5 
ROOT
ATOM      1  C3  <0> d          -1.220   1.774   0.019  0.00  0.00     0.132 A 
ATOM      2  C4  <0> d          -0.013   1.076   0.011  0.00  0.00    -0.022 A 
ATOM      3  C5  <0> d           1.164   1.800   0.005  0.00  0.00     0.007 A 
ATOM      4  N2  <0> d           1.108   3.124   0.013  0.00  0.00    -0.254 NA
ATOM      5  C6  <0> d          -0.049   3.754   0.026  0.00  0.00     0.088 A 
ATOM      6  N3  <0> d          -1.194   3.103   0.033  0.00  0.00    -0.224 NA
ATOM      7  H5  <0> d           0.002  -0.004   0.005  0.00  0.00     0.091 H 
ATOM      8  H6  <0> d           2.118   1.293  -0.006  0.00  0.00     0.115 H 
ATOM      9  H7  <0> d          -0.058   4.834   0.032  0.00  0.00     0.146 H 
ENDROOT
BRANCH   1  10
ATOM     10  N1  <0> d          -2.431   1.091   0.019  0.00  0.00    -0.312 N 
ATOM     11  C2  <0> d          -3.589   1.773   0.130  0.00  0.00     0.219 C 
ATOM     12  O1  <0> d          -3.581   2.985   0.137  0.00  0.00    -0.274 OA
ATOM     13  H4  <0> d          -2.443   0.125  -0.061  0.00  0.00     0.170 HD
BRANCH  11  14
ATOM     14  C1  <0> d          -4.894   1.027   0.245  0.00  0.00    -0.002 C 
ATOM     15  H1  <0> d          -4.703  -0.046   0.220  0.00  0.00     0.040 H 
ATOM     16  H2  <0> d          -5.380   1.288   1.185  0.00  0.00     0.040 H 
ATOM     17  H3  <0> d          -5.543   1.300  -0.588  0.00  0.00     0.040 H 
ENDBRANCH  11  14
ENDBRANCH   1  10
TORSDOF 2
