REMARK  0 active torsions:
REMARK  status: ('A' for Active; 'I' for Inactive)
ROOT
ATOM      1  C1  <0> d           3.677  -0.315  -0.035  0.00  0.00     0.046 A 
ATOM      2  C2  <0> d           2.377   0.040  -0.021  0.00  0.00     0.086 A 
ATOM      3  C3  <0> d           2.357   1.506  -0.012  0.00  0.00     0.086 A 
ATOM      4  C4  <0> d           3.647   1.897  -0.022  0.00  0.00     0.046 A 
ATOM      5  O1  <0> d           4.426   0.801  -0.036  0.00  0.00    -0.330 OA
ATOM      6  N1  <0> d           1.136   2.184   0.003  0.00  0.00    -0.315 N 
ATOM      7  H1  <0> d           1.117   3.184   0.008  0.00  0.00     0.169 HD
ATOM      8  C5  <0> d          -0.018   1.486   0.010  0.00  0.00     0.314 A 
ATOM      9  O2  <0> d          -1.080   2.075   0.018  0.00  0.00    -0.262 OA
ATOM     10  C6  <0> d           0.002  -0.004   0.002  0.00  0.00     0.314 A 
ATOM     11  O3  <0> d          -1.043  -0.622   0.009  0.00  0.00    -0.262 OA
ATOM     12  N2  <0> d           1.175  -0.670  -0.013  0.00  0.00    -0.315 N 
ATOM     13  H2  <0> d           1.183  -1.670  -0.019  0.00  0.00     0.169 HD
ATOM     14  H3  <0> d           4.054  -1.327  -0.045  0.00  0.00     0.127 H 
ATOM     15  H4  <0> d           3.996   2.919  -0.020  0.00  0.00     0.127 H 
ENDROOT
TORSDOF 0
