REMARK  7 active torsions:
REMARK  status: ('A' for Active; 'I' for Inactive)
REMARK    1  A    between atoms: C1_1  and  C2_2 
REMARK    2  A    between atoms: C2_2  and  C3_3 
REMARK    3  A    between atoms: C3_3  and  C4_4 
REMARK    4  A    between atoms: C4_4  and  C5_6 
REMARK    5  A    between atoms: C4_4  and  C6_7 
REMARK    6  A    between atoms: C6_7  and  C7_8 
REMARK    7  A    between atoms: C7_8  and  C8_9 
ROOT
ATOM      1  C4  <0> d           1.472  -2.024  -0.023  0.00  0.00    -0.057 C 
ATOM      2  H1  <0> d           0.880  -2.391  -0.861  0.00  0.00     0.039 H 
ENDROOT
BRANCH   1   3
ATOM      3  C3  <0> d           2.915  -2.514  -0.165  0.00  0.00    -0.062 C 
ATOM      4  H7  <0> d           3.364  -2.068  -1.052  0.00  0.00     0.033 H 
ATOM      5  H8  <0> d           3.486  -2.223   0.717  0.00  0.00     0.033 H 
BRANCH   3   6
ATOM      6  C2  <0> d           2.925  -4.038  -0.299  0.00  0.00    -0.068 C 
ATOM      7  H5  <0> d           2.476  -4.484   0.589  0.00  0.00     0.032 H 
ATOM      8  H6  <0> d           2.354  -4.329  -1.180  0.00  0.00     0.032 H 
BRANCH   6   9
ATOM      9  C1  <0> d           4.367  -4.528  -0.441  0.00  0.00    -0.077 C 
ATOM     10  H2  <0> d           4.375  -5.614  -0.536  0.00  0.00     0.027 H 
ATOM     11  H3  <0> d           4.817  -4.082  -1.328  0.00  0.00     0.027 H 
ATOM     12  H4  <0> d           4.939  -4.237   0.441  0.00  0.00     0.027 H 
ENDBRANCH   6   9
ENDBRANCH   3   6
ENDBRANCH   1   3
BRANCH   1  13
ATOM     13  C5  <0> d           0.882  -2.550   1.287  0.00  0.00    -0.073 C 
ATOM     14  H9  <0> d          -0.146  -2.201   1.389  0.00  0.00     0.028 H 
ATOM     15  H10 <0> d           0.897  -3.639   1.281  0.00  0.00     0.028 H 
ATOM     16  H11 <0> d           1.474  -2.183   2.126  0.00  0.00     0.028 H 
ENDBRANCH   1  13
BRANCH   1  17
ATOM     17  C6  <0> d           1.451  -0.494  -0.015  0.00  0.00    -0.053 C 
ATOM     18  H12 <0> d           1.952  -0.119  -0.907  0.00  0.00     0.034 H 
ATOM     19  H13 <0> d           1.969  -0.129   0.873  0.00  0.00     0.034 H 
BRANCH  17  20
ATOM     20  C7  <0> d           0.002  -0.004   0.002  0.00  0.00     0.016 C 
ATOM     21  H14 <0> d          -0.498  -0.379   0.895  0.00  0.00     0.049 H 
ATOM     22  H15 <0> d          -0.515  -0.370  -0.885  0.00  0.00     0.049 H 
BRANCH  20  23
ATOM     23  C8  <0> d          -0.018   1.503   0.010  0.00  0.00     0.172 C 
ATOM     24  O1  <0> d           1.020   2.121   0.004  0.00  0.00    -0.648 OA
ATOM     25  O2  <0> d          -1.190   2.158   0.019  0.00  0.00    -0.648 OA
ENDBRANCH  20  23
ENDBRANCH  17  20
ENDBRANCH   1  17
TORSDOF 7
