REMARK  3 active torsions:
REMARK  status: ('A' for Active; 'I' for Inactive)
REMARK    1  A    between atoms: C1_1  and  C2_2 
REMARK    2  A    between atoms: C5_5  and  S1_8 
REMARK    3  A    between atoms: S1_8  and  O2_10 
ROOT
ATOM      1  C2  <0> d          -0.718   1.572   1.248  0.00  0.00    -0.062 A 
ATOM      2  C3  <0> d          -2.083   1.789   1.226  0.00  0.00    -0.076 A 
ATOM      3  C4  <0> d          -2.731   2.231   2.365  0.00  0.00    -0.062 A 
ATOM      4  C5  <0> d          -2.012   2.464   3.522  0.00  0.00     0.059 A 
ATOM      5  C6  <0> d          -0.646   2.251   3.543  0.00  0.00    -0.062 A 
ATOM      6  C7  <0> d           0.001   1.806   2.405  0.00  0.00    -0.076 A 
ATOM      7  H4  <0> d          -2.644   1.611   0.321  0.00  0.00     0.084 H 
ATOM      8  H5  <0> d          -3.798   2.398   2.349  0.00  0.00     0.085 H 
ATOM      9  H6  <0> d          -0.085   2.433   4.447  0.00  0.00     0.085 H 
ATOM     10  H7  <0> d           1.068   1.640   2.421  0.00  0.00     0.084 H 
ENDROOT
BRANCH   1  11
ATOM     11  C1  <0> d          -0.013   1.086   0.008  0.00  0.00    -0.051 C 
ATOM     12  H1  <0> d          -0.744   0.958  -0.804  0.00  0.00     0.033 H 
ATOM     13  H2  <0> d           0.475   0.122   0.217  0.00  0.00     0.033 H 
ATOM     14  H3  <0> d           0.746   1.822  -0.295  0.00  0.00     0.033 H 
ENDBRANCH   1  11
BRANCH   4  15
ATOM     15  S1  <0> d          -2.837   3.031   4.972  0.00  0.00     0.187 S 
ATOM     16  O1  <0> d          -1.927   2.737   6.023  0.00  0.00    -0.223 OA
BRANCH  15  17
ATOM     17  O2  <0> d          -2.786   4.548   4.855  0.00  0.00    -0.302 OA
ATOM     18  H8  <0> d          -3.235   5.176   5.639  0.00  0.00     0.230 HD
ENDBRANCH  15  17
ENDBRANCH   4  15
TORSDOF 3
