REMARK  2 active torsions:
REMARK  status: ('A' for Active; 'I' for Inactive)
REMARK    1  A    between atoms: C1_1  and  C2_2 
REMARK    2  A    between atoms: C4_4  and  C10_12 
ROOT
ATOM      1  C2  <0> d           0.704  -2.678  -0.019  0.00  0.00    -0.059 A 
ATOM      2  C3  <0> d          -0.634  -2.308  -0.004  0.00  0.00    -0.071 A 
ATOM      3  C4  <0> d          -0.989  -0.988   0.007  0.00  0.00    -0.049 A 
ATOM      4  C5  <0> d           0.002  -0.004   0.002  0.00  0.00    -0.002 A 
ATOM      5  C6  <0> d          -0.018   1.461   0.010  0.00  0.00    -0.056 A 
ATOM      6  C7  <0> d           1.260   1.871   0.000  0.00  0.00    -0.022 A 
ATOM      7  N1  <0> d           2.097   0.788  -0.014  0.00  0.00    -0.365 N 
ATOM      8  H1  <0> d           3.066   0.833  -0.023  0.00  0.00     0.165 HD
ATOM      9  C8  <0> d           1.359  -0.374  -0.013  0.00  0.00     0.043 A 
ATOM     10  C9  <0> d           1.697  -1.724  -0.023  0.00  0.00    -0.051 A 
ATOM     11  H5  <0> d          -1.401  -3.068  -0.001  0.00  0.00     0.085 H 
ATOM     12  H6  <0> d          -0.895   2.091   0.018  0.00  0.00     0.087 H 
ATOM     13  H7  <0> d           1.581   2.902   0.002  0.00  0.00     0.111 H 
ATOM     14  H8  <0> d           2.735  -2.022  -0.035  0.00  0.00     0.087 H 
ENDROOT
BRANCH   1  15
ATOM     15  C1  <0> d           1.073  -4.139  -0.030  0.00  0.00    -0.051 C 
ATOM     16  H2  <0> d           1.171  -4.497   0.995  0.00  0.00     0.033 H 
ATOM     17  H3  <0> d           0.294  -4.707  -0.539  0.00  0.00     0.033 H 
ATOM     18  H4  <0> d           2.020  -4.271  -0.553  0.00  0.00     0.033 H 
ENDBRANCH   1  15
BRANCH   3  19
ATOM     19  C10 <0> d          -2.444  -0.596   0.023  0.00  0.00    -0.050 C 
ATOM     20  H9  <0> d          -2.805  -0.496  -1.001  0.00  0.00     0.033 H 
ATOM     21  H10 <0> d          -3.021  -1.364   0.538  0.00  0.00     0.033 H 
ATOM     22  H11 <0> d          -2.558   0.355   0.543  0.00  0.00     0.033 H 
ENDBRANCH   3  19
TORSDOF 2
