REMARK  2 active torsions:
REMARK  status: ('A' for Active; 'I' for Inactive)
REMARK    1  A    between atoms: C2_2  and  C4_8 
REMARK    2  A    between atoms: C3_6  and  N3_7 
ROOT
ATOM      1  C1  <0> d          -1.016   3.213   1.555  0.00  0.00    -0.005 A 
ATOM      2  C2  <0> d          -0.722   1.881   1.250  0.00  0.00     0.164 A 
ATOM      3  N1  <0> d          -1.160   1.129   2.227  0.00  0.00    -0.169 NA
ATOM      4  N2  <0> d          -1.754   1.955   3.189  0.00  0.00    -0.263 N 
ATOM      5  H1  <0> d          -2.188   1.516   4.099  0.00  0.00     0.190 HD
ATOM      6  C3  <0> d          -1.659   3.233   2.756  0.00  0.00     0.117 A 
ATOM      7  H2  <0> d          -0.778   4.072   0.947  0.00  0.00     0.093 H 
ENDROOT
BRANCH   2   8
ATOM      8  C4  <0> d          -0.017   1.395   0.010  0.00  0.00     0.436 C 
ATOM      9  F1  <0> d           0.002  -0.004   0.002  0.00  0.00    -0.165 F 
ATOM     10  F2  <0> d           1.296   1.879  -0.000  0.00  0.00    -0.165 F 
ATOM     11  F3  <0> d          -0.694   1.858  -1.124  0.00  0.00    -0.165 F 
ENDBRANCH   2   8
BRANCH   6  12
ATOM     12  N3  <0> d          -2.127   4.364   3.419  0.00  0.00    -0.384 N 
ATOM     13  H3  <0> d          -2.635   4.261   4.389  0.00  0.00     0.157 HD
ATOM     14  H4  <0> d          -1.989   5.359   2.973  0.00  0.00     0.157 HD
ENDBRANCH   6  12
TORSDOF 2
