REMARK  3 active torsions:
REMARK  status: ('A' for Active; 'I' for Inactive)
REMARK    1  A    between atoms: C1_1  and  C2_2 
REMARK    2  A    between atoms: C2_2  and  O1_3 
REMARK    3  A    between atoms: O1_3  and  C3_4 
ROOT
ATOM      1  C3  <0> d          -0.526   3.927   0.929  0.00  0.00     0.134 C 
ATOM      2  N1  <0> d          -0.200   2.907   1.621  0.00  0.00    -0.271 NA
ATOM      3  C4  <0> d          -0.717   1.573   1.276  0.00  0.00     0.017 C 
ATOM      4  C5  <0> d          -0.013   1.086   0.008  0.00  0.00    -0.048 C 
ATOM      5  C6  <0> d          -0.736   1.583  -1.233  0.00  0.00    -0.063 C 
ATOM      6  C7  <0> d          -0.680   3.094  -1.393  0.00  0.00    -0.058 C 
ATOM      7  C8  <0> d          -1.447   3.783  -0.263  0.00  0.00    -0.004 C 
ATOM      8  H6  <0> d          -1.790   1.631   1.098  0.00  0.00     0.067 H 
ATOM      9  H7  <0> d          -0.516   0.881   2.094  0.00  0.00     0.067 H 
ATOM     10  H8  <0> d           0.002  -0.004   0.002  0.00  0.00     0.035 H 
ATOM     11  H9  <0> d           1.012   1.459   0.000  0.00  0.00     0.035 H 
ATOM     12  H10 <0> d          -0.284   1.121  -2.110  0.00  0.00     0.033 H 
ATOM     13  H11 <0> d          -1.780   1.278  -1.175  0.00  0.00     0.033 H 
ATOM     14  H12 <0> d           0.360   3.419  -1.373  0.00  0.00     0.033 H 
ATOM     15  H13 <0> d          -1.124   3.370  -2.349  0.00  0.00     0.033 H 
ATOM     16  H14 <0> d          -1.776   4.769  -0.592  0.00  0.00     0.045 H 
ATOM     17  H15 <0> d          -2.314   3.181   0.012  0.00  0.00     0.045 H 
ENDROOT
BRANCH   1  18
ATOM     18  O1  <0> d          -0.046   5.144   1.261  0.00  0.00    -0.338 OA
BRANCH  18  19
ATOM     19  C2  <0> d           0.819   5.211   2.397  0.00  0.00     0.024 C 
ATOM     20  H4  <0> d           0.288   4.855   3.279  0.00  0.00     0.074 H 
ATOM     21  H5  <0> d           1.696   4.588   2.223  0.00  0.00     0.074 H 
BRANCH  19  22
ATOM     22  C1  <0> d           1.259   6.660   2.616  0.00  0.00    -0.056 C 
ATOM     23  H1  <0> d           1.790   7.017   1.734  0.00  0.00     0.030 H 
ATOM     24  H2  <0> d           0.383   7.284   2.790  0.00  0.00     0.030 H 
ATOM     25  H3  <0> d           1.919   6.712   3.482  0.00  0.00     0.030 H 
ENDBRANCH  19  22
ENDBRANCH  18  19
ENDBRANCH   1  18
TORSDOF 3
