REMARK  3 active torsions:
REMARK  status: ('A' for Active; 'I' for Inactive)
REMARK    1  A    between atoms: C1_1  and  C2_2 
REMARK    2  A    between atoms: C2_2  and  C3_3 
REMARK    3  A    between atoms: C2_2  and  C4_4 
ROOT
ATOM      1  C4  <0> d           0.731  -0.503   1.223  0.00  0.00    -0.073 A 
ATOM      2  C5  <0> d           0.237  -1.286   2.174  0.00  0.00    -0.080 A 
ATOM      3  C6  <0> d           1.249  -1.556   3.198  0.00  0.00    -0.086 A 
ATOM      4  C7  <0> d           2.390  -0.946   2.901  0.00  0.00    -0.099 A 
ATOM      5  C8  <0> d           2.168  -0.214   1.596  0.00  0.00    -0.029 A 
ATOM      6  H8  <0> d          -0.772  -1.671   2.191  0.00  0.00     0.083 H 
ATOM      7  H9  <0> d           1.089  -2.167   4.074  0.00  0.00     0.083 H 
ATOM      8  H10 <0> d           3.303  -0.971   3.478  0.00  0.00     0.077 H 
ATOM      9  H11 <0> d           2.842  -0.592   0.828  0.00  0.00     0.045 H 
ATOM     10  H12 <0> d           2.314   0.857   1.736  0.00  0.00     0.045 H 
ENDROOT
BRANCH   1  11
ATOM     11  C2  <0> d           0.002  -0.004   0.002  0.00  0.00    -0.039 C 
ATOM     12  H4  <0> d          -1.020  -0.381   0.010  0.00  0.00     0.045 H 
BRANCH  11  13
ATOM     13  C1  <0> d          -0.019   1.526   0.010  0.00  0.00    -0.070 C 
ATOM     14  H1  <0> d           1.004   1.903   0.003  0.00  0.00     0.028 H 
ATOM     15  H2  <0> d          -0.546   1.887  -0.873  0.00  0.00     0.028 H 
ATOM     16  H3  <0> d          -0.529   1.877   0.907  0.00  0.00     0.028 H 
ENDBRANCH  11  13
BRANCH  11  17
ATOM     17  C3  <0> d           0.718  -0.497  -1.257  0.00  0.00    -0.070 C 
ATOM     18  H5  <0> d           1.741  -0.120  -1.264  0.00  0.00     0.028 H 
ATOM     19  H6  <0> d           0.733  -1.587  -1.263  0.00  0.00     0.028 H 
ATOM     20  H7  <0> d           0.191  -0.136  -2.140  0.00  0.00     0.028 H 
ENDBRANCH  11  17
ENDBRANCH   1  11
TORSDOF 3
