REMARK  2 active torsions:
REMARK  status: ('A' for Active; 'I' for Inactive)
REMARK    1  A    between atoms: C1_1  and  S1_2 
REMARK    2  A    between atoms: S1_2  and  C2_3 
ROOT
ATOM      1  C2  <0> d          -0.741   3.411   1.254  0.00  0.00     0.157 A 
ATOM      2  N1  <0> d          -0.175   4.078   0.252  0.00  0.00    -0.176 NA
ATOM      3  C3  <0> d          -0.203   5.389   0.267  0.00  0.00     0.376 A 
ATOM      4  O1  <0> d           0.303   6.033  -0.639  0.00  0.00    -0.242 OA
ATOM      5  N2  <0> d          -0.798   6.014   1.309  0.00  0.00    -0.151 NA
ATOM      6  S2  <0> d          -1.325   4.694   2.264  0.00  0.00     0.044 SA
ENDROOT
BRANCH   1   7
ATOM      7  S1  <0> d          -0.860   1.669   1.497  0.00  0.00    -0.106 SA
BRANCH   7   8
ATOM      8  C1  <0> d          -0.013   1.086   0.008  0.00  0.00    -0.028 C 
ATOM      9  H1  <0> d           0.002  -0.014   0.002  0.00  0.00     0.042 H 
ATOM     10  H2  <0> d           1.019   1.467   0.000  0.00  0.00     0.042 H 
ATOM     11  H3  <0> d          -0.545   1.450  -0.883  0.00  0.00     0.042 H 
ENDBRANCH   7   8
ENDBRANCH   1   7
TORSDOF 2
