REMARK  2 active torsions:
REMARK  status: ('A' for Active; 'I' for Inactive)
REMARK    1  A    between atoms: C1_1  and  C2_2 
REMARK    2  A    between atoms: C2_2  and  C3_4 
ROOT
ATOM      1  C3  <0> d           2.404   0.009  -0.020  0.00  0.00     0.013 A 
ATOM      2  C4  <0> d           1.197  -0.702  -0.013  0.00  0.00    -0.052 A 
ATOM      3  C5  <0> d           0.002  -0.004   0.002  0.00  0.00     0.004 A 
ATOM      4  N1  <0> d          -0.016   1.311   0.009  0.00  0.00    -0.250 NA
ATOM      5  C6  <0> d           1.100   2.030   0.003  0.00  0.00     0.137 A 
ATOM      6  C7  <0> d           2.347   1.407  -0.013  0.00  0.00    -0.031 A 
ATOM      7  C8  <0> d           1.022   3.460   0.010  0.00  0.00     0.119 C 
ATOM      8  N2  <0> d           0.960   4.594   0.017  0.00  0.00    -0.190 NA
ATOM      9  H4  <0> d           1.199  -1.782  -0.018  0.00  0.00     0.087 H 
ATOM     10  H5  <0> d          -0.931  -0.548   0.008  0.00  0.00     0.114 H 
ATOM     11  H6  <0> d           3.254   1.994  -0.018  0.00  0.00     0.089 H 
ENDROOT
BRANCH   1  12
ATOM     12  C2  <0> d           3.699  -0.697  -0.036  0.00  0.00     0.155 C 
ATOM     13  O1  <0> d           4.730  -0.067  -0.042  0.00  0.00    -0.293 OA
BRANCH  12  14
ATOM     14  C1  <0> d           3.737  -2.203  -0.043  0.00  0.00    -0.017 C 
ATOM     15  H1  <0> d           2.802  -2.560  -0.036  0.00  0.00     0.038 H 
ATOM     16  H2  <0> d           4.251  -2.550  -0.939  0.00  0.00     0.038 H 
ATOM     17  H3  <0> d           4.267  -2.558   0.841  0.00  0.00     0.038 H 
ENDBRANCH  12  14
ENDBRANCH   1  12
TORSDOF 2
