REMARK  1 active torsions:
REMARK  status: ('A' for Active; 'I' for Inactive)
REMARK    1  A    between atoms: C4_4  and  C7_7 
ROOT
ATOM      1  C7  <0> d          -0.019   1.526   0.010  0.00  0.00     0.076 A 
ATOM      2  C8  <0> d           1.317   0.779  -0.006  0.00  0.00    -0.040 A 
ATOM      3  C9  <0> d           0.002  -0.004   0.002  0.00  0.00    -0.040 A 
ATOM      4  C10 <0> d          -0.432   2.207  -1.227  0.00  0.00     0.074 C 
ATOM      5  N1  <0> d          -0.751   2.732  -2.183  0.00  0.00    -0.196 NA
ATOM      6  H6  <0> d           1.889   0.792  -0.934  0.00  0.00     0.036 H 
ATOM      7  H7  <0> d           1.906   0.782   0.910  0.00  0.00     0.036 H 
ATOM      8  H8  <0> d          -0.273  -0.516   0.924  0.00  0.00     0.036 H 
ATOM      9  H9  <0> d          -0.290  -0.506  -0.920  0.00  0.00     0.036 H 
ENDROOT
BRANCH   1  10
ATOM     10  C4  <0> d          -0.418   2.209   1.293  0.00  0.00    -0.035 A 
ATOM     11  C3  <0> d          -0.454   3.590   1.358  0.00  0.00    -0.075 A 
ATOM     12  C2  <0> d          -0.820   4.216   2.534  0.00  0.00    -0.082 A 
ATOM     13  H3  <0> d          -0.196   4.178   0.490  0.00  0.00     0.084 H 
ATOM     14  C1  <0> d          -1.150   3.463   3.646  0.00  0.00    -0.083 A 
ATOM     15  H2  <0> d          -0.849   5.295   2.586  0.00  0.00     0.083 H 
ATOM     16  C6  <0> d          -1.113   2.083   3.580  0.00  0.00    -0.082 A 
ATOM     17  H1  <0> d          -1.435   3.953   4.565  0.00  0.00     0.083 H 
ATOM     18  C5  <0> d          -0.753   1.456   2.402  0.00  0.00    -0.075 A 
ATOM     19  H5  <0> d          -1.371   1.494   4.449  0.00  0.00     0.083 H 
ATOM     20  H4  <0> d          -0.729   0.377   2.350  0.00  0.00     0.084 H 
ENDBRANCH   1  10
TORSDOF 1
