REMARK  2 active torsions:
REMARK  status: ('A' for Active; 'I' for Inactive)
REMARK    1  A    between atoms: C1_1  and  C2_2 
REMARK    2  A    between atoms: N2_8  and  C6_11 
ROOT
ATOM      1  C2  <0> d          -1.500   3.327   2.601  0.00  0.00     0.022 A 
ATOM      2  C3  <0> d          -1.982   2.414   3.471  0.00  0.00    -0.007 A 
ATOM      3  N1  <0> d          -1.821   1.080   3.212  0.00  0.00    -0.318 N 
ATOM      4  H1  <0> d          -2.168   0.424   3.837  0.00  0.00     0.170 HD
ATOM      5  C4  <0> d          -1.188   0.670   2.098  0.00  0.00     0.328 A 
ATOM      6  O1  <0> d          -1.057  -0.520   1.887  0.00  0.00    -0.246 OA
ATOM      7  N2  <0> d          -0.698   1.558   1.213  0.00  0.00    -0.270 N 
ATOM      8  C5  <0> d          -0.831   2.882   1.435  0.00  0.00     0.258 A 
ATOM      9  O2  <0> d          -0.383   3.686   0.638  0.00  0.00    -0.267 OA
ATOM     10  H5  <0> d          -2.491   2.735   4.368  0.00  0.00     0.112 H 
ENDROOT
BRANCH   1  11
ATOM     11  C1  <0> d          -1.667   4.800   2.870  0.00  0.00    -0.045 C 
ATOM     12  H2  <0> d          -2.199   4.940   3.811  0.00  0.00     0.033 H 
ATOM     13  H3  <0> d          -0.686   5.271   2.933  0.00  0.00     0.033 H 
ATOM     14  H4  <0> d          -2.237   5.255   2.059  0.00  0.00     0.033 H 
ENDBRANCH   1  11
BRANCH   7  15
ATOM     15  C6  <0> d          -0.013   1.086   0.008  0.00  0.00    -0.007 C 
ATOM     16  H6  <0> d           0.002  -0.004   0.002  0.00  0.00     0.057 H 
ATOM     17  H7  <0> d           1.010   1.463   0.000  0.00  0.00     0.057 H 
ATOM     18  H8  <0> d          -0.540   1.447  -0.875  0.00  0.00     0.057 H 
ENDBRANCH   7  15
TORSDOF 2
