REMARK  2 active torsions:
REMARK  status: ('A' for Active; 'I' for Inactive)
REMARK    1  A    between atoms: C1_1  and  O1_2 
REMARK    2  A    between atoms: O1_2  and  C2_3 
ROOT
ATOM      1  C2  <0> d           1.240  -2.093  -0.021  0.00  0.00     0.096 A 
ATOM      2  C3  <0> d           0.034  -2.739  -0.012  0.00  0.00     0.035 A 
ATOM      3  N1  <0> d          -1.113  -2.076   0.003  0.00  0.00    -0.269 NA
ATOM      4  C4  <0> d          -1.178  -0.765   0.010  0.00  0.00     0.013 A 
ATOM      5  C5  <0> d           0.002  -0.004   0.002  0.00  0.00    -0.006 A 
ATOM      6  C6  <0> d           1.248  -0.682  -0.013  0.00  0.00     0.010 A 
ATOM      7  C7  <0> d           2.438   0.058  -0.021  0.00  0.00    -0.069 A 
ATOM      8  C8  <0> d           2.382   1.419  -0.013  0.00  0.00    -0.082 A 
ATOM      9  C9  <0> d           1.159   2.087   0.002  0.00  0.00    -0.082 A 
ATOM     10  C10 <0> d          -0.017   1.400   0.010  0.00  0.00    -0.071 A 
ATOM     11  H4  <0> d           0.017  -3.819  -0.017  0.00  0.00     0.119 H 
ATOM     12  H5  <0> d          -2.139  -0.273   0.021  0.00  0.00     0.116 H 
ATOM     13  H6  <0> d           3.393  -0.447  -0.033  0.00  0.00     0.085 H 
ATOM     14  H7  <0> d           3.299   1.989  -0.019  0.00  0.00     0.083 H 
ATOM     15  H8  <0> d           1.143   3.166   0.008  0.00  0.00     0.083 H 
ATOM     16  H9  <0> d          -0.957   1.931   0.017  0.00  0.00     0.084 H 
ENDROOT
BRANCH   1  17
ATOM     17  O1  <0> d           2.403  -2.794  -0.036  0.00  0.00    -0.354 OA
BRANCH  17  18
ATOM     18  C1  <0> d           2.301  -4.219  -0.042  0.00  0.00     0.010 C 
ATOM     19  H1  <0> d           1.772  -4.550   0.852  0.00  0.00     0.066 H 
ATOM     20  H2  <0> d           1.754  -4.541  -0.928  0.00  0.00     0.066 H 
ATOM     21  H3  <0> d           3.300  -4.655  -0.054  0.00  0.00     0.066 H 
ENDBRANCH  17  18
ENDBRANCH   1  17
TORSDOF 2
