REMARK  3 active torsions:
REMARK  status: ('A' for Active; 'I' for Inactive)
REMARK    1  A    between atoms: C1_1  and  C2_2 
REMARK    2  A    between atoms: C4_6  and  C5_8 
REMARK    3  A    between atoms: C4_6  and  C6_9 
ROOT
ATOM      1  C2  <0> d          -0.019   1.526   0.010  0.00  0.00     0.059 C 
ATOM      2  H1  <0> d          -0.583   1.902   0.864  0.00  0.00     0.086 H 
ATOM      3  C3  <0> d           1.420   2.100  -0.000  0.00  0.00     0.047 C 
ATOM      4  O1  <0> d           1.251   3.393  -0.615  0.00  0.00    -0.353 OA
ATOM      5  C4  <0> d           0.029   3.353  -1.364  0.00  0.00     0.157 C 
ATOM      6  O2  <0> d          -0.551   2.044  -1.232  0.00  0.00    -0.349 OA
ATOM      7  H5  <0> d           1.801   2.203   1.016  0.00  0.00     0.078 H 
ATOM      8  H6  <0> d           2.081   1.471  -0.596  0.00  0.00     0.078 H 
ENDROOT
BRANCH   5   9
ATOM      9  C5  <0> d          -0.943   4.402  -0.820  0.00  0.00    -0.026 C 
ATOM     10  H7  <0> d          -0.506   5.395  -0.934  0.00  0.00     0.035 H 
ATOM     11  H8  <0> d          -1.880   4.351  -1.374  0.00  0.00     0.035 H 
ATOM     12  H9  <0> d          -1.134   4.209   0.235  0.00  0.00     0.035 H 
ENDBRANCH   5   9
BRANCH   5  13
ATOM     13  C6  <0> d           0.320   3.640  -2.838  0.00  0.00    -0.026 C 
ATOM     14  H10 <0> d           1.027   2.904  -3.219  0.00  0.00     0.035 H 
ATOM     15  H11 <0> d          -0.607   3.583  -3.409  0.00  0.00     0.035 H 
ATOM     16  H12 <0> d           0.746   4.639  -2.936  0.00  0.00     0.035 H 
ENDBRANCH   5  13
BRANCH   1  17
ATOM     17  C1  <0> d           0.002  -0.004   0.002  0.00  0.00    -0.050 C 
ATOM     18  H2  <0> d           0.529  -0.365   0.885  0.00  0.00     0.031 H 
ATOM     19  H3  <0> d          -1.020  -0.381   0.010  0.00  0.00     0.031 H 
ATOM     20  H4  <0> d           0.512  -0.356  -0.895  0.00  0.00     0.031 H 
ENDBRANCH   1  17
TORSDOF 3
