REMARK  1 active torsions:
REMARK  status: ('A' for Active; 'I' for Inactive)
REMARK    1  A    between atoms: C1_1  and  N5_8 
ROOT
ATOM      1  C1  <0> d          -0.016   1.324   0.009  0.00  0.00     0.757 A 
ATOM      2  N1  <0> d           1.126   2.003   0.002  0.00  0.00     0.049 NA
ATOM      3  N2  <0> d           2.251   1.372  -0.012  0.00  0.00    -0.084 NA
ATOM      4  C2  <0> d           2.268   0.045  -0.019  0.00  0.00     0.337 A 
ATOM      5  N3  <0> d           1.128  -0.633  -0.013  0.00  0.00    -0.084 NA
ATOM      6  N4  <0> d           0.002  -0.004   0.002  0.00  0.00     0.049 NA
ATOM      7  O1  <0> d           3.451  -0.617  -0.034  0.00  0.00    -0.144 OA
ENDROOT
BRANCH   1   8
ATOM      8  N5  <0> d          -1.226   2.002   0.030  0.00  0.00    -0.228 N 
ATOM      9  H1  <0> d          -2.060   1.506   0.040  0.00  0.00     0.174 HD
ATOM     10  H2  <0> d          -1.239   2.972   0.036  0.00  0.00     0.174 HD
ENDBRANCH   1   8
TORSDOF 1
