REMARK  2 active torsions:
REMARK  status: ('A' for Active; 'I' for Inactive)
REMARK    1  A    between atoms: C5_5  and  O1_8 
REMARK    2  A    between atoms: C6_6  and  N1_7 
ROOT
ATOM      1  C1  <0> d          -1.225   2.021   0.019  0.00  0.00    -0.018 A 
ATOM      2  C2  <0> d          -0.016   1.347   0.009  0.00  0.00     0.121 A 
ATOM      3  C3  <0> d           1.174   2.054   0.002  0.00  0.00    -0.005 A 
ATOM      4  C4  <0> d           1.159   3.439   0.009  0.00  0.00     0.154 A 
ATOM      5  C5  <0> d          -0.048   4.120   0.025  0.00  0.00     0.131 A 
ATOM      6  C6  <0> d          -1.245   3.409   0.032  0.00  0.00     0.065 A 
ATOM      7  F1  <0> d           2.322   4.126   0.002  0.00  0.00    -0.203 F 
ATOM      8  F2  <0> d           0.002  -0.004   0.002  0.00  0.00    -0.206 F 
ATOM      9  H1  <0> d          -2.152   1.468   0.020  0.00  0.00     0.091 H 
ATOM     10  H2  <0> d           2.115   1.525  -0.010  0.00  0.00     0.093 H 
ENDROOT
BRANCH   6  11
ATOM     11  N1  <0> d          -2.466   4.092   0.047  0.00  0.00    -0.397 N 
ATOM     12  H3  <0> d          -2.479   5.062   0.052  0.00  0.00     0.156 HD
ATOM     13  H4  <0> d          -3.300   3.596   0.052  0.00  0.00     0.156 HD
ENDBRANCH   6  11
BRANCH   5  14
ATOM     14  O1  <0> d          -0.063   5.481   0.033  0.00  0.00    -0.356 OA
ATOM     15  H5  <0> d          -0.076   5.879  -0.849  0.00  0.00     0.218 HD
ENDBRANCH   5  14
TORSDOF 2
