REMARK  5 active torsions:
REMARK  status: ('A' for Active; 'I' for Inactive)
REMARK    1  A    between atoms: C1_1  and  C2_2 
REMARK    2  A    between atoms: C2_2  and  C3_3 
REMARK    3  A    between atoms: C3_3  and  C4_5 
REMARK    4  A    between atoms: C4_5  and  O2_6 
REMARK    5  A    between atoms: O2_6  and  C5_7 
ROOT
ATOM      1  C3  <0> d          -1.412  -0.526   0.013  0.00  0.00     0.149 C 
ATOM      2  O1  <0> d          -2.340   0.246   0.026  0.00  0.00    -0.296 OA
ENDROOT
BRANCH   1   3
ATOM      3  C2  <0> d          -1.667  -2.011   0.007  0.00  0.00    -0.011 C 
ATOM      4  H4  <0> d          -1.267  -2.415  -0.815  0.00  0.00     0.043 H 
ATOM      5  H5  <0> d          -1.214  -2.461   0.890  0.00  0.00     0.043 H 
BRANCH   3   6
ATOM      6  C1  <0> d          -3.175  -2.269   0.020  0.00  0.00    -0.070 C 
ATOM      7  H1  <0> d          -3.628  -1.819  -0.863  0.00  0.00     0.028 H 
ATOM      8  H2  <0> d          -3.360  -3.344   0.016  0.00  0.00     0.028 H 
ATOM      9  H3  <0> d          -3.611  -1.829   0.917  0.00  0.00     0.028 H 
ENDBRANCH   3   6
ENDBRANCH   1   3
BRANCH   1  10
ATOM     10  C4  <0> d           0.002  -0.004   0.002  0.00  0.00     0.073 C 
ATOM     11  H6  <0> d           0.470  -0.327  -0.821  0.00  0.00     0.086 H 
ATOM     12  H7  <0> d           0.529  -0.365   0.885  0.00  0.00     0.086 H 
BRANCH  10  13
ATOM     13  O2  <0> d          -0.017   1.425   0.010  0.00  0.00    -0.389 OA
BRANCH  13  14
ATOM     14  C5  <0> d           1.280   2.024   0.001  0.00  0.00     0.004 C 
ATOM     15  H8  <0> d           1.834   1.705   0.884  0.00  0.00     0.066 H 
ATOM     16  H9  <0> d           1.817   1.714  -0.896  0.00  0.00     0.066 H 
ATOM     17  H10 <0> d           1.179   3.109   0.007  0.00  0.00     0.066 H 
ENDBRANCH  13  14
ENDBRANCH  10  13
ENDBRANCH   1  10
TORSDOF 5
