REMARK  5 active torsions:
REMARK  status: ('A' for Active; 'I' for Inactive)
REMARK    1  A    between atoms: C1_1  and  C2_2 
REMARK    2  A    between atoms: C2_2  and  C3_3 
REMARK    3  A    between atoms: C2_2  and  C4_4 
REMARK    4  A    between atoms: C4_4  and  C5_5 
REMARK    5  A    between atoms: C4_4  and  C6_6 
ROOT
ATOM      1  C2  <0> d           0.002  -0.004   0.002  0.00  0.00     0.050 C 
ATOM      2 Cl2  <0> d           0.846  -0.586  -1.481  0.00  0.00    -0.118 Cl
ENDROOT
BRANCH   1   3
ATOM      3  C1  <0> d          -0.019   1.526   0.010  0.00  0.00    -0.055 C 
ATOM      4  H1  <0> d           1.004   1.903   0.003  0.00  0.00     0.030 H 
ATOM      5  H2  <0> d          -0.546   1.887  -0.873  0.00  0.00     0.030 H 
ATOM      6  H3  <0> d          -0.529   1.877   0.907  0.00  0.00     0.030 H 
ENDBRANCH   1   3
BRANCH   1   7
ATOM      7  C3  <0> d           0.742  -0.511   1.242  0.00  0.00    -0.055 C 
ATOM      8  H4  <0> d           0.232  -0.159   2.138  0.00  0.00     0.030 H 
ATOM      9  H5  <0> d           0.757  -1.601   1.236  0.00  0.00     0.030 H 
ATOM     10  H6  <0> d           1.765  -0.134   1.234  0.00  0.00     0.030 H 
ENDBRANCH   1   7
BRANCH   1  11
ATOM     11  C4  <0> d          -1.433  -0.534   0.013  0.00  0.00     0.050 C 
ATOM     12 Cl1  <0> d          -2.277   0.048   1.496  0.00  0.00    -0.118 Cl
BRANCH  11  13
ATOM     13  C5  <0> d          -2.173  -0.027  -1.227  0.00  0.00    -0.055 C 
ATOM     14  H7  <0> d          -1.663  -0.378  -2.123  0.00  0.00     0.030 H 
ATOM     15  H8  <0> d          -3.196  -0.404  -1.219  0.00  0.00     0.030 H 
ATOM     16  H9  <0> d          -2.188   1.063  -1.221  0.00  0.00     0.030 H 
ENDBRANCH  11  13
BRANCH  11  17
ATOM     17  C6  <0> d          -1.413  -2.063   0.004  0.00  0.00    -0.055 C 
ATOM     18  H10 <0> d          -0.885  -2.425   0.887  0.00  0.00     0.030 H 
ATOM     19  H11 <0> d          -2.435  -2.441   0.012  0.00  0.00     0.030 H 
ATOM     20  H12 <0> d          -0.902  -2.415  -0.892  0.00  0.00     0.030 H 
ENDBRANCH  11  17
ENDBRANCH   1  11
TORSDOF 5
