REMARK  4 active torsions:
REMARK  status: ('A' for Active; 'I' for Inactive)
REMARK    1  A    between atoms: C1_1  and  C2_2 
REMARK    2  A    between atoms: C2_2  and  C3_3 
REMARK    3  A    between atoms: C3_3  and  C6_7 
REMARK    4  A    between atoms: C4_4  and  C5_5 
ROOT
ATOM      1  C3  <0> d           0.068   1.187   0.217  0.00  0.00    -0.078 C 
ATOM      2  C4  <0> d          -0.018  -0.073  -0.204  0.00  0.00    -0.008 C 
ATOM      3  H6  <0> d          -0.983  -0.550  -0.289  0.00  0.00     0.094 H 
ENDROOT
BRANCH   1   4
ATOM      4  C2  <0> d          -1.184   2.002   0.412  0.00  0.00    -0.048 C 
ATOM      5  H4  <0> d          -0.987   3.041   0.145  0.00  0.00     0.039 H 
ATOM      6  H5  <0> d          -1.978   1.608  -0.223  0.00  0.00     0.039 H 
BRANCH   4   7
ATOM      7  C1  <0> d          -1.619   1.927   1.877  0.00  0.00    -0.073 C 
ATOM      8  H1  <0> d          -1.816   0.889   2.145  0.00  0.00     0.028 H 
ATOM      9  H2  <0> d          -0.825   2.321   2.512  0.00  0.00     0.028 H 
ATOM     10  H3  <0> d          -2.524   2.517   2.018  0.00  0.00     0.028 H 
ENDBRANCH   4   7
ENDBRANCH   1   4
BRANCH   1  11
ATOM     11  C6  <0> d           1.417   1.799   0.492  0.00  0.00    -0.054 C 
ATOM     12  H7  <0> d           1.835   2.189  -0.436  0.00  0.00     0.033 H 
ATOM     13  H8  <0> d           1.307   2.612   1.210  0.00  0.00     0.033 H 
ATOM     14  H9  <0> d           2.084   1.040   0.901  0.00  0.00     0.033 H 
ENDBRANCH   1  11
BRANCH   2  15
ATOM     15  C5  <0> d           1.201  -0.815  -0.553  0.00  0.00     0.198 C 
ATOM     16  O1  <0> d           2.276  -0.247  -0.567  0.00  0.00    -0.644 OA
ATOM     17  O2  <0> d           1.128  -2.126  -0.858  0.00  0.00    -0.644 OA
ENDBRANCH   2  15
TORSDOF 4
