REMARK  2 active torsions:
REMARK  status: ('A' for Active; 'I' for Inactive)
REMARK    1  A    between atoms: C3_4  and  N4_8 
REMARK    2  A    between atoms: C4_5  and  N3_7 
ROOT
ATOM      1  C1  <0> d          -2.405   3.613   0.033  0.00  0.00     0.021 A 
ATOM      2  C2  <0> d          -3.591   2.910   0.035  0.00  0.00     0.021 A 
ATOM      3  N1  <0> d          -3.583   1.586   0.028  0.00  0.00    -0.239 NA
ATOM      4  C3  <0> d          -2.432   0.931   0.019  0.00  0.00     0.167 A 
ATOM      5  C4  <0> d          -1.226   1.645   0.017  0.00  0.00     0.167 A 
ATOM      6  N2  <0> d          -1.247   2.969   0.030  0.00  0.00    -0.239 NA
ATOM      7  H1  <0> d          -2.419   4.693   0.038  0.00  0.00     0.117 H 
ATOM      8  H2  <0> d          -4.531   3.442   0.042  0.00  0.00     0.117 H 
ENDROOT
BRANCH   4   9
ATOM      9  N4  <0> d          -2.420  -0.461   0.011  0.00  0.00    -0.381 N 
ATOM     10  H5  <0> d          -1.575  -0.939   0.004  0.00  0.00     0.157 HD
ATOM     11  H6  <0> d          -3.256  -0.953   0.012  0.00  0.00     0.157 HD
ENDBRANCH   4   9
BRANCH   5  12
ATOM     12  N3  <0> d          -0.011   0.966   0.007  0.00  0.00    -0.381 N 
ATOM     13  H3  <0> d           0.002  -0.004   0.002  0.00  0.00     0.157 HD
ATOM     14  H4  <0> d           0.822   1.462   0.002  0.00  0.00     0.157 HD
ENDBRANCH   5  12
TORSDOF 2
