REMARK  3 active torsions:
REMARK  status: ('A' for Active; 'I' for Inactive)
REMARK    1  A    between atoms: C1_1  and  C2_2 
REMARK    2  A    between atoms: C4_5  and  C6_8 
REMARK    3  A    between atoms: C6_8  and  C7_9 
ROOT
ATOM      1  C2  <0> d          -1.975   2.851   3.450  0.00  0.00     0.121 A 
ATOM      2  N1  <0> d          -0.673   2.655   3.489  0.00  0.00    -0.245 NA
ATOM      3  C3  <0> d          -0.019   2.228   2.420  0.00  0.00     0.012 A 
ATOM      4  C4  <0> d          -0.724   1.989   1.250  0.00  0.00    -0.013 A 
ATOM      5  C5  <0> d          -2.092   2.212   1.247  0.00  0.00     0.012 A 
ATOM      6  N2  <0> d          -2.678   2.634   2.356  0.00  0.00    -0.245 NA
ATOM      7  H4  <0> d           1.048   2.069   2.458  0.00  0.00     0.115 H 
ATOM      8  H5  <0> d          -2.672   2.041   0.353  0.00  0.00     0.115 H 
ENDROOT
BRANCH   4   9
ATOM      9  C6  <0> d          -0.018   1.503   0.010  0.00  0.00     0.042 C 
ATOM     10  H6  <0> d          -0.550   1.867  -0.881  0.00  0.00     0.056 H 
ATOM     11  H7  <0> d           1.014   1.884   0.002  0.00  0.00     0.056 H 
BRANCH   9  12
ATOM     12  C7  <0> d           0.002  -0.004   0.002  0.00  0.00     0.177 C 
ATOM     13  O1  <0> d          -0.504  -0.620   0.910  0.00  0.00    -0.648 OA
ATOM     14  O2  <0> d           0.583  -0.662  -1.014  0.00  0.00    -0.648 OA
ENDBRANCH   9  12
ENDBRANCH   4   9
BRANCH   1  15
ATOM     15  C1  <0> d          -2.681   3.337   4.690  0.00  0.00    -0.020 C 
ATOM     16  H1  <0> d          -1.949   3.465   5.502  0.00  0.00     0.037 H 
ATOM     17  H2  <0> d          -3.440   2.601   4.993  0.00  0.00     0.037 H 
ATOM     18  H3  <0> d          -3.168   4.301   4.480  0.00  0.00     0.037 H 
ENDBRANCH   1  15
TORSDOF 3
