REMARK  1 active torsions:
REMARK  status: ('A' for Active; 'I' for Inactive)
REMARK    1  A    between atoms: C9_10  and  O1_12 
ROOT
ATOM      1  C1  <0> d          -0.013   1.076   0.008  0.00  0.00    -0.065 A 
ATOM      2  C2  <0> d          -1.214   1.764   0.017  0.00  0.00    -0.071 A 
ATOM      3  C3  <0> d          -1.191   3.155   0.029  0.00  0.00    -0.005 A 
ATOM      4  C4  <0> d           0.021   3.806   0.025  0.00  0.00     0.043 A 
ATOM      5  N1  <0> d           1.151   3.110   0.010  0.00  0.00    -0.265 NA
ATOM      6  C5  <0> d           1.167   1.795   0.001  0.00  0.00     0.003 A 
ATOM      7  C6  <0> d           0.129   5.310   0.042  0.00  0.00    -0.024 C 
ATOM      8  C7  <0> d          -1.194   5.947  -0.377  0.00  0.00    -0.058 C 
ATOM      9  C8  <0> d          -2.317   5.335   0.469  0.00  0.00    -0.037 C 
ATOM     10  C9  <0> d          -2.509   3.883   0.036  0.00  0.00     0.063 C 
ATOM     11  H1  <0> d          -2.937   3.860  -0.966  0.00  0.00     0.090 H 
ATOM     12  H2  <0> d           0.002  -0.004   0.002  0.00  0.00     0.085 H 
ATOM     13  H3  <0> d          -2.153   1.230   0.019  0.00  0.00     0.084 H 
ATOM     14  H4  <0> d           2.112   1.272  -0.013  0.00  0.00     0.114 H 
ATOM     15  H5  <0> d           0.384   5.640   1.049  0.00  0.00     0.042 H 
ATOM     16  H6  <0> d           0.913   5.622  -0.648  0.00  0.00     0.042 H 
ATOM     17  H7  <0> d          -1.153   7.023  -0.207  0.00  0.00     0.033 H 
ATOM     18  H8  <0> d          -1.379   5.747  -1.432  0.00  0.00     0.033 H 
ATOM     19  H9  <0> d          -2.043   5.371   1.524  0.00  0.00     0.037 H 
ATOM     20  H10 <0> d          -3.241   5.891   0.310  0.00  0.00     0.037 H 
ENDROOT
BRANCH  10  21
ATOM     21  O1  <0> d          -3.400   3.233   0.945  0.00  0.00    -0.391 OA
ATOM     22  H11 <0> d          -3.570   2.305   0.733  0.00  0.00     0.210 HD
ENDBRANCH  10  21
TORSDOF 1
