REMARK  2 active torsions:
REMARK  status: ('A' for Active; 'I' for Inactive)
REMARK    1  A    between atoms: C2_2  and  O2_9 
REMARK    2  A    between atoms: C5_6  and  O1_8 
ROOT
ATOM      1  C1  <0> d          -1.438  -0.562  -0.069  0.00  0.00    -0.011 C 
ATOM      2  C2  <0> d          -1.612  -0.766  -1.592  0.00  0.00     0.054 C 
ATOM      3  H1  <0> d          -2.088   0.106  -2.042  0.00  0.00     0.089 H 
ATOM      4  C3  <0> d          -0.206  -0.930  -2.121  0.00  0.00    -0.077 C 
ATOM      5  C4  <0> d           0.674  -0.514  -1.251  0.00  0.00    -0.077 C 
ATOM      6  C5  <0> d           0.002  -0.004   0.002  0.00  0.00     0.054 C 
ATOM      7  H2  <0> d           0.514  -0.381   0.888  0.00  0.00     0.089 H 
ATOM      8  H3  <0> d          -1.518  -1.509   0.464  0.00  0.00     0.041 H 
ATOM      9  H4  <0> d          -2.158   0.162   0.313  0.00  0.00     0.041 H 
ATOM     10  H5  <0> d           0.038  -1.337  -3.091  0.00  0.00     0.080 H 
ATOM     11  H6  <0> d           1.743  -0.533  -1.408  0.00  0.00     0.080 H 
ENDROOT
BRANCH   2  12
ATOM     12  O2  <0> d          -2.382  -1.942  -1.852  0.00  0.00    -0.392 OA
ATOM     13  H8  <0> d          -2.482  -2.147  -2.792  0.00  0.00     0.210 HD
ENDBRANCH   2  12
BRANCH   6  14
ATOM     14  O1  <0> d          -0.017   1.425   0.010  0.00  0.00    -0.392 OA
ATOM     15  H7  <0> d           0.861   1.830   0.004  0.00  0.00     0.210 HD
ENDBRANCH   6  14
TORSDOF 2
