REMARK  1 active torsions:
REMARK  status: ('A' for Active; 'I' for Inactive)
REMARK    1  A    between atoms: C3_3  and  O2_8 
ROOT
ATOM      1  C1  <0> d          -0.019   1.527   0.010  0.00  0.00    -0.043 C 
ATOM      2  C2  <0> d           1.421   2.049  -0.001  0.00  0.00    -0.037 C 
ATOM      3  C3  <0> d           2.171   1.471   1.203  0.00  0.00     0.056 C 
ATOM      4  H1  <0> d           1.707   1.823   2.125  0.00  0.00     0.086 H 
ATOM      5  C4  <0> d           2.108  -0.057   1.149  0.00  0.00     0.043 C 
ATOM      6  O1  <0> d           0.741  -0.475   1.131  0.00  0.00    -0.389 OA
ATOM      7  C5  <0> d           0.002  -0.004   0.002  0.00  0.00     0.020 C 
ATOM      8  H2  <0> d          -0.527   1.879   0.908  0.00  0.00     0.036 H 
ATOM      9  H3  <0> d          -0.544   1.889  -0.873  0.00  0.00     0.036 H 
ATOM     10  H4  <0> d           1.915   1.738  -0.921  0.00  0.00     0.036 H 
ATOM     11  H5  <0> d           1.415   3.137   0.062  0.00  0.00     0.036 H 
ATOM     12  H6  <0> d           2.608  -0.410   0.247  0.00  0.00     0.078 H 
ATOM     13  H7  <0> d           2.603  -0.473   2.026  0.00  0.00     0.078 H 
ATOM     14  H8  <0> d          -1.019  -0.382   0.053  0.00  0.00     0.074 H 
ATOM     15  H9  <0> d           0.475  -0.356  -0.915  0.00  0.00     0.074 H 
ENDROOT
BRANCH   3  16
ATOM     16  O2  <0> d           3.536   1.895   1.164  0.00  0.00    -0.393 OA
ATOM     17  H10 <0> d           4.071   1.565   1.899  0.00  0.00     0.210 HD
ENDBRANCH   3  16
TORSDOF 1
