REMARK  0 active torsions:
REMARK  status: ('A' for Active; 'I' for Inactive)
ROOT
ATOM      1  C1  <0> d           2.383   1.412  -0.013  0.00  0.00    -0.082 A 
ATOM      2  C2  <0> d           1.161   2.082   0.002  0.00  0.00    -0.082 A 
ATOM      3  C3  <0> d          -0.017   1.397   0.010  0.00  0.00    -0.071 A 
ATOM      4  C4  <0> d           0.002  -0.004   0.002  0.00  0.00    -0.005 A 
ATOM      5  C5  <0> d          -1.169  -0.781   0.009  0.00  0.00     0.034 A 
ATOM      6  N1  <0> d          -1.062  -2.091   0.002  0.00  0.00    -0.162 NA
ATOM      7  N2  <0> d           0.061  -2.707  -0.012  0.00  0.00    -0.162 NA
ATOM      8  C6  <0> d           1.223  -2.092  -0.020  0.00  0.00     0.034 A 
ATOM      9  C7  <0> d           1.248  -0.687  -0.014  0.00  0.00    -0.005 A 
ATOM     10  C8  <0> d           2.439   0.051  -0.021  0.00  0.00    -0.071 A 
ATOM     11  H1  <0> d           3.301   1.981  -0.019  0.00  0.00     0.083 H 
ATOM     12  H2  <0> d           1.148   3.162   0.008  0.00  0.00     0.083 H 
ATOM     13  H3  <0> d          -0.957   1.929   0.017  0.00  0.00     0.084 H 
ATOM     14  H4  <0> d          -2.141  -0.310   0.022  0.00  0.00     0.118 H 
ATOM     15  H5  <0> d           2.143  -2.658  -0.032  0.00  0.00     0.118 H 
ATOM     16  H6  <0> d           3.393  -0.456  -0.033  0.00  0.00     0.084 H 
ENDROOT
TORSDOF 0
