REMARK  3 active torsions:
REMARK  status: ('A' for Active; 'I' for Inactive)
REMARK    1  A    between atoms: C2_2  and  C3_3 
REMARK    2  A    between atoms: C7_10  and  C8_12 
REMARK    3  A    between atoms: C8_12  and  O1_13 
ROOT
ATOM      1  C3  <0> d           0.837  -0.282   1.293  0.00  0.00    -0.026 C 
ATOM      2  H1  <0> d           0.203  -0.229   2.178  0.00  0.00     0.047 H 
ATOM      3  C4  <0> d           0.002  -0.004   0.002  0.00  0.00    -0.030 C 
ATOM      4  H2  <0> d          -0.963  -0.506  -0.066  0.00  0.00     0.047 H 
ATOM      5  C5  <0> d          -0.019   1.568   0.011  0.00  0.00    -0.051 C 
ATOM      6  C6  <0> d           1.549   1.681  -0.004  0.00  0.00    -0.031 C 
ATOM      7  H3  <0> d           1.967   2.686  -0.063  0.00  0.00     0.046 H 
ATOM      8  C7  <0> d           1.884   0.859   1.304  0.00  0.00    -0.020 C 
ATOM      9  H4  <0> d           1.768   1.476   2.195  0.00  0.00     0.045 H 
ATOM     10  C9  <0> d           1.869   0.725  -1.160  0.00  0.00    -0.102 C 
ATOM     11  C10 <0> d           0.977  -0.245  -1.157  0.00  0.00    -0.102 C 
ATOM     12  H8  <0> d          -0.476   1.985  -0.887  0.00  0.00     0.035 H 
ATOM     13  H9  <0> d          -0.459   1.975   0.921  0.00  0.00     0.035 H 
ATOM     14  H13 <0> d           2.686   0.830  -1.858  0.00  0.00     0.077 H 
ATOM     15  H14 <0> d           0.940  -1.071  -1.852  0.00  0.00     0.077 H 
ENDROOT
BRANCH   1  16
ATOM     16  C2  <0> d           1.513  -1.626   1.208  0.00  0.00    -0.107 C 
ATOM     17  C1  <0> d           1.273  -2.539   2.116  0.00  0.00    -0.124 C 
ATOM     18  H5  <0> d           0.590  -2.328   2.925  0.00  0.00     0.066 H 
ATOM     19  H6  <0> d           1.757  -3.502   2.054  0.00  0.00     0.066 H 
ATOM     20  H7  <0> d           2.196  -1.836   0.398  0.00  0.00     0.076 H 
ENDBRANCH   1  16
BRANCH   8  21
ATOM     21  C8  <0> d           3.301   0.288   1.228  0.00  0.00     0.021 C 
ATOM     22  H10 <0> d           3.448  -0.431   2.034  0.00  0.00     0.074 H 
ATOM     23  H11 <0> d           3.441  -0.210   0.268  0.00  0.00     0.074 H 
BRANCH  21  24
ATOM     24  O1  <0> d           4.250   1.349   1.357  0.00  0.00    -0.400 OA
ATOM     25  H12 <0> d           5.172   1.059   1.318  0.00  0.00     0.209 HD
ENDBRANCH  21  24
ENDBRANCH   8  21
TORSDOF 3
