REMARK  7 active torsions:
REMARK  status: ('A' for Active; 'I' for Inactive)
REMARK    1  A    between atoms: C1_1  and  C2_2 
REMARK    2  A    between atoms: C2_2  and  C3_3 
REMARK    3  A    between atoms: C3_3  and  C4_4 
REMARK    4  A    between atoms: C4_4  and  O2_6 
REMARK    5  A    between atoms: O2_6  and  C5_7 
REMARK    6  A    between atoms: C5_7  and  C6_8 
REMARK    7  A    between atoms: C5_7  and  C7_9 
ROOT
ATOM      1  C4  <0> d          -0.014   1.204   0.009  0.00  0.00     0.259 C 
ATOM      2  O1  <0> d           0.002  -0.004   0.002  0.00  0.00    -0.265 OA
ENDROOT
BRANCH   1   3
ATOM      3  C3  <0> d          -1.329   1.940   0.019  0.00  0.00     0.015 C 
ATOM      4  H6  <0> d          -1.391   2.561   0.913  0.00  0.00     0.048 H 
ATOM      5  H7  <0> d          -1.400   2.570  -0.867  0.00  0.00     0.048 H 
BRANCH   3   6
ATOM      6  C2  <0> d          -2.479   0.930   0.019  0.00  0.00    -0.060 C 
ATOM      7  H4  <0> d          -2.417   0.309  -0.875  0.00  0.00     0.033 H 
ATOM      8  H5  <0> d          -2.408   0.299   0.905  0.00  0.00     0.033 H 
BRANCH   6   9
ATOM      9  C1  <0> d          -3.814   1.677   0.029  0.00  0.00    -0.076 C 
ATOM     10  H1  <0> d          -3.876   2.298   0.923  0.00  0.00     0.027 H 
ATOM     11  H2  <0> d          -3.885   2.307  -0.857  0.00  0.00     0.027 H 
ATOM     12  H3  <0> d          -4.633   0.957   0.029  0.00  0.00     0.027 H 
ENDBRANCH   6   9
ENDBRANCH   3   6
ENDBRANCH   1   3
BRANCH   1  13
ATOM     13  O2  <0> d           1.139   1.891   0.001  0.00  0.00    -0.317 OA
BRANCH  13  14
ATOM     14  C5  <0> d           2.367   1.117  -0.015  0.00  0.00     0.041 C 
ATOM     15  H8  <0> d           2.205   0.167   0.496  0.00  0.00     0.083 H 
BRANCH  14  16
ATOM     16  C6  <0> d           2.785   0.853  -1.462  0.00  0.00    -0.052 C 
ATOM     17  H9  <0> d           2.947   1.802  -1.973  0.00  0.00     0.030 H 
ATOM     18  H10 <0> d           3.707   0.272  -1.474  0.00  0.00     0.030 H 
ATOM     19  H11 <0> d           1.998   0.296  -1.972  0.00  0.00     0.030 H 
ENDBRANCH  14  16
BRANCH  14  20
ATOM     20  C7  <0> d           3.472   1.898   0.700  0.00  0.00    -0.052 C 
ATOM     21  H12 <0> d           3.174   2.086   1.732  0.00  0.00     0.030 H 
ATOM     22  H13 <0> d           4.394   1.317   0.689  0.00  0.00     0.030 H 
ATOM     23  H14 <0> d           3.634   2.847   0.190  0.00  0.00     0.030 H 
ENDBRANCH  14  20
ENDBRANCH  13  14
ENDBRANCH   1  13
TORSDOF 7
