REMARK  4 active torsions:
REMARK  status: ('A' for Active; 'I' for Inactive)
REMARK    1  A    between atoms: C1_1  and  C2_2 
REMARK    2  A    between atoms: C4_4  and  N2_10 
REMARK    3  A    between atoms: C6_6  and  N1_9 
REMARK    4  A    between atoms: C7_7  and  O1_8 
ROOT
ATOM      1  C2  <0> d           1.208  -0.681  -0.013  0.00  0.00    -0.024 A 
ATOM      2  C3  <0> d           0.002  -0.004   0.002  0.00  0.00    -0.049 A 
ATOM      3  C4  <0> d          -0.017   1.384   0.010  0.00  0.00     0.028 A 
ATOM      4  C5  <0> d           1.176   2.095   0.002  0.00  0.00    -0.030 A 
ATOM      5  C6  <0> d           2.385   1.416  -0.013  0.00  0.00     0.062 A 
ATOM      6  C7  <0> d           2.399   0.023  -0.021  0.00  0.00     0.097 A 
ATOM      7  H4  <0> d          -0.926  -0.556   0.008  0.00  0.00     0.087 H 
ATOM      8  H5  <0> d           1.162   3.175   0.008  0.00  0.00     0.090 H 
ENDROOT
BRANCH   1   9
ATOM      9  C1  <0> d           1.224  -2.188  -0.022  0.00  0.00    -0.049 C 
ATOM     10  H1  <0> d           1.219  -2.546  -1.052  0.00  0.00     0.033 H 
ATOM     11  H2  <0> d           2.123  -2.545   0.482  0.00  0.00     0.033 H 
ATOM     12  H3  <0> d           0.343  -2.564   0.498  0.00  0.00     0.033 H 
ENDBRANCH   1   9
BRANCH   6  13
ATOM     13  O1  <0> d           3.585  -0.645  -0.035  0.00  0.00    -0.358 OA
ATOM     14  H6  <0> d           3.919  -0.834  -0.923  0.00  0.00     0.217 HD
ENDBRANCH   6  13
BRANCH   5  15
ATOM     15  N1  <0> d           3.589   2.130  -0.020  0.00  0.00    -0.397 N 
ATOM     16  H7  <0> d           4.434   1.654  -0.030  0.00  0.00     0.156 HD
ATOM     17  H8  <0> d           3.578   3.100  -0.015  0.00  0.00     0.156 HD
ENDBRANCH   5  15
BRANCH   3  18
ATOM     18  N2  <0> d          -1.238   2.067   0.019  0.00  0.00    -0.399 N 
ATOM     19  H9  <0> d          -2.071   1.571   0.020  0.00  0.00     0.156 HD
ATOM     20  H10 <0> d          -1.251   3.037   0.025  0.00  0.00     0.156 HD
ENDBRANCH   3  18
TORSDOF 4
