REMARK  4 active torsions:
REMARK  status: ('A' for Active; 'I' for Inactive)
REMARK    1  A    between atoms: C1_1  and  C2_2 
REMARK    2  A    between atoms: C2_2  and  C3_3 
REMARK    3  A    between atoms: C3_3  and  C4_4 
REMARK    4  A    between atoms: C4_4  and  C5_6 
ROOT
ATOM      1  C4  <0> d          -1.413  -2.041   0.005  0.00  0.00     0.138 C 
ATOM      2  O1  <0> d          -0.359  -2.630  -0.009  0.00  0.00    -0.297 OA
ENDROOT
BRANCH   1   3
ATOM      3  C3  <0> d          -1.433  -0.534   0.013  0.00  0.00    -0.009 C 
ATOM      4  H6  <0> d          -1.901  -0.211   0.836  0.00  0.00     0.044 H 
ATOM      5  H7  <0> d          -1.960  -0.173  -0.870  0.00  0.00     0.044 H 
BRANCH   3   6
ATOM      6  C2  <0> d           0.002  -0.004   0.002  0.00  0.00    -0.062 C 
ATOM      7  H4  <0> d           0.512  -0.356  -0.895  0.00  0.00     0.033 H 
ATOM      8  H5  <0> d           0.529  -0.365   0.885  0.00  0.00     0.033 H 
BRANCH   6   9
ATOM      9  C1  <0> d          -0.019   1.526   0.010  0.00  0.00    -0.076 C 
ATOM     10  H1  <0> d           1.004   1.903   0.003  0.00  0.00     0.027 H 
ATOM     11  H2  <0> d          -0.546   1.887  -0.873  0.00  0.00     0.027 H 
ATOM     12  H3  <0> d          -0.529   1.877   0.907  0.00  0.00     0.027 H 
ENDBRANCH   6   9
ENDBRANCH   3   6
ENDBRANCH   1   3
BRANCH   1  13
ATOM     13  C5  <0> d          -2.708  -2.812   0.013  0.00  0.00     0.036 A 
ATOM     14  C9  <0> d          -2.507  -4.182  -0.596  0.00  0.00    -0.089 A 
ATOM     15  C8  <0> d          -2.798  -5.068   0.348  0.00  0.00    -0.086 A 
ATOM     16  H12 <0> d          -2.188  -4.397  -1.605  0.00  0.00     0.078 H 
ATOM     17  C7  <0> d          -3.193  -4.392   1.587  0.00  0.00    -0.086 A 
ATOM     18  H11 <0> d          -2.752  -6.139   0.221  0.00  0.00     0.083 H 
ATOM     19  C6  <0> d          -3.154  -3.074   1.434  0.00  0.00    -0.089 A 
ATOM     20  H10 <0> d          -3.477  -4.897   2.498  0.00  0.00     0.083 H 
ATOM     21  H9  <0> d          -3.394  -2.332   2.181  0.00  0.00     0.078 H 
ATOM     22  H8  <0> d          -3.404  -2.299  -0.489  0.00  0.00     0.064 H 
ENDBRANCH   1  13
TORSDOF 4
