REMARK  0 active torsions:
REMARK  status: ('A' for Active; 'I' for Inactive)
ROOT
ATOM      1  C1  <0> d          -0.018   1.460   0.010  0.00  0.00    -0.053 A 
ATOM      2  C2  <0> d           1.261   1.867   0.000  0.00  0.00    -0.020 A 
ATOM      3  N1  <0> d           2.096   0.781  -0.014  0.00  0.00    -0.350 N 
ATOM      4  H1  <0> d           3.065   0.824  -0.022  0.00  0.00     0.166 HD
ATOM      5  C3  <0> d           1.359  -0.379  -0.013  0.00  0.00     0.139 A 
ATOM      6  C4  <0> d           0.002  -0.004   0.002  0.00  0.00     0.033 A 
ATOM      7  C5  <0> d          -0.985  -0.994   0.006  0.00  0.00     0.049 A 
ATOM      8  C6  <0> d          -0.578  -2.317  -0.004  0.00  0.00    -0.044 A 
ATOM      9  C7  <0> d           0.775  -2.612  -0.019  0.00  0.00     0.006 A 
ATOM     10  N2  <0> d           1.688  -1.664  -0.024  0.00  0.00    -0.242 NA
ATOM     11 Cl1  <0> d          -2.670  -0.577   0.025  0.00  0.00    -0.083 Cl
ATOM     12  H2  <0> d          -0.894   2.091   0.026  0.00  0.00     0.087 H 
ATOM     13  H3  <0> d           1.584   2.897   0.002  0.00  0.00     0.111 H 
ATOM     14  H4  <0> d          -1.310  -3.112  -0.001  0.00  0.00     0.088 H 
ATOM     15  H5  <0> d           1.089  -3.646  -0.026  0.00  0.00     0.114 H 
ENDROOT
TORSDOF 0
