REMARK  2 active torsions:
REMARK  status: ('A' for Active; 'I' for Inactive)
REMARK    1  A    between atoms: C2_2  and  C4_7 
REMARK    2  A    between atoms: C4_7  and  O1_12 
ROOT
ATOM      1  C4  <0> d          -0.784   1.609  -1.216  0.00  0.00     0.103 C 
ATOM      2  C5  <0> d          -0.013   1.086   0.008  0.00  0.00    -0.031 C 
ATOM      3  C6  <0> d          -0.763   1.597   1.255  0.00  0.00    -0.062 C 
ATOM      4  C7  <0> d          -1.531   2.845   0.750  0.00  0.00    -0.062 C 
ATOM      5  C8  <0> d          -1.978   2.421  -0.670  0.00  0.00    -0.031 C 
ATOM      6  H4  <0> d           0.002  -0.004   0.002  0.00  0.00     0.038 H 
ATOM      7  H5  <0> d           1.006   1.473   0.000  0.00  0.00     0.038 H 
ATOM      8  H6  <0> d          -1.460   0.842   1.618  0.00  0.00     0.033 H 
ATOM      9  H7  <0> d          -0.057   1.874   2.038  0.00  0.00     0.033 H 
ATOM     10  H8  <0> d          -0.871   3.712   0.705  0.00  0.00     0.033 H 
ATOM     11  H9  <0> d          -2.395   3.049   1.383  0.00  0.00     0.033 H 
ATOM     12  H10 <0> d          -2.159   3.298  -1.292  0.00  0.00     0.038 H 
ATOM     13  H11 <0> d          -2.872   1.798  -0.622  0.00  0.00     0.038 H 
ENDROOT
BRANCH   1  14
ATOM     14  C2  <0> d          -1.282   0.454  -2.045  0.00  0.00     0.085 A 
ATOM     15  C1  <0> d          -1.911   0.545  -3.232  0.00  0.00     0.005 A 
ATOM     16  N2  <0> d          -2.186  -0.735  -3.635  0.00  0.00    -0.358 N 
ATOM     17  H2  <0> d          -2.154   1.453  -3.765  0.00  0.00     0.114 H 
ATOM     18  C3  <0> d          -1.714  -1.564  -2.679  0.00  0.00     0.064 A 
ATOM     19  H1  <0> d          -2.649  -1.005  -4.479  0.00  0.00     0.166 HD
ATOM     20  N1  <0> d          -1.170  -0.846  -1.734  0.00  0.00    -0.244 NA
ATOM     21  H3  <0> d          -1.773  -2.642  -2.695  0.00  0.00     0.143 H 
ENDBRANCH   1  14
BRANCH   1  22
ATOM     22  O1  <0> d           0.060   2.450  -2.004  0.00  0.00    -0.383 OA
ATOM     23  H12 <0> d          -0.370   2.812  -2.791  0.00  0.00     0.211 HD
ENDBRANCH   1  22
TORSDOF 2
