REMARK  9 active torsions:
REMARK  status: ('A' for Active; 'I' for Inactive)
REMARK    1  A    between atoms: C1_1  and  C2_2 
REMARK    2  A    between atoms: C2_2  and  O1_3 
REMARK    3  A    between atoms: O1_3  and  C3_4 
REMARK    4  A    between atoms: C3_4  and  C4_5 
REMARK    5  A    between atoms: C4_5  and  C5_7 
REMARK    6  A    between atoms: C4_5  and  O2_12 
REMARK    7  A    between atoms: C5_7  and  C6_8 
REMARK    8  A    between atoms: C6_8  and  C7_9 
REMARK    9  A    between atoms: C7_9  and  C9_11 
ROOT
ATOM      1  C4  <0> d           0.613  -2.097  -1.041  0.00  0.00     0.056 C 
ATOM      2  H1  <0> d          -0.419  -2.427  -0.920  0.00  0.00     0.086 H 
ENDROOT
BRANCH   1   3
ATOM      3  C3  <0> d           0.652  -0.570  -1.138  0.00  0.00     0.043 C 
ATOM      4  H7  <0> d           0.139  -0.251  -2.045  0.00  0.00     0.078 H 
ATOM      5  H8  <0> d           1.688  -0.234  -1.169  0.00  0.00     0.078 H 
BRANCH   3   6
ATOM      6  O1  <0> d           0.002  -0.004   0.002  0.00  0.00    -0.389 OA
BRANCH   6   7
ATOM      7  C2  <0> d          -0.017   1.425   0.010  0.00  0.00     0.016 C 
ATOM      8  H5  <0> d           1.005   1.802   0.002  0.00  0.00     0.073 H 
ATOM      9  H6  <0> d          -0.544   1.786  -0.873  0.00  0.00     0.073 H 
BRANCH   7  10
ATOM     10  C1  <0> d          -0.733   1.918   1.269  0.00  0.00    -0.056 C 
ATOM     11  H2  <0> d          -0.206   1.557   2.152  0.00  0.00     0.030 H 
ATOM     12  H3  <0> d          -0.748   3.008   1.275  0.00  0.00     0.030 H 
ATOM     13  H4  <0> d          -1.756   1.541   1.276  0.00  0.00     0.030 H 
ENDBRANCH   7  10
ENDBRANCH   6   7
ENDBRANCH   3   6
ENDBRANCH   1   3
BRANCH   1  14
ATOM     14  C5  <0> d           1.197  -2.704  -2.318  0.00  0.00    -0.036 C 
ATOM     15  H9  <0> d           0.664  -2.309  -3.184  0.00  0.00     0.037 H 
ATOM     16  H10 <0> d           2.253  -2.446  -2.393  0.00  0.00     0.037 H 
BRANCH  14  17
ATOM     17  C6  <0> d           1.044  -4.226  -2.276  0.00  0.00    -0.043 C 
ATOM     18  H11 <0> d           1.577  -4.620  -1.410  0.00  0.00     0.039 H 
ATOM     19  H12 <0> d          -0.012  -4.483  -2.201  0.00  0.00     0.039 H 
BRANCH  17  20
ATOM     20  C7  <0> d           1.619  -4.823  -3.534  0.00  0.00    -0.093 C 
ATOM     21  C8  <0> d           2.854  -5.261  -3.547  0.00  0.00    -0.119 C 
ATOM     22  H13 <0> d           3.266  -5.689  -4.449  0.00  0.00     0.067 H 
ATOM     23  H14 <0> d           3.460  -5.192  -2.656  0.00  0.00     0.067 H 
BRANCH  20  24
ATOM     24  C9  <0> d           0.773  -4.918  -4.778  0.00  0.00    -0.055 C 
ATOM     25  H15 <0> d           0.895  -4.012  -5.370  0.00  0.00     0.033 H 
ATOM     26  H16 <0> d           1.087  -5.781  -5.365  0.00  0.00     0.033 H 
ATOM     27  H17 <0> d          -0.274  -5.031  -4.497  0.00  0.00     0.033 H 
ENDBRANCH  20  24
ENDBRANCH  17  20
ENDBRANCH  14  17
ENDBRANCH   1  14
BRANCH   1  28
ATOM     28  O2  <0> d           1.385  -2.522   0.084  0.00  0.00    -0.393 OA
ATOM     29  H18 <0> d           2.315  -2.263   0.044  0.00  0.00     0.210 HD
ENDBRANCH   1  28
TORSDOF 9
