REMARK  2 active torsions:
REMARK  status: ('A' for Active; 'I' for Inactive)
REMARK    1  A    between atoms: C4_4  and  O2_12 
REMARK    2  A    between atoms: C5_6  and  C7_9 
REMARK       I    between atoms: C7_9  and  N1_11 
ROOT
ATOM      1  C1  <0> d          -0.508   5.173   1.282  0.00  0.00    -0.064 C 
ATOM      2  C2  <0> d          -1.958   5.664   1.291  0.00  0.00    -0.063 C 
ATOM      3  C3  <0> d          -2.678   5.151   0.043  0.00  0.00    -0.040 C 
ATOM      4  C4  <0> d          -2.657   3.621   0.034  0.00  0.00     0.047 C 
ATOM      5  H1  <0> d          -3.170   3.256  -0.855  0.00  0.00     0.084 H 
ATOM      6  C5  <0> d          -1.208   3.131   0.025  0.00  0.00     0.048 C 
ATOM      7  H2  <0> d          -0.703   3.506  -0.866  0.00  0.00     0.058 H 
ATOM      8  C6  <0> d          -0.488   3.644   1.273  0.00  0.00    -0.051 C 
ATOM      9  H3  <0> d          -0.004   5.548   0.392  0.00  0.00     0.033 H 
ATOM     10  H4  <0> d           0.005   5.539   2.171  0.00  0.00     0.033 H 
ATOM     11  H5  <0> d          -1.972   6.754   1.297  0.00  0.00     0.033 H 
ATOM     12  H6  <0> d          -2.462   5.289   2.182  0.00  0.00     0.033 H 
ATOM     13  H7  <0> d          -2.173   5.526  -0.848  0.00  0.00     0.036 H 
ATOM     14  H8  <0> d          -3.710   5.500   0.050  0.00  0.00     0.036 H 
ATOM     15  H9  <0> d          -0.992   3.268   2.164  0.00  0.00     0.034 H 
ATOM     16  H10 <0> d           0.545   3.294   1.267  0.00  0.00     0.034 H 
ENDROOT
BRANCH   6  17
ATOM     17  C7  <0> d          -1.187   1.624   0.017  0.00  0.00     0.222 C 
ATOM     18  O1  <0> d          -2.229   1.003   0.018  0.00  0.00    -0.273 OA
ATOM     19  N1  <0> d          -0.011   0.966   0.007  0.00  0.00    -0.370 N 
ATOM     20  H11 <0> d           0.002  -0.004   0.002  0.00  0.00     0.159 HD
ATOM     21  H12 <0> d           0.822   1.462   0.002  0.00  0.00     0.159 HD
ENDBRANCH   6  17
BRANCH   4  22
ATOM     22  O2  <0> d          -3.319   3.129   1.202  0.00  0.00    -0.395 OA
ATOM     23  H13 <0> d          -4.244   3.402   1.274  0.00  0.00     0.210 HD
ENDBRANCH   4  22
TORSDOF 2
