REMARK  0 active torsions:
REMARK  status: ('A' for Active; 'I' for Inactive)
ROOT
ATOM      1  C1  <0> d          -0.013   1.076   0.008  0.00  0.00    -0.079 A 
ATOM      2  C2  <0> d          -1.236   1.766   0.018  0.00  0.00    -0.066 A 
ATOM      3  C3  <0> d          -1.260   3.115   0.030  0.00  0.00     0.004 A 
ATOM      4  N1  <0> d          -0.098   3.832   0.023  0.00  0.00    -0.245 N 
ATOM      5  C4  <0> d           1.111   3.184   0.008  0.00  0.00     0.059 A 
ATOM      6  C5  <0> d           1.154   1.776   0.001  0.00  0.00    -0.055 A 
ATOM      7  C6  <0> d           2.098   4.161   0.004  0.00  0.00    -0.037 A 
ATOM      8  C7  <0> d           1.466   5.394   0.017  0.00  0.00     0.024 A 
ATOM      9  N2  <0> d           0.164   5.207   0.028  0.00  0.00    -0.180 NA
ATOM     10  H1  <0> d           0.002  -0.004   0.002  0.00  0.00     0.083 H 
ATOM     11  H2  <0> d          -2.164   1.213   0.019  0.00  0.00     0.085 H 
ATOM     12  H3  <0> d          -2.207   3.633   0.041  0.00  0.00     0.114 H 
ATOM     13  H4  <0> d           2.102   1.259  -0.011  0.00  0.00     0.087 H 
ATOM     14  H5  <0> d           3.164   3.991  -0.006  0.00  0.00     0.089 H 
ATOM     15  H6  <0> d           1.962   6.353   0.017  0.00  0.00     0.117 H 
ENDROOT
TORSDOF 0
