REMARK  8 active torsions:
REMARK  status: ('A' for Active; 'I' for Inactive)
REMARK    1  A    between atoms: C1_1  and  C2_2 
REMARK    2  A    between atoms: C2_2  and  C3_4 
REMARK    3  A    between atoms: C2_2  and  O3_7 
REMARK    4  A    between atoms: O3_7  and  C4_8 
REMARK    5  A    between atoms: C4_8  and  C5_9 
REMARK    6  A    between atoms: C5_9  and  C6_10 
REMARK    7  A    between atoms: C6_10  and  C7_11 
REMARK    8  A    between atoms: C6_10  and  C8_12 
ROOT
ATOM      1  C4  <0> d           2.099  -0.651   0.967  0.00  0.00     0.021 C 
ATOM      2  H5  <0> d           2.269  -1.376   0.172  0.00  0.00     0.074 H 
ATOM      3  H6  <0> d           2.548   0.303   0.692  0.00  0.00     0.074 H 
ENDROOT
BRANCH   1   4
ATOM      4  O3  <0> d           0.693  -0.477   1.160  0.00  0.00    -0.376 OA
BRANCH   4   5
ATOM      5  C2  <0> d           0.002  -0.004   0.002  0.00  0.00     0.118 C 
ATOM      6  H1  <0> d           0.512  -0.356  -0.895  0.00  0.00     0.099 H 
BRANCH   5   7
ATOM      7  C1  <0> d          -0.019   1.526   0.010  0.00  0.00    -0.043 C 
ATOM      8  H2  <0> d           1.004   1.903   0.003  0.00  0.00     0.031 H 
ATOM      9  H3  <0> d          -0.546   1.887  -0.873  0.00  0.00     0.031 H 
ATOM     10  H4  <0> d          -0.529   1.877   0.907  0.00  0.00     0.031 H 
ENDBRANCH   5   7
BRANCH   5  11
ATOM     11  C3  <0> d          -1.412  -0.526   0.013  0.00  0.00     0.202 C 
ATOM     12  O1  <0> d          -2.147  -0.313  -0.936  0.00  0.00    -0.646 OA
ATOM     13  O2  <0> d          -1.820  -1.161   0.970  0.00  0.00    -0.646 OA
ENDBRANCH   5  11
ENDBRANCH   4   5
ENDBRANCH   1   4
BRANCH   1  14
ATOM     14  C5  <0> d           2.732  -1.158   2.264  0.00  0.00    -0.043 C 
ATOM     15  H7  <0> d           2.561  -0.433   3.060  0.00  0.00     0.036 H 
ATOM     16  H8  <0> d           2.283  -2.112   2.540  0.00  0.00     0.036 H 
BRANCH  14  17
ATOM     17  C6  <0> d           4.237  -1.344   2.058  0.00  0.00    -0.059 C 
ATOM     18  H9  <0> d           4.672  -0.412   1.697  0.00  0.00     0.038 H 
BRANCH  17  19
ATOM     19  C7  <0> d           4.890  -1.731   3.387  0.00  0.00    -0.073 C 
ATOM     20  H10 <0> d           4.454  -2.663   3.748  0.00  0.00     0.028 H 
ATOM     21  H11 <0> d           5.962  -1.863   3.240  0.00  0.00     0.028 H 
ATOM     22  H12 <0> d           4.718  -0.942   4.119  0.00  0.00     0.028 H 
ENDBRANCH  17  19
BRANCH  17  23
ATOM     23  C8  <0> d           4.478  -2.451   1.030  0.00  0.00    -0.073 C 
ATOM     24  H13 <0> d           5.550  -2.584   0.883  0.00  0.00     0.028 H 
ATOM     25  H14 <0> d           4.043  -3.383   1.391  0.00  0.00     0.028 H 
ATOM     26  H15 <0> d           4.013  -2.176   0.084  0.00  0.00     0.028 H 
ENDBRANCH  17  23
ENDBRANCH  14  17
ENDBRANCH   1  14
TORSDOF 8
