REMARK  2 active torsions:
REMARK  status: ('A' for Active; 'I' for Inactive)
REMARK    1  A    between atoms: C4_5  and  N3_8 
REMARK    2  A    between atoms: C5_6  and  N2_7 
ROOT
ATOM      1  C1  <0> d          -2.460   3.706   0.034  0.00  0.00    -0.015 A 
ATOM      2  C2  <0> d          -3.625   2.947   0.035  0.00  0.00     0.136 A 
ATOM      3  C3  <0> d          -3.535   1.569   0.027  0.00  0.00     0.042 A 
ATOM      4  N1  <0> d          -2.360   0.964   0.018  0.00  0.00    -0.238 NA
ATOM      5  C4  <0> d          -1.228   1.646   0.017  0.00  0.00     0.147 A 
ATOM      6  C5  <0> d          -1.240   3.044   0.030  0.00  0.00     0.074 A 
ATOM      7  F1  <0> d          -4.833   3.552   0.045  0.00  0.00    -0.205 F 
ATOM      8  H1  <0> d          -2.503   4.785   0.040  0.00  0.00     0.091 H 
ATOM      9  H2  <0> d          -4.438   0.976   0.028  0.00  0.00     0.119 H 
ENDROOT
BRANCH   5  10
ATOM     10  N3  <0> d          -0.011   0.966   0.007  0.00  0.00    -0.382 N 
ATOM     11  H5  <0> d           0.934   1.529   0.006  0.00  0.00     0.157 HD
ATOM     12  H6  <0> d           0.004  -0.134   0.001  0.00  0.00     0.157 HD
ENDBRANCH   5  10
BRANCH   6  13
ATOM     13  N2  <0> d          -0.040   3.765   0.035  0.00  0.00    -0.396 N 
ATOM     14  H3  <0> d           0.922   3.231   0.032  0.00  0.00     0.156 HD
ATOM     15  H4  <0> d          -0.059   4.864   0.041  0.00  0.00     0.156 HD
ENDBRANCH   6  13
TORSDOF 2
