REMARK  0 active torsions:
REMARK  status: ('A' for Active; 'I' for Inactive)
ROOT
ATOM      1  C1  <0> d           3.452  -2.471  -0.016  0.00  0.00    -0.082 A 
ATOM      2  C2  <0> d           2.354  -2.804  -0.790  0.00  0.00    -0.082 A 
ATOM      3  C3  <0> d           1.234  -2.001  -0.785  0.00  0.00    -0.072 A 
ATOM      4  C4  <0> d           1.205  -0.844   0.005  0.00  0.00    -0.028 A 
ATOM      5  C5  <0> d           2.316  -0.515   0.776  0.00  0.00    -0.039 A 
ATOM      6  C6  <0> d           3.432  -1.329   0.763  0.00  0.00    -0.076 A 
ATOM      7  C7  <0> d           2.320   0.731   1.621  0.00  0.00     0.034 C 
ATOM      8  C8  <0> d           2.172   1.939   0.739  0.00  0.00     0.225 C 
ATOM      9  O1  <0> d           3.070   2.753   0.695  0.00  0.00    -0.273 OA
ATOM     10  N1  <0> d           1.073   2.138   0.003  0.00  0.00    -0.337 N 
ATOM     11  C9  <0> d          -0.016   1.307   0.009  0.00  0.00    -0.019 C 
ATOM     12  C10 <0> d           0.002  -0.004   0.002  0.00  0.00    -0.058 C 
ATOM     13  H1  <0> d           4.327  -3.104  -0.022  0.00  0.00     0.083 H 
ATOM     14  H2  <0> d           2.374  -3.696  -1.399  0.00  0.00     0.083 H 
ATOM     15  H3  <0> d           0.379  -2.264  -1.389  0.00  0.00     0.084 H 
ATOM     16  H4  <0> d           4.291  -1.074   1.366  0.00  0.00     0.084 H 
ATOM     17  H5  <0> d           1.491   0.694   2.327  0.00  0.00     0.054 H 
ATOM     18  H6  <0> d           3.260   0.795   2.168  0.00  0.00     0.054 H 
ATOM     19  H7  <0> d           1.045   2.920  -0.570  0.00  0.00     0.168 HD
ATOM     20  H8  <0> d          -0.987   1.780   0.016  0.00  0.00     0.111 H 
ATOM     21  H9  <0> d          -0.952  -0.510  -0.007  0.00  0.00     0.086 H 
ENDROOT
TORSDOF 0
