REMARK  3 active torsions:
REMARK  status: ('A' for Active; 'I' for Inactive)
REMARK    1  A    between atoms: C1_1  and  C2_2 
REMARK    2  A    between atoms: C3_3  and  N4_11 
REMARK    3  A    between atoms: C4_5  and  N3_10 
ROOT
ATOM      1  C2  <0> d           0.002  -0.004   0.002  0.00  0.00     0.052 A 
ATOM      2  C3  <0> d          -1.182  -0.727   0.004  0.00  0.00     0.151 A 
ATOM      3  N1  <0> d          -1.143  -2.065  -0.004  0.00  0.00    -0.047 NA
ATOM      4  C4  <0> d           0.003  -2.713  -0.014  0.00  0.00     0.702 A 
ATOM      5  N2  <0> d           1.192  -2.050  -0.015  0.00  0.00    -0.154 N 
ATOM      6  H1  <0> d           2.024  -2.548  -0.022  0.00  0.00     0.187 HD
ATOM      7  C5  <0> d           1.215  -0.700  -0.013  0.00  0.00     0.269 A 
ATOM      8  O1  <0> d           2.277  -0.098  -0.020  0.00  0.00    -0.267 OA
ENDROOT
BRANCH   1   9
ATOM      9  C1  <0> d          -0.018   1.503   0.010  0.00  0.00    -0.042 C 
ATOM     10  H2  <0> d           1.004   1.880   0.003  0.00  0.00     0.034 H 
ATOM     11  H3  <0> d          -0.545   1.864  -0.873  0.00  0.00     0.034 H 
ATOM     12  H4  <0> d          -0.529   1.854   0.907  0.00  0.00     0.034 H 
ENDBRANCH   1   9
BRANCH   2  13
ATOM     13  N4  <0> d          -2.396  -0.070   0.014  0.00  0.00    -0.383 N 
ATOM     14  H7  <0> d          -2.422   0.900   0.020  0.00  0.00     0.157 HD
ATOM     15  H8  <0> d          -3.222  -0.577   0.015  0.00  0.00     0.157 HD
ENDBRANCH   2  13
BRANCH   4  16
ATOM     16  N3  <0> d          -0.001  -4.082  -0.021  0.00  0.00    -0.233 N 
ATOM     17  H5  <0> d          -0.842  -4.565  -0.020  0.00  0.00     0.174 HD
ATOM     18  H6  <0> d           0.838  -4.569  -0.028  0.00  0.00     0.174 HD
ENDBRANCH   4  16
TORSDOF 3
