REMARK  2 active torsions:
REMARK  status: ('A' for Active; 'I' for Inactive)
REMARK    1  A    between atoms: C1_1  and  C2_2 
REMARK    2  A    between atoms: C4_4  and  N2_9 
ROOT
ATOM      1  C2  <0> d           2.354  -0.032  -0.021  0.00  0.00    -0.019 A 
ATOM      2  C3  <0> d           2.381   1.353  -0.014  0.00  0.00    -0.048 A 
ATOM      3  C4  <0> d           1.169   2.039   0.002  0.00  0.00     0.044 A 
ATOM      4  C5  <0> d          -0.016   1.314   0.009  0.00  0.00     0.029 A 
ATOM      5  N1  <0> d           0.002  -0.004   0.002  0.00  0.00    -0.246 NA
ATOM      6  C6  <0> d           1.133  -0.684  -0.013  0.00  0.00     0.131 A 
ATOM      7 Cl1  <0> d           1.089  -2.419  -0.021  0.00  0.00    -0.062 Cl
ATOM      8  H4  <0> d           3.319   1.888  -0.020  0.00  0.00     0.087 H 
ATOM      9  H5  <0> d          -0.961   1.836   0.017  0.00  0.00     0.118 H 
ENDROOT
BRANCH   1  10
ATOM     10  C1  <0> d           3.638  -0.820  -0.038  0.00  0.00    -0.048 C 
ATOM     11  H1  <0> d           3.938  -1.004  -1.069  0.00  0.00     0.033 H 
ATOM     12  H2  <0> d           4.418  -0.253   0.471  0.00  0.00     0.033 H 
ATOM     13  H3  <0> d           3.488  -1.771   0.473  0.00  0.00     0.033 H 
ENDBRANCH   1  10
BRANCH   3  14
ATOM     14  N2  <0> d           1.145   3.436   0.009  0.00  0.00    -0.398 N 
ATOM     15  H6  <0> d           0.297   3.907   0.019  0.00  0.00     0.156 HD
ATOM     16  H7  <0> d           1.977   3.936   0.004  0.00  0.00     0.156 HD
ENDBRANCH   3  14
TORSDOF 2
