REMARK  1 active torsions:
REMARK  status: ('A' for Active; 'I' for Inactive)
REMARK    1  A    between atoms: C4_4  and  C7_7 
ROOT
ATOM      1  C7  <0> d          -1.353   3.798  -2.289  0.00  0.00    -0.056 C 
ATOM      2  C8  <0> d          -1.633   4.394  -3.261  0.00  0.00     0.018 C 
ATOM      3  C9  <0> d          -1.961   5.093  -4.401  0.00  0.00     0.152 C 
ATOM      4  N1  <0> d          -2.232   5.670  -5.341  0.00  0.00    -0.182 NA
ENDROOT
BRANCH   1   5
ATOM      5  C4  <0> d          -1.011   3.071  -1.104  0.00  0.00    -0.007 C 
ATOM      6  C3  <0> d          -0.760   1.597  -1.225  0.00  0.00    -0.034 C 
ATOM      7  C2  <0> d          -0.013   1.086   0.008  0.00  0.00    -0.060 C 
ATOM      8  H5  <0> d          -0.162   1.404  -2.116  0.00  0.00     0.041 H 
ATOM      9  H6  <0> d          -1.714   1.076  -1.311  0.00  0.00     0.041 H 
ATOM     10  C1  <0> d          -0.738   1.584   1.264  0.00  0.00    -0.062 C 
ATOM     11  H3  <0> d           0.002  -0.004   0.002  0.00  0.00     0.033 H 
ATOM     12  H4  <0> d           1.009   1.466   0.000  0.00  0.00     0.033 H 
ATOM     13  C6  <0> d          -0.579   3.103   1.347  0.00  0.00    -0.049 C 
ATOM     14  H1  <0> d          -1.797   1.333   1.199  0.00  0.00     0.033 H 
ATOM     15  H2  <0> d          -0.302   1.119   2.148  0.00  0.00     0.033 H 
ATOM     16  C5  <0> d          -0.934   3.736   0.034  0.00  0.00    -0.089 C 
ATOM     17  H8  <0> d           0.456   3.341   1.595  0.00  0.00     0.038 H 
ATOM     18  H9  <0> d          -1.236   3.492   2.126  0.00  0.00     0.038 H 
ATOM     19  H7  <0> d          -1.139   4.797   0.018  0.00  0.00     0.078 H 
ENDBRANCH   1   5
TORSDOF 1
