REMARK  6 active torsions:
REMARK  status: ('A' for Active; 'I' for Inactive)
REMARK    1  A    between atoms: C1_1  and  C2_2 
REMARK    2  A    between atoms: C2_2  and  O1_3 
REMARK    3  A    between atoms: O1_3  and  C3_4 
REMARK    4  A    between atoms: C3_4  and  C4_6 
REMARK    5  A    between atoms: C4_6  and  C5_7 
REMARK    6  A    between atoms: C5_7  and  C6_8 
REMARK       I    between atoms: C6_8  and  N1_10 
ROOT
ATOM      1  C4  <0> d          -2.657   3.621   0.034  0.00  0.00     0.024 C 
ATOM      2  H6  <0> d          -3.170   3.256  -0.855  0.00  0.00     0.048 H 
ATOM      3  H7  <0> d          -3.162   3.246   0.925  0.00  0.00     0.048 H 
ENDROOT
BRANCH   1   4
ATOM      4  C3  <0> d          -2.678   5.128   0.043  0.00  0.00     0.259 C 
ATOM      5  O2  <0> d          -1.639   5.746   0.041  0.00  0.00    -0.265 OA
BRANCH   4   6
ATOM      6  O1  <0> d          -3.849   5.783   0.052  0.00  0.00    -0.322 OA
BRANCH   6   7
ATOM      7  C2  <0> d          -3.793   7.234   0.059  0.00  0.00     0.025 C 
ATOM      8  H4  <0> d          -3.261   7.572   0.949  0.00  0.00     0.074 H 
ATOM      9  H5  <0> d          -3.269   7.582  -0.831  0.00  0.00     0.074 H 
BRANCH   7  10
ATOM     10  C1  <0> d          -5.214   7.800   0.069  0.00  0.00    -0.056 C 
ATOM     11  H1  <0> d          -5.746   7.461  -0.820  0.00  0.00     0.030 H 
ATOM     12  H2  <0> d          -5.737   7.452   0.960  0.00  0.00     0.030 H 
ATOM     13  H3  <0> d          -5.172   8.889   0.075  0.00  0.00     0.030 H 
ENDBRANCH   7  10
ENDBRANCH   6   7
ENDBRANCH   4   6
ENDBRANCH   1   4
BRANCH   1  14
ATOM     14  C5  <0> d          -1.208   3.131   0.025  0.00  0.00     0.017 C 
ATOM     15  H8  <0> d          -0.695   3.496   0.914  0.00  0.00     0.047 H 
ATOM     16  H9  <0> d          -0.703   3.506  -0.866  0.00  0.00     0.047 H 
BRANCH  14  17
ATOM     17  C6  <0> d          -1.187   1.624   0.017  0.00  0.00     0.215 C 
ATOM     18  O3  <0> d          -2.229   1.003   0.018  0.00  0.00    -0.274 OA
ATOM     19  N1  <0> d          -0.011   0.966   0.007  0.00  0.00    -0.370 N 
ATOM     20  H10 <0> d           0.002  -0.004   0.002  0.00  0.00     0.159 HD
ATOM     21  H11 <0> d           0.822   1.462   0.002  0.00  0.00     0.159 HD
ENDBRANCH  14  17
ENDBRANCH   1  14
TORSDOF 6
