REMARK  1 active torsions:
REMARK  status: ('A' for Active; 'I' for Inactive)
REMARK    1  A    between atoms: C6_6  and  N1_7 
ROOT
ATOM      1  C1  <0> d          -1.251   3.037   0.030  0.00  0.00    -0.056 A 
ATOM      2  C2  <0> d          -2.457   3.710   0.035  0.00  0.00    -0.057 A 
ATOM      3  C3  <0> d          -3.646   3.002   0.037  0.00  0.00     0.072 A 
ATOM      4  C4  <0> d          -3.630   1.616   0.029  0.00  0.00     0.140 A 
ATOM      5  C5  <0> d          -2.424   0.938   0.019  0.00  0.00    -0.019 A 
ATOM      6  C6  <0> d          -1.231   1.648   0.017  0.00  0.00     0.028 A 
ATOM      7  F1  <0> d          -4.792   0.927   0.030  0.00  0.00    -0.204 F 
ATOM      8 Cl1  <0> d          -5.160   3.852   0.048  0.00  0.00    -0.081 Cl
ATOM      9  H1  <0> d          -0.323   3.590   0.033  0.00  0.00     0.087 H 
ATOM     10  H2  <0> d          -2.472   4.790   0.041  0.00  0.00     0.086 H 
ATOM     11  H3  <0> d          -2.412  -0.142   0.013  0.00  0.00     0.091 H 
ENDROOT
BRANCH   6  12
ATOM     12  N1  <0> d          -0.011   0.966   0.007  0.00  0.00    -0.399 N 
ATOM     13  H4  <0> d           0.002  -0.004   0.002  0.00  0.00     0.156 HD
ATOM     14  H5  <0> d           0.822   1.462   0.002  0.00  0.00     0.156 HD
ENDBRANCH   6  12
TORSDOF 1
