REMARK  4 active torsions:
REMARK  status: ('A' for Active; 'I' for Inactive)
REMARK    1  A    between atoms: C1_1  and  C2_2 
REMARK    2  A    between atoms: C2_2  and  C3_3 
REMARK    3  A    between atoms: C5_5  and  C9_10 
REMARK    4  A    between atoms: C7_7  and  C8_9 
ROOT
ATOM      1  C3  <0> d           0.000   1.080   2.488  0.00  0.00     0.053 A 
ATOM      2  C4  <0> d           1.009   1.853   3.031  0.00  0.00    -0.049 A 
ATOM      3  C5  <0> d           1.662   1.362   4.160  0.00  0.00    -0.057 A 
ATOM      4  C6  <0> d           1.221   0.125   4.628  0.00  0.00    -0.049 A 
ATOM      5  C7  <0> d           0.193  -0.491   3.939  0.00  0.00     0.050 A 
ATOM      6  O1  <0> d          -0.317   0.017   2.968  0.00  0.00    -0.320 OA
ATOM      7  H6  <0> d           1.281   2.804   2.596  0.00  0.00     0.088 H 
ATOM      8  H7  <0> d           1.667  -0.336   5.497  0.00  0.00     0.088 H 
ENDROOT
BRANCH   1   9
ATOM      9  C2  <0> d          -0.729   1.579   1.267  0.00  0.00    -0.024 C 
ATOM     10  H4  <0> d          -0.742   2.579   1.272  0.00  0.00     0.042 H 
ATOM     11  H5  <0> d          -1.751   1.202   1.275  0.00  0.00     0.042 H 
BRANCH   9  12
ATOM     12  C1  <0> d          -0.013   1.086   0.008  0.00  0.00    -0.071 C 
ATOM     13  H1  <0> d           0.002  -0.004   0.002  0.00  0.00     0.028 H 
ATOM     14  H2  <0> d           1.010   1.463   0.000  0.00  0.00     0.028 H 
ATOM     15  H3  <0> d          -0.540   1.447  -0.875  0.00  0.00     0.028 H 
ENDBRANCH   9  12
ENDBRANCH   1   9
BRANCH   5  16
ATOM     16  C8  <0> d          -0.310  -1.829   4.416  0.00  0.00    -0.031 C 
ATOM     17  H8  <0> d          -1.117  -1.680   5.133  0.00  0.00     0.036 H 
ATOM     18  H9  <0> d          -0.680  -2.402   3.566  0.00  0.00     0.036 H 
ATOM     19  H10 <0> d           0.504  -2.374   4.894  0.00  0.00     0.036 H 
ENDBRANCH   5  16
BRANCH   3  20
ATOM     20  C9  <0> d           2.776   2.121   4.834  0.00  0.00    -0.051 C 
ATOM     21  H11 <0> d           2.359   2.776   5.598  0.00  0.00     0.033 H 
ATOM     22  H12 <0> d           3.468   1.417   5.296  0.00  0.00     0.033 H 
ATOM     23  H13 <0> d           3.308   2.719   4.093  0.00  0.00     0.033 H 
ENDBRANCH   3  20
TORSDOF 4
