REMARK  4 active torsions:
REMARK  status: ('A' for Active; 'I' for Inactive)
REMARK    1  A    between atoms: C1_1  and  O1_2 
REMARK    2  A    between atoms: O1_2  and  C2_3 
REMARK    3  A    between atoms: C4_5  and  O2_10 
REMARK    4  A    between atoms: C7_8  and  N1_9 
ROOT
ATOM      1  C2  <0> d           1.159   3.178   0.008  0.00  0.00     0.097 A 
ATOM      2  C3  <0> d          -0.052   3.851   0.022  0.00  0.00    -0.017 A 
ATOM      3  C4  <0> d          -1.241   3.137   0.030  0.00  0.00     0.068 A 
ATOM      4  C5  <0> d          -1.219   1.750   0.017  0.00  0.00    -0.049 A 
ATOM      5  C6  <0> d          -0.013   1.076   0.008  0.00  0.00    -0.052 A 
ATOM      6  C7  <0> d           1.179   1.785   0.000  0.00  0.00     0.059 A 
ATOM      7  H4  <0> d          -0.070   4.930   0.028  0.00  0.00     0.092 H 
ATOM      8  H5  <0> d          -2.146   1.196   0.019  0.00  0.00     0.087 H 
ATOM      9  H6  <0> d           0.002  -0.004   0.002  0.00  0.00     0.087 H 
ENDROOT
BRANCH   1  10
ATOM     10  O1  <0> d           2.326   3.876   0.001  0.00  0.00    -0.354 OA
BRANCH  10  11
ATOM     11  C1  <0> d           2.229   5.302   0.009  0.00  0.00     0.010 C 
ATOM     12  H1  <0> d           1.700   5.625   0.905  0.00  0.00     0.066 H 
ATOM     13  H2  <0> d           3.230   5.734   0.002  0.00  0.00     0.066 H 
ATOM     14  H3  <0> d           1.684   5.634  -0.875  0.00  0.00     0.066 H 
ENDBRANCH  10  11
ENDBRANCH   1  10
BRANCH   6  15
ATOM     15  N1  <0> d           2.403   1.101  -0.015  0.00  0.00    -0.397 N 
ATOM     16  H7  <0> d           2.417   0.131  -0.020  0.00  0.00     0.156 HD
ATOM     17  H8  <0> d           3.236   1.598  -0.020  0.00  0.00     0.156 HD
ENDBRANCH   6  15
BRANCH   3  18
ATOM     18  O2  <0> d          -2.429   3.798   0.044  0.00  0.00    -0.361 OA
ATOM     19  H9  <0> d          -2.781   3.993  -0.836  0.00  0.00     0.217 HD
ENDBRANCH   3  18
TORSDOF 4
