REMARK  5 active torsions:
REMARK  status: ('A' for Active; 'I' for Inactive)
REMARK    1  A    between atoms: C1_1  and  C2_2 
REMARK    2  A    between atoms: C4_4  and  C6_9 
REMARK    3  A    between atoms: C5_6  and  N3_8 
REMARK    4  A    between atoms: C6_9  and  O1_10 
REMARK    5  A    between atoms: O1_10  and  C7_11 
ROOT
ATOM      1  C2  <0> d           2.303  -0.052  -0.020  0.00  0.00     0.051 A 
ATOM      2  C3  <0> d           2.321   1.334  -0.013  0.00  0.00    -0.032 A 
ATOM      3  C4  <0> d           1.112   2.012   0.002  0.00  0.00     0.079 A 
ATOM      4  N1  <0> d          -0.016   1.321   0.009  0.00  0.00    -0.066 NA
ATOM      5  C5  <0> d           0.002  -0.004   0.002  0.00  0.00     0.720 A 
ATOM      6  N2  <0> d           1.140  -0.682  -0.013  0.00  0.00    -0.068 NA
ATOM      7  H4  <0> d           3.256   1.874  -0.019  0.00  0.00     0.089 H 
ENDROOT
BRANCH   3   8
ATOM      8  C6  <0> d           1.082   3.519   0.010  0.00  0.00     0.059 C 
ATOM      9  H7  <0> d           0.553   3.877  -0.873  0.00  0.00     0.084 H 
ATOM     10  H8  <0> d           0.570   3.868   0.907  0.00  0.00     0.084 H 
BRANCH   8  11
ATOM     11  O1  <0> d           2.420   4.021   0.000  0.00  0.00    -0.390 OA
BRANCH  11  12
ATOM     12  C7  <0> d           2.505   5.448   0.007  0.00  0.00     0.004 C 
ATOM     13  H9  <0> d           2.022   5.837   0.903  0.00  0.00     0.066 H 
ATOM     14  H10 <0> d           3.553   5.750  -0.002  0.00  0.00     0.066 H 
ATOM     15  H11 <0> d           2.006   5.846  -0.877  0.00  0.00     0.066 H 
ENDBRANCH  11  12
ENDBRANCH   8  11
ENDBRANCH   3   8
BRANCH   1  16
ATOM     16  C1  <0> d           3.593  -0.831  -0.036  0.00  0.00    -0.035 C 
ATOM     17  H1  <0> d           3.894  -1.013  -1.068  0.00  0.00     0.035 H 
ATOM     18  H2  <0> d           4.369  -0.259   0.473  0.00  0.00     0.035 H 
ATOM     19  H3  <0> d           3.449  -1.783   0.474  0.00  0.00     0.035 H 
ENDBRANCH   1  16
BRANCH   5  20
ATOM     20  N3  <0> d          -1.197  -0.696   0.010  0.00  0.00    -0.231 N 
ATOM     21  H5  <0> d          -2.037  -0.211   0.021  0.00  0.00     0.174 HD
ATOM     22  H6  <0> d          -1.197  -1.666   0.005  0.00  0.00     0.174 HD
ENDBRANCH   5  20
TORSDOF 5
