REMARK  5 active torsions:
REMARK  status: ('A' for Active; 'I' for Inactive)
REMARK    1  A    between atoms: C1_1  and  O1_2 
REMARK    2  A    between atoms: O1_2  and  C2_3 
REMARK    3  A    between atoms: C6_7  and  O2_10 
REMARK    4  A    between atoms: C7_8  and  N1_9 
REMARK    5  A    between atoms: O2_10  and  C8_11 
ROOT
ATOM      1  C2  <0> d          -1.257   3.042   0.030  0.00  0.00     0.097 A 
ATOM      2  C3  <0> d          -2.469   3.714   0.035  0.00  0.00    -0.048 A 
ATOM      3  C4  <0> d          -3.655   3.004   0.037  0.00  0.00    -0.078 A 
ATOM      4  C5  <0> d          -3.639   1.622   0.029  0.00  0.00    -0.048 A 
ATOM      5  C6  <0> d          -2.432   0.941   0.019  0.00  0.00     0.097 A 
ATOM      6  C7  <0> d          -1.235   1.651   0.017  0.00  0.00     0.093 A 
ATOM      7  H4  <0> d          -2.486   4.794   0.041  0.00  0.00     0.087 H 
ATOM      8  H5  <0> d          -4.598   3.532   0.045  0.00  0.00     0.083 H 
ATOM      9  H6  <0> d          -4.569   1.072   0.030  0.00  0.00     0.087 H 
ENDROOT
BRANCH   1  10
ATOM     10  O1  <0> d          -0.090   3.741   0.034  0.00  0.00    -0.354 OA
BRANCH  10  11
ATOM     11  C1  <0> d          -0.188   5.166   0.048  0.00  0.00     0.010 C 
ATOM     12  H1  <0> d          -0.728   5.502  -0.837  0.00  0.00     0.066 H 
ATOM     13  H2  <0> d          -0.723   5.485   0.943  0.00  0.00     0.066 H 
ATOM     14  H3  <0> d           0.812   5.599   0.049  0.00  0.00     0.066 H 
ENDBRANCH  10  11
ENDBRANCH   1  10
BRANCH   6  15
ATOM     15  N1  <0> d          -0.011   0.966   0.007  0.00  0.00    -0.395 N 
ATOM     16  H7  <0> d           0.002  -0.004   0.002  0.00  0.00     0.156 HD
ATOM     17  H8  <0> d           0.822   1.462   0.002  0.00  0.00     0.156 HD
ENDBRANCH   6  15
BRANCH   5  18
ATOM     18  O2  <0> d          -2.417  -0.419   0.010  0.00  0.00    -0.354 OA
BRANCH  18  19
ATOM     19  C8  <0> d          -3.683  -1.082   0.013  0.00  0.00     0.010 C 
ATOM     20  H9  <0> d          -3.529  -2.161   0.005  0.00  0.00     0.066 H 
ATOM     21  H10 <0> d          -4.239  -0.800   0.907  0.00  0.00     0.066 H 
ATOM     22  H11 <0> d          -4.248  -0.789  -0.873  0.00  0.00     0.066 H 
ENDBRANCH  18  19
ENDBRANCH   5  18
TORSDOF 5
