REMARK  1 active torsions:
REMARK  status: ('A' for Active; 'I' for Inactive)
REMARK    1  A    between atoms: C3_3  and  N2_8 
ROOT
ATOM      1  C1  <0> d           1.095   2.029   0.003  0.00  0.00     0.041 A 
ATOM      2  C2  <0> d           2.332   1.414  -0.013  0.00  0.00     0.163 A 
ATOM      3  C3  <0> d           2.395   0.020  -0.021  0.00  0.00     0.106 A 
ATOM      4  C4  <0> d           1.197  -0.696  -0.013  0.00  0.00     0.163 A 
ATOM      5  C5  <0> d           0.002  -0.004   0.002  0.00  0.00     0.041 A 
ATOM      6  N1  <0> d          -0.016   1.316   0.009  0.00  0.00    -0.267 NA
ATOM      7  F1  <0> d           1.207  -2.047  -0.021  0.00  0.00    -0.202 F 
ATOM      8  F2  <0> d           3.463   2.151  -0.019  0.00  0.00    -0.202 F 
ATOM      9  H1  <0> d           1.036   3.107   0.009  0.00  0.00     0.119 H 
ATOM     10  H2  <0> d          -0.930  -0.550   0.008  0.00  0.00     0.119 H 
ENDROOT
BRANCH   3  11
ATOM     11  N2  <0> d           3.624  -0.641  -0.035  0.00  0.00    -0.394 N 
ATOM     12  H3  <0> d           3.653  -1.610  -0.041  0.00  0.00     0.156 HD
ATOM     13  H4  <0> d           4.449  -0.130  -0.041  0.00  0.00     0.156 HD
ENDBRANCH   3  11
TORSDOF 1
