REMARK  4 active torsions:
REMARK  status: ('A' for Active; 'I' for Inactive)
REMARK    1  A    between atoms: C1_1  and  C2_2 
REMARK    2  A    between atoms: C1_1  and  O3_7 
REMARK    3  A    between atoms: C2_2  and  C3_4 
REMARK    4  A    between atoms: C2_2  and  O2_6 
ROOT
ATOM      1  C2  <0> d           1.145   3.085   0.008  0.00  0.00     0.139 C 
ATOM      2  H1  <0> d           0.532   3.388   0.857  0.00  0.00     0.103 H 
ENDROOT
BRANCH   1   3
ATOM      3  C1  <0> d           1.286   1.562  -0.002  0.00  0.00     0.050 C 
ATOM      4  H2  <0> d           1.840   1.243   0.881  0.00  0.00     0.078 H 
ATOM      5  H3  <0> d           1.823   1.252  -0.899  0.00  0.00     0.078 H 
BRANCH   3   6
ATOM      6  O3  <0> d          -0.011   0.963   0.007  0.00  0.00    -0.398 OA
ATOM      7  H5  <0> d           0.002  -0.004   0.002  0.00  0.00     0.209 HD
ENDBRANCH   3   6
ENDBRANCH   1   3
BRANCH   1   8
ATOM      8  C3  <0> d           2.509   3.716   0.122  0.00  0.00     0.205 C 
ATOM      9  O1  <0> d           2.944   4.383  -0.787  0.00  0.00    -0.646 OA
ATOM     10  O4  <0> d           3.240   3.536   1.233  0.00  0.00    -0.646 OA
ENDBRANCH   1   8
BRANCH   1  11
ATOM     11  O2  <0> d           0.522   3.513  -1.205  0.00  0.00    -0.383 OA
ATOM     12  H4  <0> d           1.013   3.277  -2.004  0.00  0.00     0.210 HD
ENDBRANCH   1  11
TORSDOF 4
