REMARK  3 active torsions:
REMARK  status: ('A' for Active; 'I' for Inactive)
REMARK    1  A    between atoms: C1_1  and  C2_2 
REMARK    2  A    between atoms: C2_2  and  O2_10 
REMARK    3  A    between atoms: C7_7  and  O1_9 
ROOT
ATOM      1  C2  <0> d           1.286   1.562  -0.002  0.00  0.00     0.080 C 
ATOM      2  C3  <0> d           2.040   1.127  -1.261  0.00  0.00    -0.034 C 
ATOM      3  C4  <0> d           1.262   1.575  -2.500  0.00  0.00    -0.062 C 
ATOM      4  C5  <0> d           1.121   3.099  -2.491  0.00  0.00    -0.063 C 
ATOM      5  C6  <0> d           0.368   3.533  -1.232  0.00  0.00    -0.038 C 
ATOM      6  C7  <0> d           1.145   3.085   0.008  0.00  0.00     0.065 C 
ATOM      7  H1  <0> d           2.135   3.542   0.001  0.00  0.00     0.087 H 
ATOM      8  H5  <0> d           3.029   1.584  -1.268  0.00  0.00     0.037 H 
ATOM      9  H6  <0> d           2.140   0.042  -1.268  0.00  0.00     0.037 H 
ATOM     10  H7  <0> d           0.273   1.118  -2.493  0.00  0.00     0.033 H 
ATOM     11  H8  <0> d           1.799   1.266  -3.397  0.00  0.00     0.033 H 
ATOM     12  H9  <0> d           0.567   3.418  -3.374  0.00  0.00     0.033 H 
ATOM     13  H10 <0> d           2.111   3.555  -2.498  0.00  0.00     0.033 H 
ATOM     14  H11 <0> d          -0.622   3.076  -1.225  0.00  0.00     0.036 H 
ATOM     15  H12 <0> d           0.267   4.618  -1.225  0.00  0.00     0.036 H 
ENDROOT
BRANCH   1  16
ATOM     16  C1  <0> d           2.064   1.114   1.238  0.00  0.00    -0.045 C 
ATOM     17  H2  <0> d           2.164   0.029   1.231  0.00  0.00     0.031 H 
ATOM     18  H3  <0> d           3.053   1.571   1.231  0.00  0.00     0.031 H 
ATOM     19  H4  <0> d           1.527   1.423   2.135  0.00  0.00     0.031 H 
ENDBRANCH   1  16
BRANCH   1  20
ATOM     20  O2  <0> d          -0.011   0.963   0.007  0.00  0.00    -0.388 OA
ATOM     21  H14 <0> d           0.002  -0.004   0.002  0.00  0.00     0.210 HD
ENDBRANCH   1  20
BRANCH   6  22
ATOM     22  O1  <0> d           0.441   3.491   1.183  0.00  0.00    -0.393 OA
ATOM     23  H13 <0> d           0.315   4.447   1.256  0.00  0.00     0.210 HD
ENDBRANCH   6  22
TORSDOF 3
