REMARK  4 active torsions:
REMARK  status: ('A' for Active; 'I' for Inactive)
REMARK    1  A    between atoms: C1_1  and  C2_2 
REMARK    2  A    between atoms: C5_6  and  C8_12 
REMARK    3  A    between atoms: C7_9  and  O1_11 
REMARK    4  A    between atoms: C8_12  and  C10_14 
ROOT
ATOM      1  C2  <0> d          -0.753   1.593  -1.232  0.00  0.00    -0.033 C 
ATOM      2  H1  <0> d          -1.775   1.215  -1.224  0.00  0.00     0.043 H 
ATOM      3  C3  <0> d          -0.773   3.123  -1.223  0.00  0.00    -0.059 C 
ATOM      4  C4  <0> d          -1.490   3.616   0.036  0.00  0.00    -0.058 C 
ATOM      5  C5  <0> d          -0.750   3.109   1.275  0.00  0.00    -0.031 C 
ATOM      6  H2  <0> d           0.273   3.486   1.268  0.00  0.00     0.047 H 
ATOM      7  C6  <0> d          -0.729   1.579   1.267  0.00  0.00    -0.034 C 
ATOM      8  C7  <0> d          -0.013   1.086   0.008  0.00  0.00     0.039 C 
ATOM      9  H3  <0> d           0.002  -0.004   0.002  0.00  0.00     0.083 H 
ATOM     10  H7  <0> d           0.249   3.500  -1.231  0.00  0.00     0.033 H 
ATOM     11  H8  <0> d          -1.301   3.484  -2.106  0.00  0.00     0.033 H 
ATOM     12  H9  <0> d          -1.504   4.706   0.042  0.00  0.00     0.034 H 
ATOM     13  H10 <0> d          -2.512   3.239   0.043  0.00  0.00     0.034 H 
ATOM     14  H11 <0> d          -1.751   1.202   1.275  0.00  0.00     0.037 H 
ATOM     15  H12 <0> d          -0.202   1.218   2.150  0.00  0.00     0.037 H 
ENDROOT
BRANCH   5  16
ATOM     16  C8  <0> d          -1.455   3.595   2.515  0.00  0.00    -0.089 C 
ATOM     17  C9  <0> d          -0.820   4.352   3.376  0.00  0.00    -0.119 C 
ATOM     18  H14 <0> d           0.208   4.628   3.196  0.00  0.00     0.067 H 
ATOM     19  H15 <0> d          -1.326   4.700   4.264  0.00  0.00     0.067 H 
BRANCH  16  20
ATOM     20  C10 <0> d          -2.890   3.210   2.765  0.00  0.00    -0.055 C 
ATOM     21  H16 <0> d          -2.924   2.280   3.332  0.00  0.00     0.033 H 
ATOM     22  H17 <0> d          -3.385   3.999   3.333  0.00  0.00     0.033 H 
ATOM     23  H18 <0> d          -3.401   3.074   1.812  0.00  0.00     0.033 H 
ENDBRANCH  16  20
ENDBRANCH   5  16
BRANCH   8  24
ATOM     24  O1  <0> d           1.328   1.580  -0.002  0.00  0.00    -0.395 OA
ATOM     25  H13 <0> d           1.857   1.298   0.756  0.00  0.00     0.210 HD
ENDBRANCH   8  24
BRANCH   1  26
ATOM     26  C1  <0> d          -0.037   1.099  -2.490  0.00  0.00    -0.071 C 
ATOM     27  H4  <0> d          -0.022   0.009  -2.496  0.00  0.00     0.028 H 
ATOM     28  H5  <0> d          -0.564   1.460  -3.373  0.00  0.00     0.028 H 
ATOM     29  H6  <0> d           0.986   1.476  -2.498  0.00  0.00     0.028 H 
ENDBRANCH   1  26
TORSDOF 4
