REMARK  1 active torsions:
REMARK  status: ('A' for Active; 'I' for Inactive)
REMARK    1  A    between atoms: C6_6  and  N3_11 
ROOT
ATOM      1  C1  <0> d           1.193   1.769   0.000  0.00  0.00    -0.065 A 
ATOM      2  C2  <0> d           1.192   3.137   0.007  0.00  0.00    -0.068 A 
ATOM      3  C3  <0> d          -0.047   3.798   0.022  0.00  0.00     0.012 A 
ATOM      4  C4  <0> d          -0.128   5.205   0.030  0.00  0.00    -0.066 A 
ATOM      5  C5  <0> d          -1.363   5.780   0.045  0.00  0.00    -0.038 A 
ATOM      6  C6  <0> d          -2.508   4.970   0.051  0.00  0.00     0.123 A 
ATOM      7  N1  <0> d          -2.424   3.655   0.043  0.00  0.00    -0.211 NA
ATOM      8  C7  <0> d          -1.240   3.033   0.029  0.00  0.00     0.161 A 
ATOM      9  N2  <0> d          -1.168   1.698   0.017  0.00  0.00    -0.241 NA
ATOM     10  C8  <0> d          -0.013   1.076   0.008  0.00  0.00     0.005 A 
ATOM     11  H1  <0> d           2.128   1.228  -0.012  0.00  0.00     0.085 H 
ATOM     12  H2  <0> d           2.118   3.693   0.002  0.00  0.00     0.085 H 
ATOM     13  H3  <0> d           0.766   5.811   0.025  0.00  0.00     0.085 H 
ATOM     14  H4  <0> d          -1.460   6.855   0.051  0.00  0.00     0.089 H 
ATOM     15  H5  <0> d           0.002  -0.004   0.002  0.00  0.00     0.114 H 
ENDROOT
BRANCH   6  16
ATOM     16  N3  <0> d          -3.758   5.567   0.066  0.00  0.00    -0.384 N 
ATOM     17  H6  <0> d          -4.558   5.018   0.070  0.00  0.00     0.157 HD
ATOM     18  H7  <0> d          -3.834   6.534   0.071  0.00  0.00     0.157 HD
ENDBRANCH   6  16
TORSDOF 1
