REMARK  2 active torsions:
REMARK  status: ('A' for Active; 'I' for Inactive)
REMARK    1  A    between atoms: C1_1  and  C2_2 
REMARK    2  A    between atoms: C2_2  and  C8_9 
ROOT
ATOM      1  C2  <0> d          -0.019   1.528   0.010  0.00  0.00     0.013 C 
ATOM      2  C3  <0> d           0.002  -0.004   0.002  0.00  0.00    -0.052 C 
ATOM      3  C4  <0> d           0.833  -0.494  -1.185  0.00  0.00    -0.064 C 
ATOM      4  C5  <0> d           2.286  -0.044  -1.022  0.00  0.00    -0.059 C 
ATOM      5  C6  <0> d           2.351   1.486  -1.053  0.00  0.00    -0.009 C 
ATOM      6  C7  <0> d           1.409   2.028  -0.001  0.00  0.00     0.134 C 
ATOM      7  O1  <0> d           1.787   2.840   0.810  0.00  0.00    -0.297 OA
ATOM      8  H4  <0> d           0.444  -0.367   0.930  0.00  0.00     0.034 H 
ATOM      9  H5  <0> d          -1.017  -0.381  -0.087  0.00  0.00     0.034 H 
ATOM     10  H6  <0> d           0.793  -1.583  -1.230  0.00  0.00     0.033 H 
ATOM     11  H7  <0> d           0.427  -0.079  -2.107  0.00  0.00     0.033 H 
ATOM     12  H8  <0> d           2.674  -0.406  -0.070  0.00  0.00     0.033 H 
ATOM     13  H9  <0> d           2.885  -0.450  -1.837  0.00  0.00     0.033 H 
ATOM     14  H10 <0> d           3.286   1.784  -0.860  0.00  0.00     0.044 H 
ATOM     15  H11 <0> d           2.051   1.846  -2.037  0.00  0.00     0.044 H 
ENDROOT
BRANCH   1  16
ATOM     16  C1  <0> d          -0.752   2.039  -1.232  0.00  0.00    -0.063 C 
ATOM     17  H1  <0> d          -1.775   1.663  -1.230  0.00  0.00     0.029 H 
ATOM     18  H2  <0> d          -0.765   3.129  -1.223  0.00  0.00     0.029 H 
ATOM     19  H3  <0> d          -0.238   1.689  -2.127  0.00  0.00     0.029 H 
ENDBRANCH   1  16
BRANCH   1  20
ATOM     20  C8  <0> d          -0.728   2.026   1.272  0.00  0.00    -0.063 C 
ATOM     21  H12 <0> d          -0.197   1.666   2.153  0.00  0.00     0.029 H 
ATOM     22  H13 <0> d          -0.741   3.115   1.275  0.00  0.00     0.029 H 
ATOM     23  H14 <0> d          -1.751   1.649   1.285  0.00  0.00     0.029 H 
ENDBRANCH   1  20
TORSDOF 2
