REMARK  3 active torsions:
REMARK  status: ('A' for Active; 'I' for Inactive)
REMARK    1  A    between atoms: C1_1  and  C2_2 
REMARK    2  A    between atoms: C2_2  and  N1_3 
REMARK    3  A    between atoms: N1_3  and  C3_4 
ROOT
ATOM      1  C3  <0> d           1.216  -0.685  -0.013  0.00  0.00     0.028 A 
ATOM      2  C4  <0> d           0.002  -0.004   0.002  0.00  0.00    -0.056 A 
ATOM      3  C5  <0> d          -0.017   1.372   0.010  0.00  0.00    -0.061 A 
ATOM      4  C6  <0> d           1.185   2.086   0.002  0.00  0.00     0.044 A 
ATOM      5  C7  <0> d           2.403   1.399  -0.013  0.00  0.00    -0.061 A 
ATOM      6  C8  <0> d           2.414   0.022  -0.020  0.00  0.00    -0.056 A 
ATOM      7  C9  <0> d           1.170   3.518   0.010  0.00  0.00     0.099 C 
ATOM      8  N2  <0> d           1.157   4.654   0.016  0.00  0.00    -0.191 NA
ATOM      9  H7  <0> d          -0.926  -0.556   0.008  0.00  0.00     0.087 H 
ATOM     10  H8  <0> d          -0.959   1.900   0.017  0.00  0.00     0.085 H 
ATOM     11  H9  <0> d           3.333   1.947  -0.019  0.00  0.00     0.085 H 
ATOM     12  H10 <0> d           3.354  -0.509  -0.031  0.00  0.00     0.087 H 
ENDROOT
BRANCH   1  13
ATOM     13  N1  <0> d           1.231  -2.077  -0.020  0.00  0.00    -0.390 N 
ATOM     14  H6  <0> d           0.284  -2.637  -0.014  0.00  0.00     0.159 HD
BRANCH  13  15
ATOM     15  C2  <0> d           2.508  -2.795  -0.035  0.00  0.00    -0.011 C 
ATOM     16  H4  <0> d           3.090  -2.528   0.859  0.00  0.00     0.063 H 
ATOM     17  H5  <0> d           3.073  -2.519  -0.938  0.00  0.00     0.063 H 
BRANCH  15  18
ATOM     18  C1  <0> d           2.244  -4.303  -0.041  0.00  0.00    -0.061 C 
ATOM     19  H1  <0> d           3.203  -4.842  -0.052  0.00  0.00     0.029 H 
ATOM     20  H2  <0> d           1.662  -4.570  -0.935  0.00  0.00     0.029 H 
ATOM     21  H3  <0> d           1.679  -4.579   0.862  0.00  0.00     0.029 H 
ENDBRANCH  15  18
ENDBRANCH  13  15
ENDBRANCH   1  13
TORSDOF 3
