REMARK  4 active torsions:
REMARK  status: ('A' for Active; 'I' for Inactive)
REMARK    1  A    between atoms: C1_1  and  C2_2 
REMARK    2  A    between atoms: C5_7  and  C7_10 
REMARK    3  A    between atoms: C8_11  and  C9_12 
REMARK    4  A    between atoms: C8_11  and  C10_13 
ROOT
ATOM      1  C2  <0> d           0.525   2.809   0.646  0.00  0.00    -0.053 C 
ATOM      2  H1  <0> d           0.929   2.581   1.633  0.00  0.00     0.039 H 
ATOM      3  C3  <0> d           1.581   2.508  -0.422  0.00  0.00    -0.042 C 
ATOM      4  C4  <0> d           1.906   1.012  -0.400  0.00  0.00     0.021 C 
ATOM      5  O1  <0> d           0.709   0.263  -0.618  0.00  0.00    -0.382 OA
ATOM      6  C5  <0> d          -0.297   0.468   0.376  0.00  0.00     0.055 C 
ATOM      7  H2  <0> d           0.098   0.195   1.355  0.00  0.00     0.089 H 
ATOM      8  C6  <0> d          -0.710   1.942   0.386  0.00  0.00    -0.035 C 
ATOM      9  H6  <0> d           2.485   3.080  -0.212  0.00  0.00     0.036 H 
ATOM     10  H7  <0> d           1.196   2.783  -1.404  0.00  0.00     0.036 H 
ATOM     11  H8  <0> d           2.330   0.746   0.568  0.00  0.00     0.074 H 
ATOM     12  H9  <0> d           2.625   0.785  -1.187  0.00  0.00     0.074 H 
ATOM     13  H10 <0> d          -1.143   2.206  -0.580  0.00  0.00     0.037 H 
ATOM     14  H11 <0> d          -1.445   2.110   1.173  0.00  0.00     0.037 H 
ENDROOT
BRANCH   6  15
ATOM     15  C7  <0> d          -1.497  -0.388   0.062  0.00  0.00    -0.074 C 
ATOM     16  C8  <0> d          -1.830  -1.368   0.864  0.00  0.00    -0.089 C 
ATOM     17  H12 <0> d          -2.082  -0.193  -0.825  0.00  0.00     0.081 H 
BRANCH  16  18
ATOM     18  C9  <0> d          -0.938  -1.729   2.024  0.00  0.00    -0.055 C 
ATOM     19  H13 <0> d          -1.175  -1.093   2.876  0.00  0.00     0.033 H 
ATOM     20  H14 <0> d          -1.098  -2.773   2.294  0.00  0.00     0.033 H 
ATOM     21  H15 <0> d           0.104  -1.583   1.740  0.00  0.00     0.033 H 
ENDBRANCH  16  18
BRANCH  16  22
ATOM     22  C10 <0> d          -3.106  -2.135   0.627  0.00  0.00    -0.055 C 
ATOM     23  H16 <0> d          -3.613  -1.734  -0.250  0.00  0.00     0.033 H 
ATOM     24  H17 <0> d          -2.872  -3.187   0.462  0.00  0.00     0.033 H 
ATOM     25  H18 <0> d          -3.754  -2.039   1.498  0.00  0.00     0.033 H 
ENDBRANCH  16  22
ENDBRANCH   6  15
BRANCH   1  26
ATOM     26  C1  <0> d           0.137   4.288   0.579  0.00  0.00    -0.073 C 
ATOM     27  H3  <0> d          -0.620   4.499   1.335  0.00  0.00     0.028 H 
ATOM     28  H4  <0> d           1.017   4.903   0.765  0.00  0.00     0.028 H 
ATOM     29  H5  <0> d          -0.263   4.514  -0.409  0.00  0.00     0.028 H 
ENDBRANCH   1  26
TORSDOF 4
