REMARK  5 active torsions:
REMARK  status: ('A' for Active; 'I' for Inactive)
REMARK    1  A    between atoms: C1_1  and  C2_2 
REMARK    2  A    between atoms: C2_2  and  C3_3 
REMARK    3  A    between atoms: C3_3  and  C4_4 
REMARK    4  A    between atoms: C3_3  and  C6_6 
REMARK    5  A    between atoms: C4_4  and  C5_5 
ROOT
ATOM      1  C3  <0> d           0.707  -0.490  -1.238  0.00  0.00    -0.007 C 
ENDROOT
BRANCH   1   2
ATOM      2  C2  <0> d           0.002  -0.004   0.002  0.00  0.00    -0.037 C 
ATOM      3  H4  <0> d           0.529  -0.365   0.885  0.00  0.00     0.040 H 
ATOM      4  H5  <0> d          -1.020  -0.381   0.010  0.00  0.00     0.040 H 
BRANCH   2   5
ATOM      5  C1  <0> d          -0.019   1.526   0.010  0.00  0.00    -0.072 C 
ATOM      6  H1  <0> d           1.004   1.903   0.003  0.00  0.00     0.028 H 
ATOM      7  H2  <0> d          -0.546   1.887  -0.873  0.00  0.00     0.028 H 
ATOM      8  H3  <0> d          -0.529   1.877   0.907  0.00  0.00     0.028 H 
ENDBRANCH   2   5
ENDBRANCH   1   2
BRANCH   1   9
ATOM      9  C4  <0> d           1.980  -0.784  -1.193  0.00  0.00    -0.147 C 
BRANCH   9  10
ATOM     10  C5  <0> d           3.253  -1.078  -1.148  0.00  0.00    -0.007 C 
ATOM     11  H6  <0> d           3.990  -0.317  -1.355  0.00  0.00     0.052 H 
ATOM     12  H7  <0> d           3.567  -2.082  -0.904  0.00  0.00     0.052 H 
ENDBRANCH   9  10
ENDBRANCH   1   9
BRANCH   1  13
ATOM     13  C6  <0> d           0.005  -0.626  -2.429  0.00  0.00    -0.022 A 
ATOM     14  C11 <0> d           0.660  -1.082  -3.597  0.00  0.00    -0.072 A 
ATOM     15  C10 <0> d          -0.044  -1.215  -4.758  0.00  0.00    -0.082 A 
ATOM     16  H12 <0> d           1.712  -1.327  -3.569  0.00  0.00     0.084 H 
ATOM     17  C9  <0> d          -1.394  -0.896  -4.800  0.00  0.00    -0.083 A 
ATOM     18  H11 <0> d           0.452  -1.567  -5.651  0.00  0.00     0.083 H 
ATOM     19  C8  <0> d          -2.049  -0.442  -3.663  0.00  0.00    -0.082 A 
ATOM     20  H10 <0> d          -1.940  -1.002  -5.725  0.00  0.00     0.083 H 
ATOM     21  C7  <0> d          -1.372  -0.304  -2.487  0.00  0.00    -0.072 A 
ATOM     22  H9  <0> d          -3.100  -0.198  -3.711  0.00  0.00     0.083 H 
ATOM     23  H8  <0> d          -1.885   0.049  -1.604  0.00  0.00     0.084 H 
ENDBRANCH   1  13
TORSDOF 5
