REMARK  4 active torsions:
REMARK  status: ('A' for Active; 'I' for Inactive)
REMARK    1  A    between atoms: C1_1  and  C2_2 
REMARK    2  A    between atoms: C2_2  and  N1_3 
REMARK    3  A    between atoms: C5_7  and  C7_11 
REMARK    4  A    between atoms: C6_9  and  N3_10 
ROOT
ATOM      1  N1  <0> d           1.138   1.920   0.002  0.00  0.00    -0.146 N 
ATOM      2  C3  <0> d          -0.015   1.216   0.009  0.00  0.00     0.263 A 
ATOM      3  O1  <0> d           0.002  -0.004   0.002  0.00  0.00    -0.267 OA
ATOM      4  C4  <0> d          -1.234   1.916   0.018  0.00  0.00     0.007 A 
ATOM      5  C5  <0> d          -1.211   3.280   0.031  0.00  0.00     0.055 A 
ATOM      6  N2  <0> d          -0.049   3.929   0.024  0.00  0.00    -0.070 NA
ATOM      7  C6  <0> d           1.099   3.280   0.009  0.00  0.00     0.703 A 
ATOM      8  H6  <0> d          -2.173   1.383   0.020  0.00  0.00     0.095 H 
ENDROOT
BRANCH   1   9
ATOM      9  C2  <0> d           2.425   1.221  -0.014  0.00  0.00     0.017 C 
ATOM     10  H4  <0> d           2.325   0.254   0.500  0.00  0.00     0.065 H 
ATOM     11  H5  <0> d           3.181   1.833   0.500  0.00  0.00     0.065 H 
BRANCH   9  12
ATOM     12  C1  <0> d           2.860   0.986  -1.462  0.00  0.00    -0.060 C 
ATOM     13  H1  <0> d           3.827   0.461  -1.474  0.00  0.00     0.029 H 
ATOM     14  H2  <0> d           2.961   1.952  -1.977  0.00  0.00     0.029 H 
ATOM     15  H3  <0> d           2.105   0.373  -1.977  0.00  0.00     0.029 H 
ENDBRANCH   9  12
ENDBRANCH   1   9
BRANCH   7  16
ATOM     16  N3  <0> d           2.271   3.986   0.002  0.00  0.00    -0.232 N 
ATOM     17  H7  <0> d           2.251   5.086   0.008  0.00  0.00     0.174 HD
ATOM     18  H8  <0> d           3.234   3.454  -0.009  0.00  0.00     0.174 HD
ENDBRANCH   7  16
BRANCH   5  19
ATOM     19  C7  <0> d          -2.504   4.054   0.048  0.00  0.00    -0.035 C 
ATOM     20  H9  <0> d          -2.286   5.133   0.057  0.00  0.00     0.035 H 
ATOM     21  H10 <0> d          -3.078   3.789   0.948  0.00  0.00     0.035 H 
ATOM     22  H11 <0> d          -3.091   3.807  -0.848  0.00  0.00     0.035 H 
ENDBRANCH   5  19
TORSDOF 4
