REMARK  0 active torsions:
REMARK  status: ('A' for Active; 'I' for Inactive)
ROOT
ATOM      1  C1  <0> d           0.002  -0.004   0.002  0.00  0.00    -0.034 A 
ATOM      2  C2  <0> d           1.200  -0.651  -0.013  0.00  0.00    -0.038 A 
ATOM      3  C3  <0> d           2.395   0.081  -0.020  0.00  0.00     0.146 A 
ATOM      4  N1  <0> d           2.382   1.389  -0.014  0.00  0.00    -0.154 NA
ATOM      5  N2  <0> d           1.172   2.089   0.002  0.00  0.00    -0.224 N 
ATOM      6  C4  <0> d          -0.017   1.403   0.010  0.00  0.00     0.150 A 
ATOM      7  N3  <0> d          -1.002   2.291   0.019  0.00  0.00    -0.240 NA
ATOM      8  C5  <0> d          -0.483   3.519   0.026  0.00  0.00     0.021 A 
ATOM      9  C6  <0> d           0.867   3.417   0.012  0.00  0.00     0.023 A 
ATOM     10 Cl1  <0> d           3.914  -0.760  -0.040  0.00  0.00    -0.061 Cl
ATOM     11  H1  <0> d          -0.922  -0.564   0.008  0.00  0.00     0.089 H 
ATOM     12  H2  <0> d           1.229  -1.731  -0.019  0.00  0.00     0.088 H 
ATOM     13  H3  <0> d          -1.045   4.441   0.036  0.00  0.00     0.117 H 
ATOM     14  H4  <0> d           1.572   4.235   0.009  0.00  0.00     0.117 H 
ENDROOT
TORSDOF 0
