REMARK  2 active torsions:
REMARK  status: ('A' for Active; 'I' for Inactive)
REMARK    1  A    between atoms: C1_1  and  C2_2 
REMARK    2  A    between atoms: C7_7  and  N1_8 
ROOT
ATOM      1  C2  <0> d          -1.190  -0.716   0.015  0.00  0.00    -0.033 A 
ATOM      2  C3  <0> d          -1.169  -2.097   0.003  0.00  0.00    -0.038 A 
ATOM      3  C4  <0> d           0.040  -2.772  -0.012  0.00  0.00     0.117 A 
ATOM      4  C5  <0> d           1.230  -2.064  -0.020  0.00  0.00    -0.043 A 
ATOM      5  C6  <0> d           1.214  -0.683  -0.013  0.00  0.00    -0.054 A 
ATOM      6  C7  <0> d           0.002  -0.004   0.002  0.00  0.00     0.031 A 
ATOM      7  F1  <0> d           0.058  -4.122  -0.020  0.00  0.00    -0.206 F 
ATOM      8  H4  <0> d          -2.096  -2.651   0.009  0.00  0.00     0.089 H 
ATOM      9  H5  <0> d           2.172  -2.592  -0.032  0.00  0.00     0.088 H 
ATOM     10  H6  <0> d           2.142  -0.132  -0.019  0.00  0.00     0.087 H 
ENDROOT
BRANCH   1  11
ATOM     11  C1  <0> d          -2.506   0.018   0.038  0.00  0.00    -0.049 C 
ATOM     12  H1  <0> d          -2.838   0.200  -0.984  0.00  0.00     0.033 H 
ATOM     13  H2  <0> d          -3.250  -0.585   0.559  0.00  0.00     0.033 H 
ATOM     14  H3  <0> d          -2.383   0.970   0.555  0.00  0.00     0.033 H 
ENDBRANCH   1  11
BRANCH   6  15
ATOM     15  N1  <0> d          -0.017   1.394   0.010  0.00  0.00    -0.399 N 
ATOM     16  H7  <0> d           0.817   1.890   0.004  0.00  0.00     0.156 HD
ATOM     17  H8  <0> d          -0.863   1.867   0.016  0.00  0.00     0.156 HD
ENDBRANCH   6  15
TORSDOF 2
