REMARK  1 active torsions:
REMARK  status: ('A' for Active; 'I' for Inactive)
REMARK    1  A    between atoms: C1_1  and  C2_2 
ROOT
ATOM      1  C2  <0> d          -0.729   1.579   1.267  0.00  0.00     0.279 C 
ATOM      2  O1  <0> d          -2.071   1.082   1.282  0.00  0.00    -0.327 OA
ATOM      3  C3  <0> d          -2.821   1.459   2.445  0.00  0.00     0.049 C 
ATOM      4  C4  <0> d          -2.082   0.975   3.699  0.00  0.00    -0.016 C 
ATOM      5  C5  <0> d          -0.648   1.520   3.659  0.00  0.00     0.049 C 
ATOM      6  O2  <0> d          -0.039   1.107   2.428  0.00  0.00    -0.327 OA
ATOM      7  C6  <0> d          -0.684   3.053   3.694  0.00  0.00    -0.016 C 
ATOM      8  C7  <0> d          -1.468   3.550   2.451  0.00  0.00     0.049 C 
ATOM      9  C8  <0> d          -2.897   2.991   2.479  0.00  0.00    -0.016 C 
ATOM     10  O3  <0> d          -0.747   3.010   1.280  0.00  0.00    -0.327 OA
ATOM     11  H4  <0> d          -3.824   1.034   2.413  0.00  0.00     0.083 H 
ATOM     12  H5  <0> d          -2.060  -0.115   3.713  0.00  0.00     0.040 H 
ATOM     13  H6  <0> d          -2.590   1.345   4.589  0.00  0.00     0.040 H 
ATOM     14  H7  <0> d          -0.078   1.138   4.506  0.00  0.00     0.083 H 
ATOM     15  H8  <0> d          -1.217   3.387   4.584  0.00  0.00     0.040 H 
ATOM     16  H9  <0> d           0.334   3.443   3.704  0.00  0.00     0.040 H 
ATOM     17  H10 <0> d          -1.492   4.639   2.409  0.00  0.00     0.083 H 
ATOM     18  H11 <0> d          -3.448   3.350   1.609  0.00  0.00     0.040 H 
ATOM     19  H12 <0> d          -3.399   3.313   3.392  0.00  0.00     0.040 H 
ENDROOT
BRANCH   1  20
ATOM     20  C1  <0> d          -0.013   1.086   0.008  0.00  0.00    -0.000 C 
ATOM     21  H1  <0> d           0.002  -0.004   0.002  0.00  0.00     0.038 H 
ATOM     22  H2  <0> d           1.010   1.463   0.000  0.00  0.00     0.038 H 
ATOM     23  H3  <0> d          -0.540   1.447  -0.875  0.00  0.00     0.038 H 
ENDBRANCH   1  20
TORSDOF 1
