REMARK  5 active torsions:
REMARK  status: ('A' for Active; 'I' for Inactive)
REMARK    1  A    between atoms: C1_1  and  N1_2 
REMARK    2  A    between atoms: N1_2  and  S1_3 
REMARK    3  A    between atoms: S1_3  and  N2_6 
REMARK    4  A    between atoms: N2_6  and  C2_7 
REMARK    5  A    between atoms: C2_7  and  C3_8 
ROOT
ATOM      1  N2  <0> d           2.335  -0.460  -1.205  0.00  0.00    -0.299 N 
ATOM      2  H5  <0> d           2.743   0.037  -1.931  0.00  0.00     0.174 HD
ENDROOT
BRANCH   1   3
ATOM      3  S1  <0> d           0.718  -0.816  -1.251  0.00  0.00     0.314 S 
ATOM      4  O1  <0> d           0.599  -2.201  -0.959  0.00  0.00    -0.183 OA
ATOM      5  O2  <0> d           0.211  -0.243  -2.449  0.00  0.00    -0.183 OA
BRANCH   3   6
ATOM      6  N1  <0> d           0.002  -0.004   0.002  0.00  0.00    -0.307 N 
ATOM      7  H4  <0> d          -0.404  -0.499   0.731  0.00  0.00     0.173 HD
BRANCH   6   8
ATOM      8  C1  <0> d          -0.018   1.461   0.010  0.00  0.00    -0.010 C 
ATOM      9  H1  <0> d           1.005   1.838   0.002  0.00  0.00     0.057 H 
ATOM     10  H2  <0> d          -0.545   1.822  -0.873  0.00  0.00     0.057 H 
ATOM     11  H3  <0> d          -0.528   1.812   0.907  0.00  0.00     0.057 H 
ENDBRANCH   6   8
ENDBRANCH   3   6
ENDBRANCH   1   3
BRANCH   1  12
ATOM     12  C2  <0> d           3.148  -0.895  -0.067  0.00  0.00     0.018 C 
ATOM     13  H6  <0> d           2.935  -0.264   0.796  0.00  0.00     0.071 H 
ATOM     14  H7  <0> d           2.911  -1.932   0.174  0.00  0.00     0.071 H 
BRANCH  12  15
ATOM     15  C3  <0> d           4.609  -0.784  -0.421  0.00  0.00    -0.095 C 
ATOM     16  C4  <0> d           5.416  -0.087   0.339  0.00  0.00    -0.123 C 
ATOM     17  H9  <0> d           5.035   0.407   1.221  0.00  0.00     0.066 H 
ATOM     18  H10 <0> d           6.463  -0.007   0.085  0.00  0.00     0.066 H 
ATOM     19  H8  <0> d           4.990  -1.278  -1.303  0.00  0.00     0.078 H 
ENDBRANCH  12  15
ENDBRANCH   1  12
TORSDOF 5
