REMARK  2 active torsions:
REMARK  status: ('A' for Active; 'I' for Inactive)
REMARK    1  A    between atoms: C1_1  and  C2_2 
REMARK    2  A    between atoms: C9_10  and  N2_12 
ROOT
ATOM      1  C2  <0> d           1.139   2.107   0.003  0.00  0.00    -0.032 A 
ATOM      2  C3  <0> d          -0.017   1.389   0.010  0.00  0.00    -0.075 A 
ATOM      3  C4  <0> d           0.002  -0.004   0.002  0.00  0.00    -0.082 A 
ATOM      4  C5  <0> d           1.180  -0.686  -0.013  0.00  0.00    -0.071 A 
ATOM      5  C6  <0> d           2.393   0.023  -0.021  0.00  0.00    -0.005 A 
ATOM      6  C7  <0> d           2.376   1.440  -0.013  0.00  0.00     0.072 A 
ATOM      7  N1  <0> d           3.526   2.123  -0.020  0.00  0.00    -0.258 NA
ATOM      8  C8  <0> d           4.685   1.514  -0.036  0.00  0.00     0.028 A 
ATOM      9  C9  <0> d           4.781   0.117  -0.044  0.00  0.00     0.044 A 
ATOM     10  C10 <0> d           3.630  -0.647  -0.037  0.00  0.00    -0.044 A 
ATOM     11  H4  <0> d          -0.964   1.907   0.017  0.00  0.00     0.084 H 
ATOM     12  H5  <0> d          -0.930  -0.550   0.008  0.00  0.00     0.083 H 
ATOM     13  H6  <0> d           1.183  -1.766  -0.018  0.00  0.00     0.084 H 
ATOM     14  H7  <0> d           5.589   2.104  -0.041  0.00  0.00     0.118 H 
ATOM     15  H8  <0> d           3.678  -1.726  -0.043  0.00  0.00     0.088 H 
ENDROOT
BRANCH   1  16
ATOM     16  C1  <0> d           1.093   3.614   0.011  0.00  0.00    -0.049 C 
ATOM     17  H1  <0> d           0.045   3.949   0.023  0.00  0.00     0.033 H 
ATOM     18  H2  <0> d           1.591   4.001  -0.890  0.00  0.00     0.033 H 
ATOM     19  H3  <0> d           1.609   3.991   0.906  0.00  0.00     0.033 H 
ENDBRANCH   1  16
BRANCH   9  20
ATOM     20  N2  <0> d           6.034  -0.501  -0.059  0.00  0.00    -0.398 N 
ATOM     21  H9  <0> d           6.106  -1.598  -0.066  0.00  0.00     0.156 HD
ATOM     22  H10 <0> d           6.949   0.111  -0.065  0.00  0.00     0.156 HD
ENDBRANCH   9  20
TORSDOF 2
