REMARK  1 active torsions:
REMARK  status: ('A' for Active; 'I' for Inactive)
REMARK    1  A    between atoms: C2_5  and  C3_7 
ROOT
ATOM      1  C1  <0> d          -0.016   1.304   0.009  0.00  0.00     0.082 A 
ATOM      2  N1  <0> d           1.256   1.739  -0.001  0.00  0.00    -0.270 N 
ATOM      3  H1  <0> d           1.556   2.661   0.002  0.00  0.00     0.190 HD
ATOM      4  N2  <0> d           2.066   0.591  -0.015  0.00  0.00    -0.149 NA
ATOM      5  C2  <0> d           1.261  -0.439  -0.012  0.00  0.00     0.254 A 
ATOM      6  N3  <0> d           0.002  -0.004   0.002  0.00  0.00    -0.217 NA
ATOM      7  H2  <0> d          -0.898   1.926   0.025  0.00  0.00     0.145 H 
ENDROOT
BRANCH   5   8
ATOM      8  C3  <0> d           1.689  -1.884  -0.025  0.00  0.00     0.454 C 
ATOM      9  F1  <0> d           1.507  -2.436   1.248  0.00  0.00    -0.163 F 
ATOM     10  F2  <0> d           0.917  -2.590  -0.954  0.00  0.00    -0.163 F 
ATOM     11  F3  <0> d           3.039  -1.968  -0.381  0.00  0.00    -0.163 F 
ENDBRANCH   5   8
TORSDOF 1
