REMARK  2 active torsions:
REMARK  status: ('A' for Active; 'I' for Inactive)
REMARK    1  A    between atoms: N1_5  and  C5_7 
REMARK    2  A    between atoms: C5_7  and  C6_8 
REMARK       I    between atoms: C6_8  and  N2_10 
ROOT
ATOM      1  C1  <0> d          -0.019   1.541   0.011  0.00  0.00    -0.042 C 
ATOM      2  C2  <0> d           1.490   1.876  -0.002  0.00  0.00     0.011 C 
ATOM      3  C3  <0> d           2.147   0.654   0.600  0.00  0.00     0.220 C 
ATOM      4  O1  <0> d           3.282   0.614   1.026  0.00  0.00    -0.273 OA
ATOM      5  N1  <0> d           1.290  -0.381   0.595  0.00  0.00    -0.343 N 
ATOM      6  C4  <0> d           0.002  -0.004   0.002  0.00  0.00    -0.001 C 
ATOM      7  H1  <0> d          -0.495   1.919   0.915  0.00  0.00     0.036 H 
ATOM      8  H2  <0> d          -0.512   1.929  -0.880  0.00  0.00     0.036 H 
ATOM      9  H3  <0> d           1.838   2.032  -1.023  0.00  0.00     0.047 H 
ATOM     10  H4  <0> d           1.690   2.757   0.609  0.00  0.00     0.047 H 
ATOM     11  H5  <0> d          -0.819  -0.396   0.603  0.00  0.00     0.064 H 
ATOM     12  H6  <0> d          -0.067  -0.377  -1.020  0.00  0.00     0.064 H 
ENDROOT
BRANCH   5  13
ATOM     13  C5  <0> d           1.603  -1.715   1.114  0.00  0.00     0.071 C 
ATOM     14  H7  <0> d           1.036  -2.463   0.559  0.00  0.00     0.079 H 
ATOM     15  H8  <0> d           2.669  -1.909   0.999  0.00  0.00     0.079 H 
BRANCH  13  16
ATOM     16  C6  <0> d           1.233  -1.786   2.573  0.00  0.00     0.233 C 
ATOM     17  O2  <0> d           0.756  -0.817   3.125  0.00  0.00    -0.272 OA
ATOM     18  N2  <0> d           1.433  -2.925   3.265  0.00  0.00    -0.369 N 
ATOM     19  H9  <0> d           1.814  -3.700   2.823  0.00  0.00     0.159 HD
ATOM     20  H10 <0> d           1.195  -2.970   4.204  0.00  0.00     0.159 HD
ENDBRANCH  13  16
ENDBRANCH   5  13
TORSDOF 2
