REMARK  1 active torsions:
REMARK  status: ('A' for Active; 'I' for Inactive)
REMARK    1  A    between atoms: C1_1  and  C2_2 
ROOT
ATOM      1  C2  <0> d           0.002  -0.004   0.002  0.00  0.00     0.044 C 
ATOM      2  H1  <0> d          -1.020  -0.382   0.010  0.00  0.00     0.083 H 
ATOM      3  C3  <0> d           0.745  -0.512   1.241  0.00  0.00    -0.040 C 
ATOM      4  C4  <0> d           0.810  -2.042   1.201  0.00  0.00    -0.054 C 
ATOM      5  C5  <0> d           1.554  -2.478  -0.067  0.00  0.00     0.016 C 
ATOM      6  C6  <0> d           0.904  -1.805  -1.256  0.00  0.00     0.259 C 
ATOM      7  O1  <0> d           0.589  -2.440  -2.234  0.00  0.00    -0.265 OA
ATOM      8  O2  <0> d           0.686  -0.475  -1.194  0.00  0.00    -0.316 OA
ATOM      9  H5  <0> d           1.756  -0.106   1.250  0.00  0.00     0.036 H 
ATOM     10  H6  <0> d           0.216  -0.193   2.139  0.00  0.00     0.036 H 
ATOM     11  H7  <0> d           1.342  -2.408   2.080  0.00  0.00     0.033 H 
ATOM     12  H8  <0> d          -0.201  -2.450   1.189  0.00  0.00     0.033 H 
ATOM     13  H9  <0> d           2.599  -2.176  -0.001  0.00  0.00     0.048 H 
ATOM     14  H10 <0> d           1.490  -3.560  -0.177  0.00  0.00     0.048 H 
ENDROOT
BRANCH   1  15
ATOM     15  C1  <0> d          -0.019   1.526   0.010  0.00  0.00    -0.052 C 
ATOM     16  H2  <0> d           1.004   1.903   0.003  0.00  0.00     0.030 H 
ATOM     17  H3  <0> d          -0.546   1.887  -0.873  0.00  0.00     0.030 H 
ATOM     18  H4  <0> d          -0.529   1.877   0.907  0.00  0.00     0.030 H 
ENDBRANCH   1  15
TORSDOF 1
