REMARK  2 active torsions:
REMARK  status: ('A' for Active; 'I' for Inactive)
REMARK    1  A    between atoms: C1_1  and  C2_2 
REMARK    2  A    between atoms: C8_9  and  C9_10 
ROOT
ATOM      1  C2  <0> d           0.002  -0.004   0.002  0.00  0.00    -0.056 A 
ATOM      2  C3  <0> d           0.004  -0.597  -1.258  0.00  0.00    -0.073 A 
ATOM      3  C4  <0> d           0.020  -1.935  -1.582  0.00  0.00    -0.031 A 
ATOM      4  C5  <0> d           0.039  -3.042  -0.715  0.00  0.00     0.208 A 
ATOM      5  O1  <0> d           0.051  -4.142  -1.252  0.00  0.00    -0.285 OA
ATOM      6  C6  <0> d           0.047  -3.044   0.703  0.00  0.00     0.157 A 
ATOM      7  C7  <0> d           0.036  -1.960   1.560  0.00  0.00    -0.037 A 
ATOM      8  C8  <0> d           0.022  -0.604   1.244  0.00  0.00    -0.053 A 
ATOM      9  O2  <0> d           0.066  -4.264   1.292  0.00  0.00    -0.188 OA
ATOM     10  H4  <0> d          -0.010   0.086  -2.095  0.00  0.00     0.084 H 
ATOM     11  H5  <0> d           0.017  -2.164  -2.637  0.00  0.00     0.089 H 
ATOM     12  H6  <0> d           0.045  -2.196   2.614  0.00  0.00     0.088 H 
ENDROOT
BRANCH   1  13
ATOM     13  C1  <0> d          -0.018   1.503   0.010  0.00  0.00    -0.051 C 
ATOM     14  H1  <0> d           1.004   1.880   0.003  0.00  0.00     0.033 H 
ATOM     15  H2  <0> d          -0.545   1.864  -0.873  0.00  0.00     0.033 H 
ATOM     16  H3  <0> d          -0.529   1.854   0.907  0.00  0.00     0.033 H 
ENDBRANCH   1  13
BRANCH   8  17
ATOM     17  C9  <0> d           0.020   0.337   2.421  0.00  0.00    -0.051 C 
ATOM     18  H7  <0> d          -1.008   0.550   2.714  0.00  0.00     0.033 H 
ATOM     19  H8  <0> d           0.548  -0.124   3.255  0.00  0.00     0.033 H 
ATOM     20  H9  <0> d           0.519   1.266   2.143  0.00  0.00     0.033 H 
ENDBRANCH   8  17
TORSDOF 2
