REMARK  3 active torsions:
REMARK  status: ('A' for Active; 'I' for Inactive)
REMARK    1  A    between atoms: C1_1  and  C2_2 
REMARK    2  A    between atoms: C6_6  and  C9_11 
REMARK    3  A    between atoms: C7_7  and  C8_8 
REMARK       I    between atoms: C8_8  and  N1_10 
ROOT
ATOM      1  C2  <0> d          -3.051   0.497   1.226  0.00  0.00    -0.046 A 
ATOM      2  C3  <0> d          -4.239  -0.204   1.221  0.00  0.00    -0.076 A 
ATOM      3  C4  <0> d          -4.836  -0.550   0.022  0.00  0.00    -0.082 A 
ATOM      4  C5  <0> d          -4.250  -0.191  -1.179  0.00  0.00    -0.076 A 
ATOM      5  C6  <0> d          -3.065   0.515  -1.188  0.00  0.00    -0.046 A 
ATOM      6  C7  <0> d          -2.458   0.867   0.018  0.00  0.00     0.043 A 
ATOM      7  H4  <0> d          -4.702  -0.488   2.155  0.00  0.00     0.084 H 
ATOM      8  H5  <0> d          -5.764  -1.103   0.023  0.00  0.00     0.083 H 
ATOM      9  H6  <0> d          -4.722  -0.464  -2.111  0.00  0.00     0.084 H 
ENDROOT
BRANCH   6  10
ATOM     10  C8  <0> d          -1.187   1.624   0.017  0.00  0.00     0.250 C 
ATOM     11  O1  <0> d          -1.204   2.839   0.023  0.00  0.00    -0.268 OA
ATOM     12  N1  <0> d          -0.011   0.966   0.007  0.00  0.00    -0.366 N 
ATOM     13  H7  <0> d           0.002  -0.004   0.002  0.00  0.00     0.159 HD
ATOM     14  H8  <0> d           0.822   1.462   0.002  0.00  0.00     0.159 HD
ENDBRANCH   6  10
BRANCH   1  15
ATOM     15  C1  <0> d          -2.398   0.868   2.533  0.00  0.00    -0.050 C 
ATOM     16  H1  <0> d          -2.767   1.840   2.861  0.00  0.00     0.033 H 
ATOM     17  H2  <0> d          -2.639   0.116   3.285  0.00  0.00     0.033 H 
ATOM     18  H3  <0> d          -1.318   0.915   2.399  0.00  0.00     0.033 H 
ENDBRANCH   1  15
BRANCH   5  19
ATOM     19  C9  <0> d          -2.429   0.906  -2.497  0.00  0.00    -0.050 C 
ATOM     20  H9  <0> d          -1.749   0.118  -2.820  0.00  0.00     0.033 H 
ATOM     21  H10 <0> d          -3.204   1.048  -3.249  0.00  0.00     0.033 H 
ATOM     22  H11 <0> d          -1.873   1.835  -2.367  0.00  0.00     0.033 H 
ENDBRANCH   5  19
TORSDOF 3
