REMARK  2 active torsions:
REMARK  status: ('A' for Active; 'I' for Inactive)
REMARK    1  A    between atoms: C1_1  and  C2_2 
REMARK       I    between atoms: C2_2  and  N1_4 
REMARK    2  A    between atoms: C5_7  and  O2_10 
ROOT
ATOM      1  C2  <0> d           2.803   2.229   2.011  0.00  0.00     0.215 C 
ATOM      2  O1  <0> d           3.404   1.722   2.935  0.00  0.00    -0.274 OA
ATOM      3  N1  <0> d           2.151   1.453   1.124  0.00  0.00    -0.352 N 
ATOM      4  C3  <0> d           1.420   2.052  -0.001  0.00  0.00    -0.000 C 
ATOM      5  C4  <0> d          -0.019   1.526   0.010  0.00  0.00    -0.026 C 
ATOM      6  C5  <0> d           0.002  -0.004   0.002  0.00  0.00     0.038 C 
ATOM      7  C6  <0> d           0.712  -0.513   1.258  0.00  0.00    -0.026 C 
ATOM      8  C7  <0> d           2.159  -0.010   1.262  0.00  0.00    -0.000 C 
ATOM      9  H4  <0> d           1.417   3.147   0.106  0.00  0.00     0.064 H 
ATOM     10  H5  <0> d           1.911   1.777  -0.946  0.00  0.00     0.064 H 
ATOM     11  H6  <0> d          -0.532   1.882   0.915  0.00  0.00     0.039 H 
ATOM     12  H7  <0> d          -0.550   1.892  -0.881  0.00  0.00     0.039 H 
ATOM     13  H8  <0> d           0.480  -0.391  -0.910  0.00  0.00     0.083 H 
ATOM     14  H9  <0> d           0.190  -0.139   2.152  0.00  0.00     0.039 H 
ATOM     15  H10 <0> d           0.705  -1.613   1.264  0.00  0.00     0.039 H 
ATOM     16  H11 <0> d           2.711  -0.455   0.420  0.00  0.00     0.064 H 
ATOM     17  H12 <0> d           2.648  -0.287   2.207  0.00  0.00     0.064 H 
ENDROOT
BRANCH   1  18
ATOM     18  C1  <0> d           2.786   3.728   1.856  0.00  0.00    -0.003 C 
ATOM     19  H1  <0> d           2.196   3.998   0.968  0.00  0.00     0.040 H 
ATOM     20  H2  <0> d           3.816   4.097   1.738  0.00  0.00     0.040 H 
ATOM     21  H3  <0> d           2.334   4.184   2.750  0.00  0.00     0.040 H 
ENDBRANCH   1  18
BRANCH   6  22
ATOM     22  O2  <0> d          -1.339  -0.498  -0.020  0.00  0.00    -0.395 OA
ATOM     23  H13 <0> d          -1.525  -1.582  -0.029  0.00  0.00     0.210 HD
ENDBRANCH   6  22
TORSDOF 2
