REMARK  3 active torsions:
REMARK  status: ('A' for Active; 'I' for Inactive)
REMARK    1  A    between atoms: C1_1  and  C2_2 
REMARK    2  A    between atoms: C3_3  and  C4_4 
REMARK    3  A    between atoms: C4_4  and  C5_6 
ROOT
ATOM      1  C5  <0> d          -0.018   1.474   0.010  0.00  0.00     0.023 A 
ATOM      2  C6  <0> d          -1.235   2.159   0.020  0.00  0.00    -0.069 A 
ATOM      3  C7  <0> d          -1.246   3.538   0.033  0.00  0.00    -0.082 A 
ATOM      4  C8  <0> d          -0.056   4.243   0.026  0.00  0.00    -0.083 A 
ATOM      5  C9  <0> d           1.154   3.571   0.010  0.00  0.00    -0.082 A 
ATOM      6  C10 <0> d           1.180   2.192   0.003  0.00  0.00    -0.069 A 
ATOM      7  H4  <0> d          -2.165   1.610   0.021  0.00  0.00     0.085 H 
ATOM      8  H5  <0> d          -2.187   4.069   0.045  0.00  0.00     0.083 H 
ATOM      9  H6  <0> d          -0.070   5.323   0.032  0.00  0.00     0.083 H 
ATOM     10  H7  <0> d           2.080   4.127   0.004  0.00  0.00     0.083 H 
ATOM     11  H8  <0> d           2.124   1.668  -0.010  0.00  0.00     0.085 H 
ENDROOT
BRANCH   1  12
ATOM     12  C4  <0> d           0.002  -0.004   0.002  0.00  0.00     0.235 C 
ATOM     13  O1  <0> d           1.063  -0.598  -0.011  0.00  0.00    -0.278 OA
BRANCH  12  14
ATOM     14  C3  <0> d          -1.228  -0.737   0.010  0.00  0.00    -0.024 C 
ATOM     15  C2  <0> d          -2.237  -1.338   0.016  0.00  0.00    -0.102 C 
BRANCH  15  16
ATOM     16  C1  <0> d          -3.501  -2.091   0.024  0.00  0.00    -0.021 C 
ATOM     17  H1  <0> d          -3.288  -3.160   0.017  0.00  0.00     0.044 H 
ATOM     18  H2  <0> d          -4.068  -1.840   0.921  0.00  0.00     0.044 H 
ATOM     19  H3  <0> d          -4.085  -1.831  -0.859  0.00  0.00     0.044 H 
ENDBRANCH  15  16
ENDBRANCH  12  14
ENDBRANCH   1  12
TORSDOF 3
