REMARK  4 active torsions:
REMARK  status: ('A' for Active; 'I' for Inactive)
REMARK    1  A    between atoms: C1_1  and  C2_2 
REMARK    2  A    between atoms: C2_2  and  O1_3 
REMARK    3  A    between atoms: O1_3  and  C3_4 
REMARK    4  A    between atoms: C4_6  and  C7_11 
ROOT
ATOM      1  C3  <0> d           0.802  -1.820   1.305  0.00  0.00     0.271 A 
ATOM      2  N1  <0> d           1.429  -2.305   2.365  0.00  0.00    -0.212 NA
ATOM      3  C4  <0> d           1.554  -3.612   2.541  0.00  0.00     0.039 A 
ATOM      4  C5  <0> d           1.021  -4.475   1.603  0.00  0.00    -0.005 A 
ATOM      5  C6  <0> d           0.366  -3.932   0.498  0.00  0.00     0.205 A 
ATOM      6  O2  <0> d          -0.172  -4.741  -0.447  0.00  0.00    -0.170 OA
ATOM      7  N2  <0> d           0.273  -2.612   0.387  0.00  0.00    -0.180 NA
ATOM      8  H6  <0> d           1.109  -5.544   1.722  0.00  0.00     0.093 H 
ENDROOT
BRANCH   1   9
ATOM      9  O1  <0> d           0.693  -0.477   1.160  0.00  0.00    -0.320 OA
BRANCH   9  10
ATOM     10  C2  <0> d           0.002  -0.004   0.002  0.00  0.00     0.026 C 
ATOM     11  H4  <0> d          -1.020  -0.381   0.010  0.00  0.00     0.074 H 
ATOM     12  H5  <0> d           0.512  -0.356  -0.895  0.00  0.00     0.074 H 
BRANCH  10  13
ATOM     13  C1  <0> d          -0.019   1.526   0.010  0.00  0.00    -0.056 C 
ATOM     14  H1  <0> d           1.004   1.903   0.003  0.00  0.00     0.030 H 
ATOM     15  H2  <0> d          -0.546   1.887  -0.873  0.00  0.00     0.030 H 
ATOM     16  H3  <0> d          -0.529   1.877   0.907  0.00  0.00     0.030 H 
ENDBRANCH  10  13
ENDBRANCH   9  10
ENDBRANCH   1   9
BRANCH   3  17
ATOM     17  C7  <0> d           2.271  -4.151   3.752  0.00  0.00    -0.035 C 
ATOM     18  H7  <0> d           1.557  -4.297   4.563  0.00  0.00     0.035 H 
ATOM     19  H8  <0> d           2.737  -5.105   3.503  0.00  0.00     0.035 H 
ATOM     20  H9  <0> d           3.038  -3.443   4.066  0.00  0.00     0.035 H 
ENDBRANCH   3  17
TORSDOF 4
