REMARK  2 active torsions:
REMARK  status: ('A' for Active; 'I' for Inactive)
REMARK    1  A    between atoms: C1_1  and  S1_2 
REMARK    2  A    between atoms: S1_2  and  C2_3 
ROOT
ATOM      1  C2  <0> d           1.098   2.031   0.003  0.00  0.00     0.094 A 
ATOM      2  C3  <0> d           2.342   1.410  -0.013  0.00  0.00    -0.029 A 
ATOM      3  C4  <0> d           2.400   0.015  -0.021  0.00  0.00     0.048 A 
ATOM      4  C5  <0> d           1.193  -0.698  -0.013  0.00  0.00    -0.046 A 
ATOM      5  C6  <0> d           0.002  -0.004   0.002  0.00  0.00     0.005 A 
ATOM      6  N1  <0> d          -0.016   1.315   0.009  0.00  0.00    -0.254 NA
ATOM      7  C7  <0> d           3.658  -0.669  -0.037  0.00  0.00     0.099 C 
ATOM      8  N2  <0> d           4.656  -1.211  -0.050  0.00  0.00    -0.191 NA
ATOM      9  H4  <0> d           3.249   1.996  -0.019  0.00  0.00     0.090 H 
ATOM     10  H5  <0> d           1.196  -1.778  -0.019  0.00  0.00     0.088 H 
ATOM     11  H6  <0> d          -0.931  -0.548   0.008  0.00  0.00     0.114 H 
ENDROOT
BRANCH   1  12
ATOM     12  S1  <0> d           1.003   3.791   0.012  0.00  0.00    -0.115 SA
BRANCH  12  13
ATOM     13  C1  <0> d          -0.778   4.134   0.031  0.00  0.00    -0.029 C 
ATOM     14  H1  <0> d          -0.942   5.222   0.038  0.00  0.00     0.042 H 
ATOM     15  H2  <0> d          -1.228   3.690   0.931  0.00  0.00     0.042 H 
ATOM     16  H3  <0> d          -1.244   3.699  -0.865  0.00  0.00     0.042 H 
ENDBRANCH  12  13
ENDBRANCH   1  12
TORSDOF 2
