REMARK  1 active torsions:
REMARK  status: ('A' for Active; 'I' for Inactive)
REMARK    1  A    between atoms: C1_1  and  N1_2 
ROOT
ATOM      1  N1  <0> d           2.130   4.141   0.003  0.00  0.00    -0.344 N 
ATOM      2  C2  <0> d           1.498   5.345   0.015  0.00  0.00     0.067 A 
ATOM      3  N2  <0> d           0.208   5.173   0.026  0.00  0.00    -0.242 NA
ATOM      4  C3  <0> d          -0.075   3.845   0.022  0.00  0.00     0.085 A 
ATOM      5  C4  <0> d           1.154   3.164   0.008  0.00  0.00     0.064 A 
ATOM      6  C5  <0> d           1.175   1.777   0.000  0.00  0.00    -0.055 A 
ATOM      7  C6  <0> d          -0.013   1.076   0.008  0.00  0.00    -0.081 A 
ATOM      8  C7  <0> d          -1.226   1.748   0.017  0.00  0.00    -0.081 A 
ATOM      9  C8  <0> d          -1.266   3.114   0.030  0.00  0.00    -0.053 A 
ATOM     10  H4  <0> d           1.994   6.305   0.015  0.00  0.00     0.143 H 
ATOM     11  H5  <0> d           2.117   1.248  -0.011  0.00  0.00     0.087 H 
ATOM     12  H6  <0> d           0.002  -0.004   0.002  0.00  0.00     0.083 H 
ATOM     13  H7  <0> d          -2.148   1.187   0.019  0.00  0.00     0.083 H 
ATOM     14  H8  <0> d          -2.216   3.627   0.042  0.00  0.00     0.087 H 
ENDROOT
BRANCH   1  15
ATOM     15  C1  <0> d           3.578   3.921  -0.012  0.00  0.00    -0.013 C 
ATOM     16  H1  <0> d           3.928   3.872  -1.043  0.00  0.00     0.057 H 
ATOM     17  H2  <0> d           4.076   4.744   0.502  0.00  0.00     0.057 H 
ATOM     18  H3  <0> d           3.809   2.984   0.495  0.00  0.00     0.057 H 
ENDBRANCH   1  15
TORSDOF 1
