REMARK  4 active torsions:
REMARK  status: ('A' for Active; 'I' for Inactive)
REMARK    1  A    between atoms: C1_1  and  N1_2 
REMARK    2  A    between atoms: C5_6  and  C6_7 
REMARK    3  A    between atoms: C6_7  and  O2_9 
REMARK    4  A    between atoms: O2_9  and  C7_10 
ROOT
ATOM      1  N1  <0> d           2.091   0.690  -0.014  0.00  0.00    -0.356 N 
ATOM      2  C2  <0> d           1.297  -0.402  -0.013  0.00  0.00    -0.020 A 
ATOM      3  C3  <0> d           0.002  -0.004   0.002  0.00  0.00    -0.066 A 
ATOM      4  C4  <0> d          -0.017   1.394   0.010  0.00  0.00    -0.050 A 
ATOM      5  C5  <0> d           1.297   1.814  -0.001  0.00  0.00     0.110 A 
ATOM      6  H4  <0> d           1.639  -1.426  -0.022  0.00  0.00     0.111 H 
ATOM      7  H5  <0> d          -0.862  -0.652   0.007  0.00  0.00     0.085 H 
ATOM      8  H6  <0> d          -0.893   2.025   0.018  0.00  0.00     0.087 H 
ENDROOT
BRANCH   5   9
ATOM      9  C6  <0> d           1.763   3.204   0.002  0.00  0.00     0.309 C 
ATOM     10  O1  <0> d           0.957   4.115   0.015  0.00  0.00    -0.258 OA
BRANCH   9  11
ATOM     11  O2  <0> d           3.084   3.472  -0.009  0.00  0.00    -0.321 OA
BRANCH  11  12
ATOM     12  C7  <0> d           3.473   4.871  -0.005  0.00  0.00     0.013 C 
ATOM     13  H7  <0> d           3.066   5.364  -0.889  0.00  0.00     0.067 H 
ATOM     14  H8  <0> d           3.084   5.354   0.891  0.00  0.00     0.067 H 
ATOM     15  H9  <0> d           4.560   4.946  -0.016  0.00  0.00     0.067 H 
ENDBRANCH  11  12
ENDBRANCH   9  11
ENDBRANCH   5   9
BRANCH   1  16
ATOM     16  C1  <0> d           3.556   0.679  -0.029  0.00  0.00    -0.014 C 
ATOM     17  H1  <0> d           3.909   0.682  -1.060  0.00  0.00     0.057 H 
ATOM     18  H2  <0> d           3.931   1.564   0.486  0.00  0.00     0.057 H 
ATOM     19  H3  <0> d           3.918  -0.216   0.476  0.00  0.00     0.057 H 
ENDBRANCH   1  16
TORSDOF 4
