REMARK  7 active torsions:
REMARK  status: ('A' for Active; 'I' for Inactive)
REMARK    1  A    between atoms: C1_1  and  C2_2 
REMARK    2  A    between atoms: C2_2  and  C3_3 
REMARK    3  A    between atoms: C2_2  and  C4_4 
REMARK    4  A    between atoms: C2_2  and  O1_5 
REMARK    5  A    between atoms: O1_5  and  C5_6 
REMARK    6  A    between atoms: C5_6  and  C6_7 
REMARK    7  A    between atoms: C6_7  and  C7_8 
ROOT
ATOM      1  C2  <0> d           0.002  -0.004   0.002  0.00  0.00     0.052 C 
ENDROOT
BRANCH   1   2
ATOM      2  C1  <0> d          -0.019   1.526   0.010  0.00  0.00    -0.048 C 
ATOM      3  H1  <0> d           1.004   1.903   0.003  0.00  0.00     0.031 H 
ATOM      4  H2  <0> d          -0.546   1.887  -0.873  0.00  0.00     0.031 H 
ATOM      5  H3  <0> d          -0.529   1.877   0.907  0.00  0.00     0.031 H 
ENDBRANCH   1   2
BRANCH   1   6
ATOM      6  C3  <0> d           0.742  -0.511   1.242  0.00  0.00    -0.048 C 
ATOM      7  H4  <0> d           0.232  -0.159   2.138  0.00  0.00     0.031 H 
ATOM      8  H5  <0> d           0.757  -1.601   1.236  0.00  0.00     0.031 H 
ATOM      9  H6  <0> d           1.765  -0.134   1.234  0.00  0.00     0.031 H 
ENDBRANCH   1   6
BRANCH   1  10
ATOM     10  C4  <0> d          -1.433  -0.534   0.013  0.00  0.00    -0.048 C 
ATOM     11  H7  <0> d          -1.960  -0.173  -0.870  0.00  0.00     0.031 H 
ATOM     12  H8  <0> d          -1.419  -1.623   0.007  0.00  0.00     0.031 H 
ATOM     13  H9  <0> d          -1.944  -0.182   0.910  0.00  0.00     0.031 H 
ENDBRANCH   1  10
BRANCH   1  14
ATOM     14  O1  <0> d           0.671  -0.465  -1.174  0.00  0.00    -0.361 OA
BRANCH  14  15
ATOM     15  C5  <0> d           1.958  -0.083  -1.337  0.00  0.00     0.121 C 
ATOM     16  H10 <0> d           2.435   0.542  -0.597  0.00  0.00     0.107 H 
BRANCH  15  17
ATOM     17  C6  <0> d           2.626  -0.471  -2.392  0.00  0.00    -0.147 C 
BRANCH  17  18
ATOM     18  C7  <0> d           3.294  -0.859  -3.446  0.00  0.00    -0.009 C 
ATOM     19  H11 <0> d           3.854  -1.782  -3.421  0.00  0.00     0.051 H 
ATOM     20  H12 <0> d           3.285  -0.257  -4.343  0.00  0.00     0.051 H 
ENDBRANCH  17  18
ENDBRANCH  15  17
ENDBRANCH  14  15
ENDBRANCH   1  14
TORSDOF 7
