REMARK  4 active torsions:
REMARK  status: ('A' for Active; 'I' for Inactive)
REMARK    1  A    between atoms: C1_1  and  C2_2 
REMARK    2  A    between atoms: C2_2  and  C3_3 
REMARK    3  A    between atoms: C2_2  and  C5_5 
REMARK    4  A    between atoms: C2_2  and  O1_11 
ROOT
ATOM      1  C3  <0> d           4.080   2.439  -1.415  0.00  0.00    -0.074 C 
ATOM      2  C4  <0> d           4.405   2.645  -2.524  0.00  0.00    -0.151 C 
ATOM      3  H4  <0> d           4.696   2.829  -3.516  0.00  0.00     0.166 H 
ENDROOT
BRANCH   1   4
ATOM      4  C2  <0> d           3.672   2.182  -0.024  0.00  0.00     0.144 C 
BRANCH   4   5
ATOM      5  C1  <0> d           3.478   3.513   0.705  0.00  0.00    -0.033 C 
ATOM      6  H1  <0> d           3.176   3.322   1.735  0.00  0.00     0.033 H 
ATOM      7  H2  <0> d           4.415   4.071   0.699  0.00  0.00     0.033 H 
ATOM      8  H3  <0> d           2.705   4.094   0.202  0.00  0.00     0.033 H 
ENDBRANCH   4   5
BRANCH   4   9
ATOM      9  C5  <0> d           2.377   1.411  -0.015  0.00  0.00    -0.012 A 
ATOM     10  C10 <0> d           2.396   0.029  -0.022  0.00  0.00    -0.073 A 
ATOM     11  C9  <0> d           1.208  -0.679  -0.013  0.00  0.00    -0.082 A 
ATOM     12  H9  <0> d           3.338  -0.499  -0.034  0.00  0.00     0.084 H 
ATOM     13  C8  <0> d           0.002  -0.004   0.002  0.00  0.00    -0.083 A 
ATOM     14  H8  <0> d           1.223  -1.759  -0.019  0.00  0.00     0.083 H 
ATOM     15  C7  <0> d          -0.017   1.378   0.010  0.00  0.00    -0.082 A 
ATOM     16  H7  <0> d          -0.926  -0.557   0.008  0.00  0.00     0.083 H 
ATOM     17  C6  <0> d           1.171   2.086   0.002  0.00  0.00    -0.073 A 
ATOM     18  H6  <0> d          -0.959   1.905   0.017  0.00  0.00     0.083 H 
ATOM     19  H5  <0> d           1.156   3.165   0.008  0.00  0.00     0.084 H 
ENDBRANCH   4   9
BRANCH   4  20
ATOM     20  O1  <0> d           4.685   1.420   0.636  0.00  0.00    -0.373 OA
ATOM     21  H10 <0> d           4.861   0.562   0.226  0.00  0.00     0.212 HD
ENDBRANCH   4  20
ENDBRANCH   1   4
TORSDOF 4
