REMARK  5 active torsions:
REMARK  status: ('A' for Active; 'I' for Inactive)
REMARK    1  A    between atoms: C1_1  and  C2_2 
REMARK    2  A    between atoms: C2_2  and  C8_9 
REMARK    3  A    between atoms: C3_3  and  C7_7 
REMARK    4  A    between atoms: C4_4  and  C5_5 
REMARK    5  A    between atoms: C4_4  and  C6_6 
ROOT
ATOM      1  C2  <0> d           2.615   3.747   0.114  0.00  0.00    -0.026 A 
ATOM      2  C3  <0> d           1.242   3.096  -0.069  0.00  0.00     0.045 A 
ATOM      3  C4  <0> d           1.896   3.840  -1.235  0.00  0.00    -0.026 A 
ATOM      4  H4  <0> d           0.391   3.572   0.418  0.00  0.00     0.059 H 
ENDROOT
BRANCH   1   5
ATOM      5  C1  <0> d           2.687   5.017   0.965  0.00  0.00    -0.068 C 
ATOM      6  H1  <0> d           3.223   4.804   1.889  0.00  0.00     0.028 H 
ATOM      7  H2  <0> d           3.212   5.795   0.411  0.00  0.00     0.028 H 
ATOM      8  H3  <0> d           1.678   5.355   1.199  0.00  0.00     0.028 H 
ENDBRANCH   1   5
BRANCH   1   9
ATOM      9  C8  <0> d           3.829   2.821   0.205  0.00  0.00    -0.068 C 
ATOM     10  H11 <0> d           3.927   2.257  -0.723  0.00  0.00     0.028 H 
ATOM     11  H12 <0> d           4.728   3.416   0.364  0.00  0.00     0.028 H 
ATOM     12  H13 <0> d           3.698   2.131   1.038  0.00  0.00     0.028 H 
ENDBRANCH   1   9
BRANCH   3  13
ATOM     13  C5  <0> d           2.446   3.001  -2.389  0.00  0.00    -0.068 C 
ATOM     14  H5  <0> d           1.840   3.166  -3.280  0.00  0.00     0.028 H 
ATOM     15  H6  <0> d           3.477   3.293  -2.591  0.00  0.00     0.028 H 
ATOM     16  H7  <0> d           2.414   1.945  -2.118  0.00  0.00     0.028 H 
ENDBRANCH   3  13
BRANCH   3  17
ATOM     17  C6  <0> d           1.305   5.196  -1.628  0.00  0.00    -0.068 C 
ATOM     18  H8  <0> d           0.566   5.499  -0.886  0.00  0.00     0.028 H 
ATOM     19  H9  <0> d           2.100   5.939  -1.674  0.00  0.00     0.028 H 
ATOM     20  H10 <0> d           0.827   5.114  -2.604  0.00  0.00     0.028 H 
ENDBRANCH   3  17
BRANCH   2  21
ATOM     21  C7  <0> d           1.190   1.592  -0.145  0.00  0.00     0.178 C 
ATOM     22  O1  <0> d           2.215   0.954  -0.194  0.00  0.00    -0.648 OA
ATOM     23  O2  <0> d           0.005   0.961  -0.158  0.00  0.00    -0.648 OA
ENDBRANCH   2  21
TORSDOF 5
