REMARK  3 active torsions:
REMARK  status: ('A' for Active; 'I' for Inactive)
REMARK    1  A    between atoms: C1_1  and  C2_2 
REMARK       I    between atoms: C2_2  and  N1_4 
REMARK    2  A    between atoms: N1_4  and  C3_5 
REMARK    3  A    between atoms: C3_5  and  C4_6 
ROOT
ATOM      1  C3  <0> d           2.565   1.272  -0.015  0.00  0.00     0.025 C 
ATOM      2  H5  <0> d           3.212   1.984   0.496  0.00  0.00     0.072 H 
ATOM      3  H6  <0> d           2.612   0.309   0.493  0.00  0.00     0.072 H 
ENDROOT
BRANCH   1   4
ATOM      4  N1  <0> d           3.011   1.114  -1.401  0.00  0.00    -0.357 N 
ATOM      5  C2  <0> d           4.257   0.669  -1.662  0.00  0.00     0.213 C 
ATOM      6  O1  <0> d           5.007   0.399  -0.748  0.00  0.00    -0.274 OA
ATOM      7  H4  <0> d           2.411   1.330  -2.132  0.00  0.00     0.162 HD
BRANCH   5   8
ATOM      8  C1  <0> d           4.716   0.507  -3.088  0.00  0.00    -0.003 C 
ATOM      9  H1  <0> d           3.912   0.796  -3.764  0.00  0.00     0.040 H 
ATOM     10  H2  <0> d           5.585   1.142  -3.264  0.00  0.00     0.040 H 
ATOM     11  H3  <0> d           4.985  -0.534  -3.267  0.00  0.00     0.040 H 
ENDBRANCH   5   8
ENDBRANCH   1   4
BRANCH   1  12
ATOM     12  C4  <0> d           1.146   1.780   0.001  0.00  0.00     0.000 A 
ATOM     13  S1  <0> d           0.555   3.464   0.015  0.00  0.00    -0.105 SA
ATOM     14  C7  <0> d          -1.196   3.116   0.030  0.00  0.00    -0.044 A 
ATOM     15  C6  <0> d          -1.213   1.761   0.017  0.00  0.00    -0.076 A 
ATOM     16  H9  <0> d          -2.027   3.807   0.041  0.00  0.00     0.095 H 
ATOM     17  C5  <0> d          -0.013   1.076   0.008  0.00  0.00    -0.068 A 
ATOM     18  H8  <0> d          -2.150   1.224   0.018  0.00  0.00     0.084 H 
ATOM     19  H7  <0> d           0.002  -0.004   0.002  0.00  0.00     0.085 H 
ENDBRANCH   1  12
TORSDOF 3
