REMARK  3 active torsions:
REMARK  status: ('A' for Active; 'I' for Inactive)
REMARK    1  A    between atoms: C3_4  and  C5_8 
REMARK    2  A    between atoms: C5_8  and  C6_9 
REMARK    3  A    between atoms: C6_9  and  C7_10 
ROOT
ATOM      1  C1  <0> d           0.002  -0.004   0.002  0.00  0.00     0.039 C 
ATOM      2  C2  <0> d           0.765  -0.489  -1.234  0.00  0.00     0.040 C 
ATOM      3  O1  <0> d           2.068   0.101  -1.243  0.00  0.00    -0.382 OA
ATOM      4  C3  <0> d           2.049   1.532  -1.236  0.00  0.00     0.059 C 
ATOM      5  H1  <0> d           1.552   1.894  -2.136  0.00  0.00     0.086 H 
ATOM      6  C4  <0> d           1.286   2.017   0.001  0.00  0.00     0.043 C 
ATOM      7  O2  <0> d          -0.017   1.427   0.010  0.00  0.00    -0.387 OA
ATOM      8  H2  <0> d           0.499  -0.367   0.902  0.00  0.00     0.077 H 
ATOM      9  H3  <0> d          -1.020  -0.382  -0.028  0.00  0.00     0.077 H 
ATOM     10  H4  <0> d           0.857  -1.575  -1.202  0.00  0.00     0.077 H 
ATOM     11  H5  <0> d           0.224  -0.196  -2.134  0.00  0.00     0.077 H 
ATOM     12  H6  <0> d           1.194   3.103  -0.031  0.00  0.00     0.078 H 
ATOM     13  H7  <0> d           1.826   1.722   0.901  0.00  0.00     0.078 H 
ENDROOT
BRANCH   4  14
ATOM     14  C5  <0> d           3.483   2.062  -1.192  0.00  0.00    -0.030 C 
ATOM     15  H8  <0> d           3.466   3.148  -1.097  0.00  0.00     0.037 H 
ATOM     16  H9  <0> d           4.005   1.631  -0.338  0.00  0.00     0.037 H 
BRANCH  14  17
ATOM     17  C6  <0> d           4.209   1.675  -2.482  0.00  0.00     0.018 C 
ATOM     18  H10 <0> d           4.226   0.589  -2.578  0.00  0.00     0.049 H 
ATOM     19  H11 <0> d           3.687   2.107  -3.337  0.00  0.00     0.049 H 
BRANCH  17  20
ATOM     20  C7  <0> d           5.622   2.198  -2.440  0.00  0.00     0.172 C 
ATOM     21  O3  <0> d           6.008   2.816  -1.477  0.00  0.00    -0.648 OA
ATOM     22  O4  <0> d           6.451   1.976  -3.472  0.00  0.00    -0.648 OA
ENDBRANCH  17  20
ENDBRANCH  14  17
ENDBRANCH   4  14
TORSDOF 3
