REMARK  0 active torsions:
REMARK  status: ('A' for Active; 'I' for Inactive)
ROOT
ATOM      1  C1  <0> d          -0.017   1.380   0.010  0.00  0.00    -0.080 C 
ATOM      2  C2  <0> d           1.099   2.175   0.003  0.00  0.00    -0.080 C 
ATOM      3  C3  <0> d           2.401   1.707  -0.012  0.00  0.00    -0.050 C 
ATOM      4  C4  <0> d           2.792   0.600  -0.672  0.00  0.00     0.076 C 
ATOM      5  C5  <0> d           3.892  -0.244  -0.664  0.00  0.00    -0.050 C 
ATOM      6  C6  <0> d           3.703  -1.481  -1.296  0.00  0.00    -0.080 C 
ATOM      7  C7  <0> d           2.583  -2.280  -1.288  0.00  0.00    -0.080 C 
ATOM      8  C8  <0> d           1.358  -2.052  -0.646  0.00  0.00    -0.050 C 
ATOM      9  C9  <0> d           0.917  -0.737  -0.661  0.00  0.00     0.076 C 
ATOM     10  C10 <0> d           0.002  -0.004   0.002  0.00  0.00    -0.050 C 
ATOM     11  O1  <0> d           1.795   0.009  -1.412  0.00  0.00    -0.311 OA
ATOM     12  H1  <0> d          -0.980   1.868   0.026  0.00  0.00     0.083 H 
ATOM     13  H2  <0> d           0.952   3.245   0.010  0.00  0.00     0.083 H 
ATOM     14  H3  <0> d           3.148   2.261   0.537  0.00  0.00     0.087 H 
ATOM     15  H4  <0> d           4.829   0.032  -0.203  0.00  0.00     0.087 H 
ATOM     16  H5  <0> d           4.543  -1.855  -1.862  0.00  0.00     0.083 H 
ATOM     17  H6  <0> d           2.658  -3.200  -1.847  0.00  0.00     0.083 H 
ATOM     18  H7  <0> d           0.797  -2.844  -0.173  0.00  0.00     0.087 H 
ATOM     19  H8  <0> d          -0.761  -0.526   0.560  0.00  0.00     0.087 H 
ENDROOT
TORSDOF 0
