REMARK  0 active torsions:
REMARK  status: ('A' for Active; 'I' for Inactive)
ROOT
ATOM      1  C1  <0> d          -0.019   1.523   0.010  0.00  0.00    -0.054 C 
ATOM      2  C2  <0> d           1.410   2.093  -0.000  0.00  0.00    -0.025 C 
ATOM      3  C3  <0> d           2.140   1.453   1.149  0.00  0.00     0.046 C 
ATOM      4  N1  <0> d           2.758   1.928   2.159  0.00  0.00    -0.249 NA
ATOM      5  C4  <0> d           3.107   0.957   3.038  0.00  0.00     0.082 C 
ATOM      6  N2  <0> d           2.799  -0.234   2.624  0.00  0.00    -0.264 NA
ATOM      7  C5  <0> d           2.230  -0.067   1.289  0.00  0.00     0.129 C 
ATOM      8  H1  <0> d           2.872  -0.504   0.524  0.00  0.00     0.097 H 
ATOM      9  C6  <0> d           0.800  -0.543   1.174  0.00  0.00     0.157 C 
ATOM     10  O1  <0> d           0.318  -1.311   1.973  0.00  0.00    -0.295 OA
ATOM     11  C7  <0> d           0.002  -0.004   0.002  0.00  0.00    -0.007 C 
ATOM     12  H2  <0> d          -0.536   1.869   0.905  0.00  0.00     0.034 H 
ATOM     13  H3  <0> d          -0.553   1.879  -0.871  0.00  0.00     0.034 H 
ATOM     14  H4  <0> d           1.903   1.845  -0.940  0.00  0.00     0.042 H 
ATOM     15  H5  <0> d           1.381   3.175   0.132  0.00  0.00     0.042 H 
ATOM     16  H6  <0> d           3.590   1.154   3.983  0.00  0.00     0.146 H 
ATOM     17  H7  <0> d          -1.020  -0.376   0.063  0.00  0.00     0.044 H 
ATOM     18  H8  <0> d           0.453  -0.351  -0.928  0.00  0.00     0.044 H 
ENDROOT
TORSDOF 0
