REMARK  0 active torsions:
REMARK  status: ('A' for Active; 'I' for Inactive)
ROOT
ATOM      1  C1  <0> d          -0.016   1.305   0.009  0.00  0.00     0.111 A 
ATOM      2  N1  <0> d           1.266   1.732  -0.001  0.00  0.00    -0.210 NA
ATOM      3  C2  <0> d           2.039   0.600  -0.014  0.00  0.00     0.253 A 
ATOM      4  N2  <0> d           1.216  -0.427  -0.012  0.00  0.00    -0.117 NA
ATOM      5  N3  <0> d           0.002  -0.004   0.002  0.00  0.00    -0.141 NA
ATOM      6  C3  <0> d           3.470   0.546  -0.028  0.00  0.00     0.142 C 
ATOM      7  N4  <0> d           4.606   0.503  -0.039  0.00  0.00    -0.188 NA
ATOM      8  H1  <0> d          -0.896   1.931   0.025  0.00  0.00     0.149 H 
ENDROOT
TORSDOF 0
