REMARK  3 active torsions:
REMARK  status: ('A' for Active; 'I' for Inactive)
REMARK    1  A    between atoms: C1_1  and  C2_2 
REMARK    2  A    between atoms: C2_2  and  C3_3 
REMARK    3  A    between atoms: C3_3  and  C4_4 
ROOT
ATOM      1  C4  <0> d          -0.718   1.572   1.248  0.00  0.00     0.006 C 
ATOM      2  N1  <0> d          -1.767   2.292   1.242  0.00  0.00    -0.298 NA
ATOM      3  C5  <0> d          -2.238   2.613   2.594  0.00  0.00     0.015 C 
ATOM      4  C6  <0> d          -1.042   2.296   3.522  0.00  0.00    -0.044 C 
ATOM      5  C7  <0> d          -0.274   1.261   2.660  0.00  0.00    -0.027 C 
ATOM      6  H8  <0> d          -2.518   3.676   2.643  0.00  0.00     0.067 H 
ATOM      7  H9  <0> d          -3.113   1.992   2.835  0.00  0.00     0.067 H 
ATOM      8  H10 <0> d          -0.473   3.217   3.715  0.00  0.00     0.035 H 
ATOM      9  H11 <0> d          -1.413   1.888   4.474  0.00  0.00     0.035 H 
ATOM     10  H12 <0> d          -0.547   0.226   2.911  0.00  0.00     0.042 H 
ATOM     11  H13 <0> d           0.816   1.382   2.737  0.00  0.00     0.042 H 
ENDROOT
BRANCH   1  12
ATOM     12  C3  <0> d          -0.013   1.086   0.008  0.00  0.00    -0.029 C 
ATOM     13  H6  <0> d           0.002  -0.014   0.002  0.00  0.00     0.041 H 
ATOM     14  H7  <0> d           1.019   1.466   0.000  0.00  0.00     0.041 H 
BRANCH  12  15
ATOM     15  C2  <0> d          -0.753   1.593  -1.232  0.00  0.00    -0.064 C 
ATOM     16  H4  <0> d          -0.767   2.693  -1.226  0.00  0.00     0.032 H 
ATOM     17  H5  <0> d          -1.785   1.212  -1.224  0.00  0.00     0.032 H 
BRANCH  15  18
ATOM     18  C1  <0> d          -0.037   1.099  -2.490  0.00  0.00    -0.076 C 
ATOM     19  H1  <0> d          -0.569   1.464  -3.381  0.00  0.00     0.027 H 
ATOM     20  H2  <0> d          -0.022  -0.001  -2.496  0.00  0.00     0.027 H 
ATOM     21  H3  <0> d           0.995   1.480  -2.498  0.00  0.00     0.027 H 
ENDBRANCH  15  18
ENDBRANCH  12  15
ENDBRANCH   1  12
TORSDOF 3
