REMARK  4 active torsions:
REMARK  status: ('A' for Active; 'I' for Inactive)
REMARK    1  A    between atoms: C1_1  and  C2_2 
REMARK    2  A    between atoms: C2_2  and  C3_3 
REMARK    3  A    between atoms: C3_3  and  N1_4 
REMARK    4  A    between atoms: N1_4  and  C4_5 
ROOT
ATOM      1  N1  <0> d           0.002  -0.004   0.002  0.00  0.00    -0.390 N 
ATOM      2  H8  <0> d           0.849  -0.478  -0.009  0.00  0.00     0.159 HD
ENDROOT
BRANCH   1   3
ATOM      3  C3  <0> d          -1.256  -0.754   0.010  0.00  0.00    -0.008 C 
ATOM      4  H6  <0> d          -1.823  -0.503   0.907  0.00  0.00     0.063 H 
ATOM      5  H7  <0> d          -1.840  -0.493  -0.873  0.00  0.00     0.063 H 
BRANCH   3   6
ATOM      6  C2  <0> d          -0.957  -2.254  -0.001  0.00  0.00    -0.054 C 
ATOM      7  H4  <0> d          -0.390  -2.505  -0.898  0.00  0.00     0.034 H 
ATOM      8  H5  <0> d          -0.373  -2.514   0.882  0.00  0.00     0.034 H 
BRANCH   6   9
ATOM      9  C1  <0> d          -2.271  -3.037   0.007  0.00  0.00    -0.075 C 
ATOM     10  H1  <0> d          -2.057  -4.106  -0.000  0.00  0.00     0.027 H 
ATOM     11  H2  <0> d          -2.838  -2.786   0.904  0.00  0.00     0.027 H 
ATOM     12  H3  <0> d          -2.855  -2.777  -0.876  0.00  0.00     0.027 H 
ENDBRANCH   6   9
ENDBRANCH   3   6
ENDBRANCH   1   3
BRANCH   1  13
ATOM     13  C4  <0> d          -0.017   1.393   0.010  0.00  0.00     0.027 A 
ATOM     14  C9  <0> d           1.176   2.105   0.002  0.00  0.00    -0.058 A 
ATOM     15  C8  <0> d           1.153   3.486   0.009  0.00  0.00    -0.081 A 
ATOM     16  H13 <0> d           2.119   1.580  -0.010  0.00  0.00     0.086 H 
ATOM     17  C7  <0> d          -0.054   4.159   0.024  0.00  0.00    -0.083 A 
ATOM     18  H12 <0> d           2.080   4.040   0.004  0.00  0.00     0.083 H 
ATOM     19  C6  <0> d          -1.243   3.453   0.031  0.00  0.00    -0.081 A 
ATOM     20  H11 <0> d          -0.069   5.239   0.029  0.00  0.00     0.083 H 
ATOM     21  C5  <0> d          -1.228   2.072   0.019  0.00  0.00    -0.058 A 
ATOM     22  H10 <0> d          -2.185   3.982   0.042  0.00  0.00     0.083 H 
ATOM     23  H9  <0> d          -2.157   1.521   0.021  0.00  0.00     0.086 H 
ENDBRANCH   1  13
TORSDOF 4
