REMARK  2 active torsions:
REMARK  status: ('A' for Active; 'I' for Inactive)
REMARK    1  A    between atoms: C1_1  and  C2_2 
REMARK    2  A    between atoms: C2_2  and  C4_4 
ROOT
ATOM      1  C4  <0> d          -0.000  -0.736  -1.282  0.00  0.00    -0.031 A 
ATOM      2  C5  <0> d           1.087  -0.630  -2.151  0.00  0.00    -0.071 A 
ATOM      3  C6  <0> d           1.079  -1.316  -3.348  0.00  0.00    -0.061 A 
ATOM      4  C7  <0> d          -0.004  -2.108  -3.688  0.00  0.00     0.034 A 
ATOM      5  C8  <0> d          -1.085  -2.217  -2.830  0.00  0.00    -0.061 A 
ATOM      6  C9  <0> d          -1.086  -1.541  -1.627  0.00  0.00    -0.071 A 
ATOM      7 Cl1  <0> d          -0.007  -2.968  -5.196  0.00  0.00    -0.084 Cl
ATOM      8  H6  <0> d           1.932  -0.011  -1.887  0.00  0.00     0.084 H 
ATOM      9  H7  <0> d           1.920  -1.234  -4.021  0.00  0.00     0.086 H 
ATOM     10  H8  <0> d          -1.928  -2.837  -3.101  0.00  0.00     0.086 H 
ATOM     11  H9  <0> d          -1.928  -1.631  -0.957  0.00  0.00     0.084 H 
ENDROOT
BRANCH   1  12
ATOM     12  C2  <0> d           0.002  -0.004   0.002  0.00  0.00    -0.061 C 
ATOM     13  C3  <0> d           0.022  -0.673   1.146  0.00  0.00    -0.115 C 
ATOM     14  H4  <0> d           0.024  -0.138   2.085  0.00  0.00     0.067 H 
ATOM     15  H5  <0> d           0.037  -1.753   1.141  0.00  0.00     0.067 H 
BRANCH  12  16
ATOM     16  C1  <0> d          -0.018   1.503   0.010  0.00  0.00    -0.051 C 
ATOM     17  H1  <0> d           1.004   1.880   0.003  0.00  0.00     0.033 H 
ATOM     18  H2  <0> d          -0.545   1.864  -0.873  0.00  0.00     0.033 H 
ATOM     19  H3  <0> d          -0.529   1.854   0.907  0.00  0.00     0.033 H 
ENDBRANCH  12  16
ENDBRANCH   1  12
TORSDOF 2
