REMARK  2 active torsions:
REMARK  status: ('A' for Active; 'I' for Inactive)
REMARK    1  A    between atoms: C1_1  and  N1_2 
REMARK    2  A    between atoms: N1_2  and  C2_3 
ROOT
ATOM      1  C2  <0> d           0.002  -0.004   0.002  0.00  0.00     0.137 A 
ATOM      2  C3  <0> d           1.247  -0.657  -0.013  0.00  0.00     0.144 A 
ATOM      3  C4  <0> d           2.409   0.132  -0.020  0.00  0.00     0.162 A 
ATOM      4  N2  <0> d           3.463  -0.747  -0.035  0.00  0.00    -0.333 N 
ATOM      5  H1  <0> d           4.433  -0.507  -0.043  0.00  0.00     0.168 HD
ATOM      6  C5  <0> d           2.943  -2.007  -0.037  0.00  0.00     0.066 A 
ATOM      7  N3  <0> d           1.643  -1.952  -0.025  0.00  0.00    -0.237 NA
ATOM      8  N4  <0> d           2.292   1.456  -0.012  0.00  0.00    -0.222 NA
ATOM      9  C6  <0> d           1.104   2.024   0.002  0.00  0.00     0.090 A 
ATOM     10  N5  <0> d          -0.016   1.325   0.009  0.00  0.00    -0.228 NA
ATOM     11  H6  <0> d           3.525  -2.917  -0.048  0.00  0.00     0.143 H 
ATOM     12  H7  <0> d           1.044   3.102   0.009  0.00  0.00     0.146 H 
ENDROOT
BRANCH   1  13
ATOM     13  N1  <0> d          -1.177  -0.728   0.010  0.00  0.00    -0.279 NA
ATOM     14  H5  <0> d          -1.101  -1.306   0.823  0.00  0.00     0.128 HD
BRANCH  13  15
ATOM     15  C1  <0> d          -2.465  -0.030   0.026  0.00  0.00    -0.030 C 
ATOM     16  H2  <0> d          -3.274  -0.761   0.030  0.00  0.00     0.048 H 
ATOM     17  H3  <0> d          -2.531   0.590   0.920  0.00  0.00     0.048 H 
ATOM     18  H4  <0> d          -2.549   0.599  -0.860  0.00  0.00     0.048 H 
ENDBRANCH  13  15
ENDBRANCH   1  13
TORSDOF 2
