REMARK  0 active torsions:
REMARK  status: ('A' for Active; 'I' for Inactive)
ROOT
ATOM      1  C1  <0> d          -0.017   1.379   0.010  0.00  0.00    -0.079 A 
ATOM      2  C2  <0> d           1.173   2.084   0.002  0.00  0.00    -0.074 A 
ATOM      3  C3  <0> d           2.377   1.411  -0.014  0.00  0.00    -0.027 A 
ATOM      4  C4  <0> d           2.408   0.023  -0.017  0.00  0.00     0.073 A 
ATOM      5  C5  <0> d           1.205  -0.683  -0.011  0.00  0.00     0.143 A 
ATOM      6  C6  <0> d           0.002  -0.004   0.002  0.00  0.00    -0.043 A 
ATOM      7  F1  <0> d           1.216  -2.034  -0.017  0.00  0.00    -0.204 F 
ATOM      8  N1  <0> d           3.729  -0.449  -0.017  0.00  0.00    -0.387 N 
ATOM      9  C7  <0> d           4.605   0.658  -0.459  0.00  0.00    -0.004 C 
ATOM     10  C8  <0> d           3.808   1.911  -0.032  0.00  0.00    -0.024 C 
ATOM     11  H1  <0> d          -0.959   1.907   0.017  0.00  0.00     0.083 H 
ATOM     12  H2  <0> d           1.159   3.164   0.008  0.00  0.00     0.084 H 
ATOM     13  H3  <0> d          -0.927  -0.555   0.006  0.00  0.00     0.088 H 
ATOM     14  H4  <0> d           4.164  -1.426   0.238  0.00  0.00     0.159 HD
ATOM     15  H5  <0> d           5.579   0.579   0.047  0.00  0.00     0.064 H 
ATOM     16  H6  <0> d           4.752   0.597  -1.548  0.00  0.00     0.064 H 
ATOM     17  H7  <0> d           3.898   2.737  -0.753  0.00  0.00     0.042 H 
ATOM     18  H8  <0> d           4.084   2.268   0.971  0.00  0.00     0.042 H 
ENDROOT
TORSDOF 0
