REMARK  3 active torsions:
REMARK  status: ('A' for Active; 'I' for Inactive)
REMARK    1  A    between atoms: C1_1  and  C2_2 
REMARK    2  A    between atoms: C2_2  and  C7_11 
REMARK    3  A    between atoms: C4_4  and  C6_9 
ROOT
ATOM      1  C2  <0> d           0.002  -0.004   0.002  0.00  0.00     0.065 C 
ATOM      2  C3  <0> d           0.683  -0.528  -1.283  0.00  0.00    -0.015 C 
ATOM      3  C4  <0> d          -0.119  -1.818  -1.571  0.00  0.00     0.117 C 
ATOM      4  H1  <0> d           0.461  -2.695  -1.284  0.00  0.00     0.072 H 
ATOM      5  C5  <0> d          -1.360  -1.704  -0.713  0.00  0.00     0.274 C 
ATOM      6  O1  <0> d          -2.225  -2.543  -0.627  0.00  0.00    -0.264 OA
ATOM      7  O2  <0> d          -1.356  -0.531  -0.062  0.00  0.00    -0.310 OA
ATOM      8  H5  <0> d           0.575   0.187  -2.099  0.00  0.00     0.039 H 
ATOM      9  H6  <0> d           1.734  -0.754  -1.101  0.00  0.00     0.039 H 
ENDROOT
BRANCH   1  10
ATOM     10  C1  <0> d          -0.019   1.526   0.010  0.00  0.00    -0.047 C 
ATOM     11  H2  <0> d           1.004   1.903   0.003  0.00  0.00     0.031 H 
ATOM     12  H3  <0> d          -0.546   1.887  -0.873  0.00  0.00     0.031 H 
ATOM     13  H4  <0> d          -0.529   1.877   0.907  0.00  0.00     0.031 H 
ENDBRANCH   1  10
BRANCH   1  14
ATOM     14  C7  <0> d           0.723  -0.534   1.243  0.00  0.00    -0.047 C 
ATOM     15  H7  <0> d           0.212  -0.181   2.139  0.00  0.00     0.031 H 
ATOM     16  H8  <0> d           0.718  -1.624   1.228  0.00  0.00     0.031 H 
ATOM     17  H9  <0> d           1.752  -0.176   1.246  0.00  0.00     0.031 H 
ENDBRANCH   1  14
BRANCH   3  18
ATOM     18  C6  <0> d          -0.494  -1.890  -3.029  0.00  0.00     0.187 C 
ATOM     19  O3  <0> d          -0.116  -1.034  -3.793  0.00  0.00    -0.647 OA
ATOM     20  O4  <0> d          -1.249  -2.904  -3.479  0.00  0.00    -0.647 OA
ENDBRANCH   3  18
TORSDOF 3
