REMARK  1 active torsions:
REMARK  status: ('A' for Active; 'I' for Inactive)
REMARK    1  A    between atoms: C4_6  and  N1_8 
ROOT
ATOM      1  C1  <0> d          -0.019   1.546   0.011  0.00  0.00    -0.007 C 
ATOM      2  C2  <0> d           1.502   1.855  -0.002  0.00  0.00     0.031 C 
ATOM      3  O1  <0> d           2.036   0.791  -0.818  0.00  0.00    -0.320 OA
ATOM      4  C3  <0> d           1.391  -0.348  -0.501  0.00  0.00     0.292 C 
ATOM      5  O2  <0> d           1.845  -1.464  -0.601  0.00  0.00    -0.263 OA
ATOM      6  C4  <0> d           0.002  -0.004   0.002  0.00  0.00     0.214 C 
ATOM      7  H1  <0> d          -0.147  -0.394   1.009  0.00  0.00     0.104 H 
ATOM      8  H2  <0> d          -0.491   1.928   0.916  0.00  0.00     0.040 H 
ATOM      9  H3  <0> d          -0.508   1.938  -0.881  0.00  0.00     0.040 H 
ATOM     10  H4  <0> d           1.695   2.826  -0.459  0.00  0.00     0.075 H 
ATOM     11  H5  <0> d           1.914   1.813   1.006  0.00  0.00     0.075 H 
ENDROOT
BRANCH   6  12
ATOM     12  N1  <0> d          -1.022  -0.528  -0.912  0.00  0.00     0.092 N 
ATOM     13  H6  <0> d          -1.014  -1.537  -0.923  0.00  0.00     0.313 HD
ATOM     14  H7  <0> d          -1.936  -0.176  -0.671  0.00  0.00     0.313 HD
ENDBRANCH   6  12
TORSDOF 1
