REMARK  1 active torsions:
REMARK  status: ('A' for Active; 'I' for Inactive)
REMARK    1  A    between atoms: C6_6  and  N1_7 
ROOT
ATOM      1  C1  <0> d          -0.017   1.388   0.010  0.00  0.00    -0.057 A 
ATOM      2  C2  <0> d           1.165   2.095   0.002  0.00  0.00    -0.064 A 
ATOM      3  C3  <0> d           2.382   1.409  -0.013  0.00  0.00     0.048 A 
ATOM      4  C4  <0> d           2.388   0.008  -0.021  0.00  0.00    -0.016 A 
ATOM      5  C5  <0> d           1.217  -0.686  -0.014  0.00  0.00    -0.049 A 
ATOM      6  C6  <0> d           0.002  -0.004   0.002  0.00  0.00     0.026 A 
ATOM      7  C7  <0> d           3.839  -0.404  -0.037  0.00  0.00     0.054 A 
ATOM      8  O1  <0> d           4.609   0.801  -0.038  0.00  0.00    -0.313 OA
ATOM      9  C8  <0> d           3.783   1.860  -0.024  0.00  0.00     0.294 A 
ATOM     10  O2  <0> d           4.140   3.022  -0.022  0.00  0.00    -0.259 OA
ATOM     11  H1  <0> d          -0.960   1.915   0.026  0.00  0.00     0.086 H 
ATOM     12  H2  <0> d           1.151   3.175   0.008  0.00  0.00     0.085 H 
ATOM     13  H3  <0> d           1.230  -1.766  -0.020  0.00  0.00     0.087 H 
ATOM     14  H6  <0> d           4.069  -0.993   0.851  0.00  0.00     0.082 H 
ATOM     15  H7  <0> d           4.052  -0.984  -0.935  0.00  0.00     0.082 H 
ENDROOT
BRANCH   6  16
ATOM     16  N1  <0> d          -1.193  -0.715   0.010  0.00  0.00    -0.399 N 
ATOM     17  H4  <0> d          -2.039  -0.240   0.020  0.00  0.00     0.156 HD
ATOM     18  H5  <0> d          -1.180  -1.684   0.004  0.00  0.00     0.156 HD
ENDBRANCH   6  16
TORSDOF 1
