REMARK  0 active torsions:
REMARK  status: ('A' for Active; 'I' for Inactive)
ROOT
ATOM      1  C1  <0> d           1.157   3.157   0.008  0.00  0.00    -0.082 A 
ATOM      2  C2  <0> d           1.160   1.768   0.001  0.00  0.00    -0.082 A 
ATOM      3  C3  <0> d          -0.013   1.076   0.008  0.00  0.00    -0.065 A 
ATOM      4  C4  <0> d          -1.243   1.757   0.018  0.00  0.00     0.018 A 
ATOM      5  C5  <0> d          -1.246   3.156   0.031  0.00  0.00     0.018 A 
ATOM      6  C6  <0> d          -0.019   3.843   0.023  0.00  0.00    -0.065 A 
ATOM      7  S1  <0> d          -2.888   3.804   0.050  0.00  0.00    -0.111 SA
ATOM      8  C7  <0> d          -3.949   2.450   0.053  0.00  0.00     0.066 A 
ATOM      9  S2  <0> d          -2.881   1.101   0.035  0.00  0.00    -0.111 SA
ATOM     10  H1  <0> d           2.093   3.696   0.002  0.00  0.00     0.083 H 
ATOM     11  H2  <0> d           2.099   1.233  -0.011  0.00  0.00     0.083 H 
ATOM     12  H3  <0> d           0.002  -0.004   0.002  0.00  0.00     0.085 H 
ATOM     13  H4  <0> d          -0.009   4.923   0.028  0.00  0.00     0.085 H 
ATOM     14  H5  <0> d          -5.037   2.290   0.062  0.00  0.00     0.077 H 
ENDROOT
TORSDOF 0
