REMARK  3 active torsions:
REMARK  status: ('A' for Active; 'I' for Inactive)
REMARK    1  A    between atoms: C1_1  and  C2_2 
REMARK    2  A    between atoms: C2_2  and  C6_8 
REMARK    3  A    between atoms: C6_8  and  O3_9 
ROOT
ATOM      1  C2  <0> d           0.002  -0.004   0.002  0.00  0.00     0.020 C 
ATOM      2  C3  <0> d           0.713  -0.501  -1.261  0.00  0.00     0.033 C 
ATOM      3  O1  <0> d          -0.064  -0.128  -2.406  0.00  0.00    -0.366 OA
ATOM      4  C4  <0> d          -1.401  -0.635  -2.387  0.00  0.00     0.103 C 
ATOM      5  O2  <0> d          -2.073  -0.162  -1.218  0.00  0.00    -0.366 OA
ATOM      6  C5  <0> d          -1.435  -0.537   0.006  0.00  0.00     0.033 C 
ATOM      7  H4  <0> d           1.703  -0.048  -1.325  0.00  0.00     0.075 H 
ATOM      8  H5  <0> d           0.809  -1.586  -1.223  0.00  0.00     0.075 H 
ATOM      9  H6  <0> d          -1.376  -1.724  -2.376  0.00  0.00     0.117 H 
ATOM     10  H7  <0> d          -1.932  -0.292  -3.275  0.00  0.00     0.117 H 
ATOM     11  H8  <0> d          -1.421  -1.624   0.092  0.00  0.00     0.075 H 
ATOM     12  H9  <0> d          -1.980  -0.110   0.848  0.00  0.00     0.075 H 
ENDROOT
BRANCH   1  13
ATOM     13  C1  <0> d          -0.019   1.526   0.010  0.00  0.00    -0.063 C 
ATOM     14  H1  <0> d           1.004   1.903   0.003  0.00  0.00     0.028 H 
ATOM     15  H2  <0> d          -0.546   1.887  -0.873  0.00  0.00     0.028 H 
ATOM     16  H3  <0> d          -0.529   1.877   0.907  0.00  0.00     0.028 H 
ENDBRANCH   1  13
BRANCH   1  17
ATOM     17  C6  <0> d           0.742  -0.513   1.241  0.00  0.00     0.027 C 
ATOM     18  H10 <0> d           0.232  -0.163   2.138  0.00  0.00     0.075 H 
ATOM     19  H11 <0> d           0.755  -1.603   1.233  0.00  0.00     0.075 H 
BRANCH  17  20
ATOM     20  O3  <0> d           2.083  -0.020   1.231  0.00  0.00    -0.400 OA
ATOM     21  H12 <0> d           2.612  -0.304   1.989  0.00  0.00     0.209 HD
ENDBRANCH  17  20
ENDBRANCH   1  17
TORSDOF 3
