REMARK  2 active torsions:
REMARK  status: ('A' for Active; 'I' for Inactive)
REMARK    1  A    between atoms: C1_1  and  N1_2 
REMARK    2  A    between atoms: C3_4  and  C6_9 
REMARK       I    between atoms: C6_9  and  N2_11 
ROOT
ATOM      1  N1  <0> d          -0.698   1.558   1.213  0.00  0.00    -0.356 N 
ATOM      2  C2  <0> d          -0.898   2.972   1.552  0.00  0.00     0.009 C 
ATOM      3  C3  <0> d          -2.012   2.984   2.625  0.00  0.00     0.047 C 
ATOM      4  H1  <0> d          -2.995   3.105   2.171  0.00  0.00     0.057 H 
ATOM      5  C4  <0> d          -1.860   1.577   3.249  0.00  0.00     0.022 C 
ATOM      6  C5  <0> d          -1.221   0.752   2.154  0.00  0.00     0.220 C 
ATOM      7  O1  <0> d          -1.185  -0.460   2.128  0.00  0.00    -0.273 OA
ATOM      8  H5  <0> d           0.022   3.397   1.954  0.00  0.00     0.065 H 
ATOM      9  H6  <0> d          -1.218   3.530   0.672  0.00  0.00     0.065 H 
ATOM     10  H7  <0> d          -2.836   1.170   3.514  0.00  0.00     0.048 H 
ATOM     11  H8  <0> d          -1.212   1.616   4.125  0.00  0.00     0.048 H 
ENDROOT
BRANCH   3  12
ATOM     12  C6  <0> d          -1.757   4.059   3.650  0.00  0.00     0.221 C 
ATOM     13  O2  <0> d          -0.844   4.842   3.494  0.00  0.00    -0.273 OA
ATOM     14  N2  <0> d          -2.543   4.151   4.741  0.00  0.00    -0.370 N 
ATOM     15  H9  <0> d          -3.274   3.524   4.866  0.00  0.00     0.159 HD
ATOM     16  H10 <0> d          -2.379   4.842   5.400  0.00  0.00     0.159 HD
ENDBRANCH   3  12
BRANCH   1  17
ATOM     17  C1  <0> d          -0.013   1.086   0.008  0.00  0.00    -0.016 C 
ATOM     18  H2  <0> d           0.002  -0.004   0.002  0.00  0.00     0.056 H 
ATOM     19  H3  <0> d           1.010   1.463   0.000  0.00  0.00     0.056 H 
ATOM     20  H4  <0> d          -0.540   1.447  -0.875  0.00  0.00     0.056 H 
ENDBRANCH   1  17
TORSDOF 2
