REMARK  0 active torsions:
REMARK  status: ('A' for Active; 'I' for Inactive)
ROOT
ATOM      1  C1  <0> d           1.030   2.322   0.005  0.00  0.00     0.031 A 
ATOM      2  C2  <0> d          -0.017   1.428   0.010  0.00  0.00     0.105 A 
ATOM      3  S1  <0> d          -1.407   2.551   0.021  0.00  0.00    -0.046 SA
ATOM      4  C3  <0> d          -0.500   4.032   0.029  0.00  0.00     0.168 A 
ATOM      5  N1  <0> d           0.745   3.601   0.014  0.00  0.00    -0.239 NA
ATOM      6 Cl1  <0> d          -1.085   5.666   0.043  0.00  0.00    -0.054 Cl
ATOM      7  C4  <0> d           0.002  -0.004   0.002  0.00  0.00     0.108 C 
ATOM      8  N2  <0> d           0.018  -1.140  -0.004  0.00  0.00    -0.191 NA
ATOM      9  H1  <0> d           2.054   1.980  -0.007  0.00  0.00     0.118 H 
ENDROOT
TORSDOF 0
