REMARK  2 active torsions:
REMARK  status: ('A' for Active; 'I' for Inactive)
REMARK    1  A    between atoms: C7_7  and  C8_10 
REMARK    2  A    between atoms: C8_10  and  O2_11 
ROOT
ATOM      1  C1  <0> d          -0.013   1.076   0.008  0.00  0.00    -0.082 A 
ATOM      2  C2  <0> d           1.183   1.781   0.000  0.00  0.00    -0.080 A 
ATOM      3  C3  <0> d           1.185   3.159   0.008  0.00  0.00    -0.047 A 
ATOM      4  C4  <0> d          -0.020   3.851   0.023  0.00  0.00     0.113 A 
ATOM      5  C5  <0> d          -1.228   3.134   0.031  0.00  0.00     0.029 A 
ATOM      6  C6  <0> d          -1.208   1.737   0.017  0.00  0.00    -0.068 A 
ATOM      7  C7  <0> d          -2.301   4.132   0.047  0.00  0.00     0.098 A 
ATOM      8  N1  <0> d          -1.743   5.303   0.048  0.00  0.00    -0.130 NA
ATOM      9  O1  <0> d          -0.337   5.161   0.033  0.00  0.00    -0.212 OA
ATOM     10  H1  <0> d           0.002  -0.004   0.002  0.00  0.00     0.083 H 
ATOM     11  H2  <0> d           2.120   1.244  -0.011  0.00  0.00     0.083 H 
ATOM     12  H3  <0> d           2.120   3.699   0.002  0.00  0.00     0.087 H 
ATOM     13  H4  <0> d          -2.134   1.182   0.019  0.00  0.00     0.085 H 
ENDROOT
BRANCH   7  14
ATOM     14  C8  <0> d          -3.782   3.850   0.060  0.00  0.00     0.059 C 
ATOM     15  H5  <0> d          -4.315   4.666  -0.449  0.00  0.00     0.083 H 
ATOM     16  H6  <0> d          -3.979   2.901  -0.462  0.00  0.00     0.083 H 
BRANCH  14  17
ATOM     17  O2  <0> d          -4.236   3.753   1.411  0.00  0.00    -0.395 OA
ATOM     18  H7  <0> d          -5.296   3.549   1.622  0.00  0.00     0.209 HD
ENDBRANCH  14  17
ENDBRANCH   7  14
TORSDOF 2
