REMARK  4 active torsions:
REMARK  status: ('A' for Active; 'I' for Inactive)
REMARK    1  A    between atoms: C1_1  and  O1_2 
REMARK    2  A    between atoms: O1_2  and  C2_3 
REMARK    3  A    between atoms: C5_7  and  O2_8 
REMARK    4  A    between atoms: O2_8  and  C6_9 
ROOT
ATOM      1  C2  <0> d          -1.978   1.162   1.349  0.00  0.00     0.108 A 
ATOM      2  C3  <0> d          -2.588   0.375   0.425  0.00  0.00    -0.010 A 
ATOM      3  S1  <0> d          -4.221   0.184   1.119  0.00  0.00    -0.108 SA
ATOM      4  C4  <0> d          -3.988   1.163   2.593  0.00  0.00    -0.010 A 
ATOM      5  C5  <0> d          -2.696   1.563   2.466  0.00  0.00     0.108 A 
ATOM      6  H4  <0> d          -2.188  -0.030  -0.493  0.00  0.00     0.099 H 
ATOM      7  H5  <0> d          -4.691   1.379   3.384  0.00  0.00     0.099 H 
ENDROOT
BRANCH   1   8
ATOM      8  O1  <0> d          -0.682   1.547   1.184  0.00  0.00    -0.353 OA
BRANCH   8   9
ATOM      9  C1  <0> d          -0.013   1.086   0.008  0.00  0.00     0.011 C 
ATOM     10  H1  <0> d           0.002  -0.004   0.002  0.00  0.00     0.067 H 
ATOM     11  H2  <0> d           1.010   1.463   0.000  0.00  0.00     0.067 H 
ATOM     12  H3  <0> d          -0.540   1.447  -0.875  0.00  0.00     0.067 H 
ENDBRANCH   8   9
ENDBRANCH   1   8
BRANCH   5  13
ATOM     13  O2  <0> d          -2.117   2.348   3.417  0.00  0.00    -0.353 OA
BRANCH  13  14
ATOM     14  C6  <0> d          -2.926   2.715   4.536  0.00  0.00     0.011 C 
ATOM     15  H6  <0> d          -2.344   3.338   5.216  0.00  0.00     0.067 H 
ATOM     16  H7  <0> d          -3.796   3.272   4.188  0.00  0.00     0.067 H 
ATOM     17  H8  <0> d          -3.254   1.817   5.058  0.00  0.00     0.067 H 
ENDBRANCH  13  14
ENDBRANCH   5  13
TORSDOF 4
