REMARK  0 active torsions:
REMARK  status: ('A' for Active; 'I' for Inactive)
ROOT
ATOM      1  C1  <0> d           0.002  -0.004   0.002  0.00  0.00    -0.119 C 
ATOM      2  C2  <0> d          -0.016   1.306   0.009  0.00  0.00    -0.088 C 
ATOM      3  C3  <0> d          -1.323   2.067   0.019  0.00  0.00    -0.042 C 
ATOM      4  C4  <0> d          -1.310   3.088  -1.113  0.00  0.00    -0.044 C 
ATOM      5  H1  <0> d          -2.195   3.735  -1.020  0.00  0.00     0.041 H 
ATOM      6  C5  <0> d          -0.062   3.961  -1.022  0.00  0.00    -0.057 C 
ATOM      7  C6  <0> d           1.208   3.122  -1.137  0.00  0.00    -0.044 C 
ATOM      8  H2  <0> d           2.077   3.792  -1.067  0.00  0.00     0.041 H 
ATOM      9  C7  <0> d           1.271   2.102   0.001  0.00  0.00    -0.042 C 
ATOM     10  C8  <0> d           1.242   2.399  -2.485  0.00  0.00    -0.006 C 
ATOM     11  C9  <0> d          -0.046   1.624  -2.652  0.00  0.00     0.127 C 
ATOM     12  O1  <0> d          -0.033   0.449  -2.931  0.00  0.00    -0.298 OA
ATOM     13  C10 <0> d          -1.351   2.364  -2.460  0.00  0.00    -0.006 C 
ATOM     14  H3  <0> d          -0.943  -0.567   0.008  0.00  0.00     0.067 H 
ATOM     15  H4  <0> d           0.962  -0.541  -0.010  0.00  0.00     0.067 H 
ATOM     16  H5  <0> d          -2.157   1.364  -0.124  0.00  0.00     0.040 H 
ATOM     17  H6  <0> d          -1.440   2.582   0.984  0.00  0.00     0.040 H 
ATOM     18  H7  <0> d          -0.070   4.699  -1.839  0.00  0.00     0.034 H 
ATOM     19  H8  <0> d          -0.050   4.485  -0.055  0.00  0.00     0.034 H 
ATOM     20  H9  <0> d           1.386   2.622   0.964  0.00  0.00     0.040 H 
ATOM     21  H10 <0> d           2.122   1.422  -0.152  0.00  0.00     0.040 H 
ATOM     22  H11 <0> d           1.343   3.137  -3.294  0.00  0.00     0.044 H 
ATOM     23  H12 <0> d           2.099   1.709  -2.509  0.00  0.00     0.044 H 
ATOM     24  H13 <0> d          -2.190   1.652  -2.468  0.00  0.00     0.044 H 
ATOM     25  H14 <0> d          -1.487   3.099  -3.267  0.00  0.00     0.044 H 
ENDROOT
TORSDOF 0
