REMARK  2 active torsions:
REMARK  status: ('A' for Active; 'I' for Inactive)
REMARK    1  A    between atoms: C5_5  and  O2_12 
REMARK    2  A    between atoms: C6_7  and  O1_11 
ROOT
ATOM      1  C1  <0> d           3.798   2.913   1.230  0.00  0.00    -0.065 C 
ATOM      2  C2  <0> d           4.217   3.533  -0.104  0.00  0.00    -0.065 C 
ATOM      3  C3  <0> d           3.319   2.996  -1.220  0.00  0.00    -0.063 C 
ATOM      4  C4  <0> d           1.952   3.680  -1.148  0.00  0.00    -0.039 C 
ATOM      5  C5  <0> d           1.145   3.085   0.007  0.00  0.00     0.060 C 
ATOM      6  H1  <0> d           1.519   3.479   0.952  0.00  0.00     0.086 H 
ATOM      7  C6  <0> d           1.286   1.562  -0.002  0.00  0.00     0.060 C 
ATOM      8  H2  <0> d           1.823   1.252  -0.899  0.00  0.00     0.086 H 
ATOM      9  C7  <0> d           2.063   1.114   1.238  0.00  0.00    -0.039 C 
ATOM     10  C8  <0> d           3.551   1.415   1.042  0.00  0.00    -0.063 C 
ATOM     11  H3  <0> d           2.883   3.390   1.581  0.00  0.00     0.033 H 
ATOM     12  H4  <0> d           4.589   3.061   1.965  0.00  0.00     0.033 H 
ATOM     13  H5  <0> d           4.118   4.617  -0.048  0.00  0.00     0.033 H 
ATOM     14  H6  <0> d           5.254   3.273  -0.315  0.00  0.00     0.033 H 
ATOM     15  H7  <0> d           3.778   3.203  -2.187  0.00  0.00     0.033 H 
ATOM     16  H8  <0> d           3.194   1.920  -1.100  0.00  0.00     0.033 H 
ATOM     17  H9  <0> d           2.089   4.749  -0.983  0.00  0.00     0.036 H 
ATOM     18  H10 <0> d           1.417   3.522  -2.084  0.00  0.00     0.036 H 
ATOM     19  H11 <0> d           1.696   1.652   2.111  0.00  0.00     0.036 H 
ATOM     20  H12 <0> d           1.925   0.043   1.386  0.00  0.00     0.036 H 
ATOM     21  H13 <0> d           4.134   0.855   1.774  0.00  0.00     0.033 H 
ATOM     22  H14 <0> d           3.852   1.120   0.036  0.00  0.00     0.033 H 
ENDROOT
BRANCH   5  23
ATOM     23  O2  <0> d          -0.232   3.436  -0.143  0.00  0.00    -0.393 OA
ATOM     24  H16 <0> d          -0.397   4.389  -0.146  0.00  0.00     0.210 HD
ENDBRANCH   5  23
BRANCH   7  25
ATOM     25  O1  <0> d          -0.011   0.963   0.007  0.00  0.00    -0.393 OA
ATOM     26  H15 <0> d           0.002  -0.004   0.002  0.00  0.00     0.210 HD
ENDBRANCH   7  25
TORSDOF 2
