REMARK  2 active torsions:
REMARK  status: ('A' for Active; 'I' for Inactive)
REMARK    1  A    between atoms: C1_1  and  N1_2 
REMARK    2  A    between atoms: C3_4  and  C6_9 
REMARK       I    between atoms: C6_9  and  N2_11 
ROOT
ATOM      1  N1  <0> d           0.002  -0.004   0.002  0.00  0.00    -0.356 N 
ATOM      2  C2  <0> d          -1.198  -0.849   0.015  0.00  0.00     0.009 C 
ATOM      3  C3  <0> d          -0.720  -2.248  -0.439  0.00  0.00     0.047 C 
ATOM      4  H1  <0> d          -1.257  -3.033   0.093  0.00  0.00     0.057 H 
ATOM      5  C4  <0> d           0.770  -2.219  -0.027  0.00  0.00     0.022 C 
ATOM      6  C5  <0> d           1.122  -0.747  -0.012  0.00  0.00     0.220 C 
ATOM      7  O1  <0> d           2.251  -0.303  -0.013  0.00  0.00    -0.273 OA
ATOM      8  H5  <0> d          -1.614  -0.897   1.021  0.00  0.00     0.065 H 
ATOM      9  H6  <0> d          -1.940  -0.460  -0.683  0.00  0.00     0.065 H 
ATOM     10  H7  <0> d           1.379  -2.749  -0.759  0.00  0.00     0.048 H 
ATOM     11  H8  <0> d           0.902  -2.652   0.964  0.00  0.00     0.048 H 
ENDROOT
BRANCH   3  12
ATOM     12  C6  <0> d          -0.864  -2.416  -1.930  0.00  0.00     0.221 C 
ATOM     13  O2  <0> d          -1.411  -1.555  -2.587  0.00  0.00    -0.273 OA
ATOM     14  N2  <0> d          -0.386  -3.522  -2.533  0.00  0.00    -0.370 N 
ATOM     15  H9  <0> d           0.052  -4.210  -2.007  0.00  0.00     0.159 HD
ATOM     16  H10 <0> d          -0.478  -3.630  -3.492  0.00  0.00     0.159 HD
ENDBRANCH   3  12
BRANCH   1  17
ATOM     17  C1  <0> d          -0.018   1.461   0.010  0.00  0.00    -0.016 C 
ATOM     18  H2  <0> d           1.005   1.838   0.002  0.00  0.00     0.056 H 
ATOM     19  H3  <0> d          -0.545   1.822  -0.873  0.00  0.00     0.056 H 
ATOM     20  H4  <0> d          -0.528   1.812   0.907  0.00  0.00     0.056 H 
ENDBRANCH   1  17
TORSDOF 2
