REMARK  6 active torsions:
REMARK  status: ('A' for Active; 'I' for Inactive)
REMARK    1  A    between atoms: C1_1  and  C2_2 
REMARK    2  A    between atoms: C2_2  and  C3_3 
REMARK    3  A    between atoms: C2_2  and  C4_4 
REMARK    4  A    between atoms: C2_2  and  C5_5 
REMARK    5  A    between atoms: C5_5  and  C6_7 
REMARK    6  A    between atoms: C5_5  and  O2_9 
ROOT
ATOM      1  C2  <0> d          -1.471   2.714   1.331  0.00  0.00    -0.015 C 
ENDROOT
BRANCH   1   2
ATOM      2  C1  <0> d          -0.324   3.718   1.457  0.00  0.00    -0.067 C 
ATOM      3  H2  <0> d          -0.357   4.415   0.619  0.00  0.00     0.028 H 
ATOM      4  H3  <0> d          -0.424   4.269   2.392  0.00  0.00     0.028 H 
ATOM      5  H4  <0> d           0.628   3.186   1.450  0.00  0.00     0.028 H 
ENDBRANCH   1   2
BRANCH   1   6
ATOM      6  C3  <0> d          -2.806   3.461   1.341  0.00  0.00    -0.067 C 
ATOM      7  H5  <0> d          -3.623   2.745   1.252  0.00  0.00     0.028 H 
ATOM      8  H6  <0> d          -2.907   4.012   2.276  0.00  0.00     0.028 H 
ATOM      9  H7  <0> d          -2.839   4.157   0.504  0.00  0.00     0.028 H 
ENDBRANCH   1   6
BRANCH   1  10
ATOM     10  C4  <0> d          -1.424   1.736   2.507  0.00  0.00    -0.067 C 
ATOM     11  H8  <0> d          -0.473   1.204   2.500  0.00  0.00     0.028 H 
ATOM     12  H9  <0> d          -1.525   2.288   3.442  0.00  0.00     0.028 H 
ATOM     13  H10 <0> d          -2.241   1.021   2.418  0.00  0.00     0.028 H 
ENDBRANCH   1  10
BRANCH   1  14
ATOM     14  C5  <0> d          -1.329   1.940   0.019  0.00  0.00     0.125 C 
ATOM     15  H1  <0> d          -1.363   2.636  -0.819  0.00  0.00     0.101 H 
BRANCH  14  16
ATOM     16  C6  <0> d          -0.014   1.204   0.009  0.00  0.00     0.203 C 
ATOM     17  O1  <0> d           0.002  -0.004   0.002  0.00  0.00    -0.646 OA
ATOM     18  O3  <0> d           1.139   1.891   0.001  0.00  0.00    -0.646 OA
ENDBRANCH  14  16
BRANCH  14  19
ATOM     19  O2  <0> d          -2.401   1.002  -0.099  0.00  0.00    -0.384 OA
ATOM     20  H11 <0> d          -2.433   0.350   0.615  0.00  0.00     0.210 HD
ENDBRANCH  14  19
ENDBRANCH   1  14
TORSDOF 6
