REMARK  3 active torsions:
REMARK  status: ('A' for Active; 'I' for Inactive)
REMARK    1  A    between atoms: C1_1  and  C2_2 
REMARK    2  A    between atoms: C4_4  and  C8_9 
REMARK    3  A    between atoms: C8_9  and  C9_11 
ROOT
ATOM      1  C2  <0> d           1.166   3.438   0.009  0.00  0.00    -0.058 A 
ATOM      2  C3  <0> d          -0.031   4.124   0.025  0.00  0.00    -0.064 A 
ATOM      3  C4  <0> d          -1.238   3.418   0.032  0.00  0.00     0.013 A 
ATOM      4  C5  <0> d          -1.222   2.020   0.019  0.00  0.00    -0.032 A 
ATOM      5  C6  <0> d          -0.016   1.347   0.009  0.00  0.00     0.117 A 
ATOM      6  C7  <0> d           1.176   2.055   0.002  0.00  0.00    -0.040 A 
ATOM      7  F1  <0> d           0.002  -0.004   0.002  0.00  0.00    -0.206 F 
ATOM      8  H4  <0> d          -0.035   5.204   0.030  0.00  0.00     0.085 H 
ATOM      9  H5  <0> d          -2.151   1.468   0.020  0.00  0.00     0.089 H 
ATOM     10  H6  <0> d           2.116   1.524  -0.010  0.00  0.00     0.089 H 
ENDROOT
BRANCH   3  11
ATOM     11  C8  <0> d          -2.518   4.143   0.047  0.00  0.00     0.155 C 
ATOM     12  O1  <0> d          -2.528   5.356   0.054  0.00  0.00    -0.293 OA
BRANCH  11  13
ATOM     13  C9  <0> d          -3.817   3.379   0.055  0.00  0.00    -0.017 C 
ATOM     14  H7  <0> d          -4.096   3.205   1.000  0.00  0.00     0.038 H 
ATOM     15  H8  <0> d          -4.586   3.964  -0.449  0.00  0.00     0.038 H 
ATOM     16  H9  <0> d          -3.683   2.430  -0.465  0.00  0.00     0.038 H 
ENDBRANCH  11  13
ENDBRANCH   3  11
BRANCH   1  17
ATOM     17  C1  <0> d           2.467   4.199   0.002  0.00  0.00    -0.051 C 
ATOM     18  H1  <0> d           2.772   4.387  -1.028  0.00  0.00     0.033 H 
ATOM     19  H2  <0> d           2.337   5.147   0.522  0.00  0.00     0.033 H 
ATOM     20  H3  <0> d           3.235   3.611   0.505  0.00  0.00     0.033 H 
ENDBRANCH   1  17
TORSDOF 3
