REMARK  6 active torsions:
REMARK  status: ('A' for Active; 'I' for Inactive)
REMARK    1  A    between atoms: C1_1  and  C2_2 
REMARK    2  A    between atoms: C2_2  and  C3_3 
REMARK    3  A    between atoms: C3_3  and  C4_4 
REMARK    4  A    between atoms: C4_4  and  C5_6 
REMARK    5  A    between atoms: C4_4  and  C6_7 
REMARK    6  A    between atoms: C6_7  and  O1_8 
ROOT
ATOM      1  C4  <0> d          -1.413  -2.063   0.004  0.00  0.00    -0.037 C 
ATOM      2  H1  <0> d          -0.826  -2.414  -0.845  0.00  0.00     0.042 H 
ENDROOT
BRANCH   1   3
ATOM      3  C3  <0> d          -1.433  -0.534   0.013  0.00  0.00    -0.060 C 
ATOM      4  H7  <0> d          -1.944  -0.182   0.910  0.00  0.00     0.033 H 
ATOM      5  H8  <0> d          -1.960  -0.173  -0.870  0.00  0.00     0.033 H 
BRANCH   3   6
ATOM      6  C2  <0> d           0.002  -0.004   0.002  0.00  0.00    -0.068 C 
ATOM      7  H5  <0> d           0.512  -0.356  -0.895  0.00  0.00     0.032 H 
ATOM      8  H6  <0> d           0.529  -0.365   0.885  0.00  0.00     0.032 H 
BRANCH   6   9
ATOM      9  C1  <0> d          -0.019   1.526   0.010  0.00  0.00    -0.077 C 
ATOM     10  H2  <0> d           1.004   1.903   0.003  0.00  0.00     0.027 H 
ATOM     11  H3  <0> d          -0.546   1.887  -0.873  0.00  0.00     0.027 H 
ATOM     12  H4  <0> d          -0.529   1.877   0.907  0.00  0.00     0.027 H 
ENDBRANCH   6   9
ENDBRANCH   3   6
ENDBRANCH   1   3
BRANCH   1  13
ATOM     13  C5  <0> d          -0.784  -2.572   1.303  0.00  0.00    -0.071 C 
ATOM     14  H9  <0> d          -0.769  -3.662   1.297  0.00  0.00     0.028 H 
ATOM     15  H10 <0> d           0.236  -2.195   1.385  0.00  0.00     0.028 H 
ATOM     16  H11 <0> d          -1.370  -2.221   2.152  0.00  0.00     0.028 H 
ENDBRANCH   1  13
BRANCH   1  17
ATOM     17  C6  <0> d          -2.844  -2.592  -0.110  0.00  0.00     0.020 C 
ATOM     18  H12 <0> d          -3.406  -2.317   0.782  0.00  0.00     0.074 H 
ATOM     19  H13 <0> d          -3.322  -2.159  -0.989  0.00  0.00     0.074 H 
BRANCH  17  20
ATOM     20  O1  <0> d          -2.817  -4.016  -0.235  0.00  0.00    -0.400 OA
ATOM     21  H14 <0> d          -3.692  -4.420  -0.313  0.00  0.00     0.209 HD
ENDBRANCH  17  20
ENDBRANCH   1  17
TORSDOF 6
