REMARK  3 active torsions:
REMARK  status: ('A' for Active; 'I' for Inactive)
REMARK    1  A    between atoms: C1_1  and  C2_2 
REMARK    2  A    between atoms: C2_2  and  C3_3 
REMARK    3  A    between atoms: C4_4  and  C5_8 
REMARK       I    between atoms: C5_8  and  N3_10 
ROOT
ATOM      1  C3  <0> d           0.731  -0.503   1.223  0.00  0.00     0.081 A 
ATOM      2  C4  <0> d           2.102  -0.731   1.240  0.00  0.00     0.119 A 
ATOM      3  S1  <0> d           2.304  -1.289   2.924  0.00  0.00     0.042 SA
ATOM      4  N1  <0> d           0.755  -1.185   3.392  0.00  0.00    -0.110 NA
ATOM      5  N2  <0> d           0.126  -0.754   2.358  0.00  0.00    -0.146 NA
ENDROOT
BRANCH   1   6
ATOM      6  C2  <0> d           0.002  -0.004   0.002  0.00  0.00    -0.025 C 
ATOM      7  H4  <0> d          -1.020  -0.381   0.010  0.00  0.00     0.042 H 
ATOM      8  H5  <0> d           0.512  -0.356  -0.895  0.00  0.00     0.042 H 
BRANCH   6   9
ATOM      9  C1  <0> d          -0.019   1.526   0.010  0.00  0.00    -0.071 C 
ATOM     10  H1  <0> d           1.004   1.903   0.003  0.00  0.00     0.028 H 
ATOM     11  H2  <0> d          -0.546   1.887  -0.873  0.00  0.00     0.028 H 
ATOM     12  H3  <0> d          -0.529   1.877   0.907  0.00  0.00     0.028 H 
ENDBRANCH   6   9
ENDBRANCH   1   6
BRANCH   2  13
ATOM     13  C5  <0> d           3.102  -0.559   0.175  0.00  0.00     0.259 C 
ATOM     14  O1  <0> d           2.760  -0.162  -0.922  0.00  0.00    -0.267 OA
ATOM     15  N3  <0> d           4.398  -0.844   0.414  0.00  0.00    -0.365 N 
ATOM     16  H6  <0> d           4.671  -1.161   1.289  0.00  0.00     0.159 HD
ATOM     17  H7  <0> d           5.057  -0.731  -0.288  0.00  0.00     0.159 HD
ENDBRANCH   2  13
TORSDOF 3
