REMARK  0 active torsions:
REMARK  status: ('A' for Active; 'I' for Inactive)
ROOT
ATOM      1  C1  <0> d          -0.016   1.343   0.009  0.00  0.00    -0.066 A 
ATOM      2  C2  <0> d           1.323   1.786  -0.001  0.00  0.00    -0.066 A 
ATOM      3  C3  <0> d           2.112   0.695  -0.014  0.00  0.00    -0.005 A 
ATOM      4  N1  <0> d           1.308  -0.413  -0.013  0.00  0.00    -0.271 N 
ATOM      5  C4  <0> d           0.002  -0.004   0.002  0.00  0.00    -0.005 A 
ATOM      6  C5  <0> d           1.734  -1.700  -0.024  0.00  0.00     0.188 C 
ATOM      7  N2  <0> d           2.091  -2.778  -0.034  0.00  0.00    -0.171 NA
ATOM      8  H1  <0> d          -0.896   1.969   0.025  0.00  0.00     0.085 H 
ATOM      9  H2  <0> d           1.655   2.814   0.001  0.00  0.00     0.085 H 
ATOM     10  H3  <0> d           3.192   0.693  -0.025  0.00  0.00     0.113 H 
ATOM     11  H4  <0> d          -0.864  -0.649   0.007  0.00  0.00     0.113 H 
ENDROOT
TORSDOF 0
