REMARK  3 active torsions:
REMARK  status: ('A' for Active; 'I' for Inactive)
REMARK    1  A    between atoms: C1_1  and  C2_2 
REMARK    2  A    between atoms: C4_4  and  C6_9 
REMARK    3  A    between atoms: C5_6  and  N3_8 
ROOT
ATOM      1  C2  <0> d           2.283   1.432  -0.012  0.00  0.00     0.073 A 
ATOM      2  C3  <0> d           2.339   0.046  -0.020  0.00  0.00     0.083 A 
ATOM      3  C4  <0> d           1.148  -0.665  -0.013  0.00  0.00     0.073 A 
ATOM      4  N1  <0> d           0.002  -0.004   0.002  0.00  0.00    -0.067 NA
ATOM      5  C5  <0> d          -0.016   1.321   0.009  0.00  0.00     0.720 A 
ATOM      6  N2  <0> d           1.103   2.030   0.002  0.00  0.00    -0.067 NA
ATOM      7 Cl1  <0> d           3.865  -0.780  -0.039  0.00  0.00    -0.080 Cl
ENDROOT
BRANCH   1   8
ATOM      8  C1  <0> d           3.551   2.247  -0.020  0.00  0.00    -0.033 C 
ATOM      9  H1  <0> d           3.846   2.449  -1.050  0.00  0.00     0.035 H 
ATOM     10  H2  <0> d           3.381   3.189   0.500  0.00  0.00     0.035 H 
ATOM     11  H3  <0> d           4.343   1.692   0.483  0.00  0.00     0.035 H 
ENDBRANCH   1   8
BRANCH   5  12
ATOM     12  N3  <0> d          -1.234   1.980   0.019  0.00  0.00    -0.231 N 
ATOM     13  H4  <0> d          -2.060   1.472   0.020  0.00  0.00     0.174 HD
ATOM     14  H5  <0> d          -1.260   2.949   0.024  0.00  0.00     0.174 HD
ENDBRANCH   5  12
BRANCH   3  15
ATOM     15  C6  <0> d           1.159  -2.172  -0.021  0.00  0.00    -0.033 C 
ATOM     16  H6  <0> d           1.152  -2.529  -1.051  0.00  0.00     0.035 H 
ATOM     17  H7  <0> d           2.057  -2.531   0.482  0.00  0.00     0.035 H 
ATOM     18  H8  <0> d           0.277  -2.545   0.499  0.00  0.00     0.035 H 
ENDBRANCH   3  15
TORSDOF 3
