REMARK  4 active torsions:
REMARK  status: ('A' for Active; 'I' for Inactive)
REMARK    1  A    between atoms: C1_1  and  C2_2 
REMARK    2  A    between atoms: C2_2  and  C3_4 
REMARK    3  A    between atoms: C2_2  and  C8_10 
REMARK    4  A    between atoms: C8_10  and  C9_12 
ROOT
ATOM      1  C2  <0> d           3.691   2.058  -0.023  0.00  0.00     0.042 C 
ATOM      2  H1  <0> d           4.399   1.468   0.365  0.00  0.00     0.060 H 
ENDROOT
BRANCH   1   3
ATOM      3  C1  <0> d           3.579   3.335   0.812  0.00  0.00    -0.061 C 
ATOM      4  H2  <0> d           3.313   3.076   1.837  0.00  0.00     0.029 H 
ATOM      5  H3  <0> d           4.534   3.860   0.806  0.00  0.00     0.029 H 
ATOM      6  H4  <0> d           2.808   3.979   0.389  0.00  0.00     0.029 H 
ENDBRANCH   1   3
BRANCH   1   7
ATOM      7  C3  <0> d           2.370   1.334  -0.014  0.00  0.00     0.045 A 
ATOM      8  N1  <0> d           2.350   0.015  -0.021  0.00  0.00    -0.265 NA
ATOM      9  C7  <0> d           1.218  -0.661  -0.013  0.00  0.00     0.003 A 
ATOM     10  C6  <0> d           0.002  -0.004   0.002  0.00  0.00    -0.066 A 
ATOM     11  H8  <0> d           1.241  -1.741  -0.019  0.00  0.00     0.114 H 
ATOM     12  C5  <0> d          -0.017   1.383   0.010  0.00  0.00    -0.080 A 
ATOM     13  H7  <0> d          -0.922  -0.564   0.008  0.00  0.00     0.085 H 
ATOM     14  C4  <0> d           1.193   2.059   0.002  0.00  0.00    -0.058 A 
ATOM     15  H6  <0> d          -0.952   1.923   0.017  0.00  0.00     0.083 H 
ATOM     16  H5  <0> d           1.216   3.139   0.007  0.00  0.00     0.086 H 
ENDBRANCH   1   7
BRANCH   1  17
ATOM     17  C8  <0> d           4.058   2.416  -1.440  0.00  0.00     0.132 C 
ATOM     18  O1  <0> d           3.191   2.630  -2.253  0.00  0.00    -0.298 OA
BRANCH  17  19
ATOM     19  C9  <0> d           5.507   2.507  -1.843  0.00  0.00    -0.020 C 
ATOM     20  H9  <0> d           6.086   2.301  -1.054  0.00  0.00     0.037 H 
ATOM     21  H10 <0> d           5.709   1.789  -2.639  0.00  0.00     0.037 H 
ATOM     22  H11 <0> d           5.723   3.514  -2.200  0.00  0.00     0.037 H 
ENDBRANCH  17  19
ENDBRANCH   1  17
TORSDOF 4
