REMARK  4 active torsions:
REMARK  status: ('A' for Active; 'I' for Inactive)
REMARK    1  A    between atoms: C4_5  and  N2_10 
REMARK    2  A    between atoms: C5_6  and  C6_7 
REMARK    3  A    between atoms: C6_7  and  C7_8 
REMARK    4  A    between atoms: C7_8  and  O1_9 
ROOT
ATOM      1  C1  <0> d          -0.017   1.381   0.010  0.00  0.00    -0.058 A 
ATOM      2  C2  <0> d           1.181   2.072   0.002  0.00  0.00     0.002 A 
ATOM      3  N1  <0> d           2.333   1.432  -0.013  0.00  0.00    -0.271 NA
ATOM      4  C3  <0> d           2.396   0.116  -0.020  0.00  0.00     0.027 A 
ATOM      5  C4  <0> d           1.237  -0.649  -0.013  0.00  0.00     0.050 A 
ATOM      6  C5  <0> d           0.002  -0.004   0.002  0.00  0.00    -0.027 A 
ATOM      7  H1  <0> d          -0.956   1.914   0.026  0.00  0.00     0.086 H 
ATOM      8  H2  <0> d           1.171   3.152   0.007  0.00  0.00     0.114 H 
ATOM      9  H3  <0> d           3.359  -0.373  -0.032  0.00  0.00     0.118 H 
ENDROOT
BRANCH   6  10
ATOM     10  C6  <0> d          -1.281  -0.794   0.011  0.00  0.00    -0.019 C 
ATOM     11  H4  <0> d          -2.083  -0.189  -0.413  0.00  0.00     0.043 H 
ATOM     12  H5  <0> d          -1.156  -1.698  -0.585  0.00  0.00     0.043 H 
BRANCH  10  13
ATOM     13  C7  <0> d          -1.636  -1.176   1.449  0.00  0.00     0.020 C 
ATOM     14  H6  <0> d          -0.834  -1.781   1.872  0.00  0.00     0.074 H 
ATOM     15  H7  <0> d          -1.761  -0.272   2.045  0.00  0.00     0.074 H 
BRANCH  13  16
ATOM     16  O1  <0> d          -2.853  -1.925   1.457  0.00  0.00    -0.401 OA
ATOM     17  H8  <0> d          -3.139  -2.201   2.339  0.00  0.00     0.209 HD
ENDBRANCH  13  16
ENDBRANCH  10  13
ENDBRANCH   6  10
BRANCH   5  18
ATOM     18  N2  <0> d           1.308  -2.044  -0.021  0.00  0.00    -0.398 N 
ATOM     19  H9  <0> d           2.171  -2.486  -0.032  0.00  0.00     0.156 HD
ATOM     20  H10 <0> d           0.493  -2.571  -0.017  0.00  0.00     0.156 HD
ENDBRANCH   5  18
TORSDOF 4
