REMARK  2 active torsions:
REMARK  status: ('A' for Active; 'I' for Inactive)
REMARK    1  A    between atoms: C1_1  and  N1_2 
REMARK    2  A    between atoms: C4_6  and  C5_7 
ROOT
ATOM      1  C5  <0> d           2.510   1.450  -0.014  0.00  0.00     0.054 C 
ATOM      2  C6  <0> d           2.932   1.201  -1.402  0.00  0.00     0.065 C 
ATOM      3  N3  <0> d           3.258   1.008  -2.473  0.00  0.00    -0.197 NA
ATOM      4  H6  <0> d           3.129   2.237   0.418  0.00  0.00     0.064 H 
ATOM      5  H7  <0> d           2.623   0.537   0.570  0.00  0.00     0.064 H 
ENDROOT
BRANCH   1   6
ATOM      6  C4  <0> d           1.066   1.882   0.002  0.00  0.00     0.042 A 
ATOM      7  N1  <0> d           0.599   3.169   0.013  0.00  0.00    -0.347 N 
ATOM      8  C2  <0> d          -0.750   3.104   0.025  0.00  0.00     0.065 A 
ATOM      9  N2  <0> d          -1.108   1.849   0.017  0.00  0.00    -0.254 NA
ATOM     10  H4  <0> d          -1.420   3.950   0.035  0.00  0.00     0.143 H 
ATOM     11  C3  <0> d          -0.013   1.076   0.008  0.00  0.00     0.026 A 
ATOM     12  H5  <0> d           0.002  -0.004   0.002  0.00  0.00     0.117 H 
BRANCH   7  13
ATOM     13  C1  <0> d           1.411   4.388   0.011  0.00  0.00    -0.013 C 
ATOM     14  H1  <0> d           1.603   4.696  -1.017  0.00  0.00     0.057 H 
ATOM     15  H2  <0> d           0.876   5.181   0.534  0.00  0.00     0.057 H 
ATOM     16  H3  <0> d           2.358   4.195   0.515  0.00  0.00     0.057 H 
ENDBRANCH   7  13
ENDBRANCH   1   6
TORSDOF 2
