REMARK  4 active torsions:
REMARK  status: ('A' for Active; 'I' for Inactive)
REMARK    1  A    between atoms: C1_1  and  O1_2 
REMARK    2  A    between atoms: O1_2  and  C2_3 
REMARK    3  A    between atoms: C5_7  and  O3_10 
REMARK    4  A    between atoms: O3_10  and  C6_11 
ROOT
ATOM      1  C2  <0> d          -1.250   1.944   0.018  0.00  0.00     0.151 C 
ATOM      2  H1  <0> d          -1.682   1.995  -0.982  0.00  0.00     0.136 H 
ATOM      3  C3  <0> d          -0.013   1.076   0.008  0.00  0.00    -0.050 C 
ATOM      4  C4  <0> d           1.041   1.858   0.002  0.00  0.00    -0.050 C 
ATOM      5  C5  <0> d           0.569   3.294   0.014  0.00  0.00     0.151 C 
ATOM      6  H2  <0> d           0.639   3.722  -0.986  0.00  0.00     0.136 H 
ATOM      7  O2  <0> d          -0.806   3.249   0.441  0.00  0.00    -0.325 OA
ATOM      8  H6  <0> d           0.002  -0.004   0.002  0.00  0.00     0.084 H 
ATOM      9  H7  <0> d           2.071   1.532  -0.010  0.00  0.00     0.084 H 
ENDROOT
BRANCH   1  10
ATOM     10  O1  <0> d          -2.208   1.426   0.944  0.00  0.00    -0.363 OA
BRANCH  10  11
ATOM     11  C1  <0> d          -3.493   2.046   0.858  0.00  0.00     0.007 C 
ATOM     12  H3  <0> d          -3.901   1.900  -0.142  0.00  0.00     0.066 H 
ATOM     13  H4  <0> d          -4.162   1.599   1.593  0.00  0.00     0.066 H 
ATOM     14  H5  <0> d          -3.395   3.114   1.059  0.00  0.00     0.066 H 
ENDBRANCH  10  11
ENDBRANCH   1  10
BRANCH   5  15
ATOM     15  O3  <0> d           1.347   4.062   0.934  0.00  0.00    -0.363 OA
BRANCH  15  16
ATOM     16  C6  <0> d           1.044   5.458   0.929  0.00  0.00     0.007 C 
ATOM     17  H8  <0> d          -0.003   5.604   1.194  0.00  0.00     0.066 H 
ATOM     18  H9  <0> d           1.677   5.970   1.654  0.00  0.00     0.066 H 
ATOM     19  H10 <0> d           1.227   5.866  -0.065  0.00  0.00     0.066 H 
ENDBRANCH  15  16
ENDBRANCH   5  15
TORSDOF 4
