REMARK  4 active torsions:
REMARK  status: ('A' for Active; 'I' for Inactive)
REMARK    1  A    between atoms: C1_1  and  O1_2 
REMARK    2  A    between atoms: O1_2  and  C2_3 
REMARK    3  A    between atoms: C5_6  and  N2_10 
REMARK    4  A    between atoms: C7_8  and  N1_9 
ROOT
ATOM      1  C2  <0> d           1.178   1.784   0.000  0.00  0.00     0.094 A 
ATOM      2  C3  <0> d          -0.013   1.076   0.008  0.00  0.00    -0.046 A 
ATOM      3  C4  <0> d          -1.220   1.750   0.017  0.00  0.00    -0.055 A 
ATOM      4  C5  <0> d          -1.242   3.138   0.031  0.00  0.00     0.028 A 
ATOM      5  C6  <0> d          -0.051   3.852   0.023  0.00  0.00    -0.030 A 
ATOM      6  C7  <0> d           1.160   3.176   0.008  0.00  0.00     0.061 A 
ATOM      7  H4  <0> d           0.002  -0.004   0.002  0.00  0.00     0.087 H 
ATOM      8  H5  <0> d          -2.147   1.196   0.019  0.00  0.00     0.087 H 
ATOM      9  H6  <0> d          -0.068   4.932   0.029  0.00  0.00     0.090 H 
ENDROOT
BRANCH   1  10
ATOM     10  O1  <0> d           2.365   1.118  -0.015  0.00  0.00    -0.354 OA
BRANCH  10  11
ATOM     11  C1  <0> d           2.309  -0.310  -0.023  0.00  0.00     0.010 C 
ATOM     12  H1  <0> d           1.772  -0.647  -0.909  0.00  0.00     0.066 H 
ATOM     13  H2  <0> d           3.321  -0.713  -0.035  0.00  0.00     0.066 H 
ATOM     14  H3  <0> d           1.790  -0.657   0.871  0.00  0.00     0.066 H 
ENDBRANCH  10  11
ENDBRANCH   1  10
BRANCH   6  15
ATOM     15  N1  <0> d           2.362   3.893   0.001  0.00  0.00    -0.397 N 
ATOM     16  H7  <0> d           3.208   3.420  -0.009  0.00  0.00     0.156 HD
ATOM     17  H8  <0> d           2.348   4.863   0.006  0.00  0.00     0.156 HD
ENDBRANCH   6  15
BRANCH   4  18
ATOM     18  N2  <0> d          -2.465   3.818   0.046  0.00  0.00    -0.399 N 
ATOM     19  H9  <0> d          -2.481   4.788   0.051  0.00  0.00     0.156 HD
ATOM     20  H10 <0> d          -3.297   3.319   0.051  0.00  0.00     0.156 HD
ENDBRANCH   4  18
TORSDOF 4
