REMARK  2 active torsions:
REMARK  status: ('A' for Active; 'I' for Inactive)
REMARK    1  A    between atoms: C1_1  and  C2_2 
REMARK    2  A    between atoms: C9_9  and  C10_12 
ROOT
ATOM      1  C2  <0> d           2.405   0.029  -0.021  0.00  0.00    -0.061 A 
ATOM      2  C3  <0> d           1.207  -0.672  -0.013  0.00  0.00    -0.075 A 
ATOM      3  C4  <0> d           0.002  -0.004   0.002  0.00  0.00    -0.056 A 
ATOM      4  C5  <0> d          -0.017   1.387   0.010  0.00  0.00     0.042 A 
ATOM      5  C6  <0> d           1.200   2.093   0.002  0.00  0.00    -0.007 A 
ATOM      6  C7  <0> d           2.410   1.395  -0.013  0.00  0.00    -0.065 A 
ATOM      7  C8  <0> d           0.844   3.514   0.012  0.00  0.00    -0.050 A 
ATOM      8  C9  <0> d          -0.497   3.582   0.025  0.00  0.00     0.006 A 
ATOM      9  N1  <0> d          -1.028   2.321   0.019  0.00  0.00    -0.359 N 
ATOM     10  H1  <0> d          -1.976   2.116   0.021  0.00  0.00     0.166 HD
ATOM     11  H5  <0> d           1.219  -1.752  -0.019  0.00  0.00     0.084 H 
ATOM     12  H6  <0> d          -0.925  -0.558   0.008  0.00  0.00     0.087 H 
ATOM     13  H7  <0> d           3.346   1.934  -0.019  0.00  0.00     0.085 H 
ATOM     14  H8  <0> d           1.530   4.348   0.011  0.00  0.00     0.087 H 
ENDROOT
BRANCH   1  15
ATOM     15  C1  <0> d           3.711  -0.723  -0.037  0.00  0.00    -0.051 C 
ATOM     16  H2  <0> d           4.016  -0.899  -1.068  0.00  0.00     0.033 H 
ATOM     17  H3  <0> d           4.475  -0.135   0.473  0.00  0.00     0.033 H 
ATOM     18  H4  <0> d           3.587  -1.678   0.473  0.00  0.00     0.033 H 
ENDBRANCH   1  15
BRANCH   8  19
ATOM     19  C10 <0> d          -1.298   4.859   0.039  0.00  0.00    -0.037 C 
ATOM     20  H9  <0> d          -1.500   5.171  -0.985  0.00  0.00     0.035 H 
ATOM     21  H10 <0> d          -2.240   4.691   0.561  0.00  0.00     0.035 H 
ATOM     22  H11 <0> d          -0.732   5.637   0.552  0.00  0.00     0.035 H 
ENDBRANCH   8  19
TORSDOF 2
