REMARK  2 active torsions:
REMARK  status: ('A' for Active; 'I' for Inactive)
REMARK    1  A    between atoms: C1_1  and  C2_2 
REMARK    2  A    between atoms: C5_6  and  N3_8 
ROOT
ATOM      1  C2  <0> d          -0.054   4.112   0.025  0.00  0.00     0.124 A 
ATOM      2  N1  <0> d           1.107   3.485   0.010  0.00  0.00    -0.244 NA
ATOM      3  C3  <0> d           1.171   2.164   0.003  0.00  0.00     0.028 A 
ATOM      4  C4  <0> d          -0.017   1.428   0.010  0.00  0.00     0.107 A 
ATOM      5  C5  <0> d          -1.236   2.138   0.019  0.00  0.00     0.145 A 
ATOM      6  N2  <0> d          -1.202   3.466   0.032  0.00  0.00    -0.215 NA
ATOM      7  C6  <0> d           0.002  -0.004   0.002  0.00  0.00     0.105 C 
ATOM      8  N4  <0> d           0.018  -1.140  -0.004  0.00  0.00    -0.191 NA
ATOM      9  H4  <0> d           2.127   1.661  -0.010  0.00  0.00     0.117 H 
ENDROOT
BRANCH   5  10
ATOM     10  N3  <0> d          -2.442   1.466   0.021  0.00  0.00    -0.383 N 
ATOM     11  H5  <0> d          -2.456   0.496   0.015  0.00  0.00     0.157 HD
ATOM     12  H6  <0> d          -3.274   1.963   0.028  0.00  0.00     0.157 HD
ENDBRANCH   5  10
BRANCH   1  13
ATOM     13  C1  <0> d          -0.066   5.619   0.033  0.00  0.00    -0.019 C 
ATOM     14  H1  <0> d          -0.079   5.988  -0.993  0.00  0.00     0.037 H 
ATOM     15  H2  <0> d          -0.954   5.972   0.557  0.00  0.00     0.037 H 
ATOM     16  H3  <0> d           0.826   5.987   0.540  0.00  0.00     0.037 H 
ENDBRANCH   1  13
TORSDOF 2
