REMARK  6 active torsions:
REMARK  status: ('A' for Active; 'I' for Inactive)
REMARK    1  A    between atoms: C1_1  and  C2_2 
REMARK    2  A    between atoms: C2_2  and  C3_3 
REMARK    3  A    between atoms: C2_2  and  C4_4 
REMARK    4  A    between atoms: C4_4  and  C5_5 
REMARK    5  A    between atoms: C4_4  and  C6_6 
REMARK    6  A    between atoms: C4_4  and  O1_7 
ROOT
ATOM      1  C4  <0> d           1.286   1.562  -0.002  0.00  0.00     0.053 C 
ENDROOT
BRANCH   1   2
ATOM      2  C2  <0> d           2.040   1.127  -1.261  0.00  0.00    -0.032 C 
ATOM      3  H4  <0> d           2.063   0.039  -1.313  0.00  0.00     0.043 H 
BRANCH   2   4
ATOM      4  C1  <0> d           1.329   1.682  -2.497  0.00  0.00    -0.070 C 
ATOM      5  H1  <0> d           1.306   2.770  -2.445  0.00  0.00     0.028 H 
ATOM      6  H2  <0> d           1.866   1.372  -3.394  0.00  0.00     0.028 H 
ATOM      7  H3  <0> d           0.310   1.298  -2.533  0.00  0.00     0.028 H 
ENDBRANCH   2   4
BRANCH   2   8
ATOM      8  C3  <0> d           3.471   1.667  -1.210  0.00  0.00    -0.070 C 
ATOM      9  H5  <0> d           3.977   1.272  -0.329  0.00  0.00     0.028 H 
ATOM     10  H6  <0> d           4.007   1.357  -2.107  0.00  0.00     0.028 H 
ATOM     11  H7  <0> d           3.447   2.755  -1.158  0.00  0.00     0.028 H 
ENDBRANCH   2   8
ENDBRANCH   1   2
BRANCH   1  12
ATOM     12  C5  <0> d           1.145   3.085   0.008  0.00  0.00    -0.048 C 
ATOM     13  H8  <0> d           0.608   3.395   0.904  0.00  0.00     0.031 H 
ATOM     14  H9  <0> d           2.135   3.542   0.001  0.00  0.00     0.031 H 
ATOM     15  H10 <0> d           0.591   3.404  -0.875  0.00  0.00     0.031 H 
ENDBRANCH   1  12
BRANCH   1  16
ATOM     16  C6  <0> d           2.064   1.114   1.238  0.00  0.00    -0.048 C 
ATOM     17  H11 <0> d           2.164   0.029   1.231  0.00  0.00     0.031 H 
ATOM     18  H12 <0> d           3.053   1.571   1.231  0.00  0.00     0.031 H 
ATOM     19  H13 <0> d           1.527   1.423   2.135  0.00  0.00     0.031 H 
ENDBRANCH   1  16
BRANCH   1  20
ATOM     20  O1  <0> d          -0.011   0.963   0.007  0.00  0.00    -0.390 OA
ATOM     21  H14 <0> d           0.002  -0.004   0.002  0.00  0.00     0.210 HD
ENDBRANCH   1  20
TORSDOF 6
