REMARK  4 active torsions:
REMARK  status: ('A' for Active; 'I' for Inactive)
REMARK    1  A    between atoms: C1_1  and  C2_2 
REMARK    2  A    between atoms: C3_5  and  C4_7 
REMARK    3  A    between atoms: C4_7  and  C5_9 
REMARK    4  A    between atoms: C4_7  and  O2_10 
ROOT
ATOM      1  C2  <0> d           0.002  -0.004   0.002  0.00  0.00     0.165 A 
ATOM      2  N1  <0> d           0.008  -0.769  -1.052  0.00  0.00    -0.127 NA
ATOM      3  N2  <0> d           0.027  -2.002  -0.685  0.00  0.00    -0.124 NA
ATOM      4  C3  <0> d           0.034  -2.066   0.616  0.00  0.00     0.197 A 
ATOM      5  O1  <0> d           0.023  -0.805   1.081  0.00  0.00    -0.275 OA
ENDROOT
BRANCH   4   6
ATOM      6  C4  <0> d           0.055  -3.322   1.448  0.00  0.00     0.097 C 
ATOM      7  H1  <0> d          -0.210  -3.081   2.477  0.00  0.00     0.095 H 
BRANCH   6   8
ATOM      8  C5  <0> d           1.457  -3.934   1.412  0.00  0.00    -0.045 C 
ATOM      9  H5  <0> d           1.723  -4.175   0.383  0.00  0.00     0.031 H 
ATOM     10  H6  <0> d           2.175  -3.219   1.815  0.00  0.00     0.031 H 
ATOM     11  H7  <0> d           1.473  -4.843   2.013  0.00  0.00     0.031 H 
ENDBRANCH   6   8
BRANCH   6  12
ATOM     12  O2  <0> d          -0.886  -4.259   0.920  0.00  0.00    -0.388 OA
ATOM     13  H8  <0> d          -0.926  -5.093   1.407  0.00  0.00     0.210 HD
ENDBRANCH   6  12
ENDBRANCH   4   6
BRANCH   1  14
ATOM     14  C1  <0> d          -0.018   1.503   0.010  0.00  0.00    -0.013 C 
ATOM     15  H2  <0> d           1.004   1.880   0.003  0.00  0.00     0.038 H 
ATOM     16  H3  <0> d          -0.545   1.864  -0.873  0.00  0.00     0.038 H 
ATOM     17  H4  <0> d          -0.529   1.854   0.907  0.00  0.00     0.038 H 
ENDBRANCH   1  14
TORSDOF 4
