REMARK  2 active torsions:
REMARK  status: ('A' for Active; 'I' for Inactive)
REMARK    1  A    between atoms: C1_1  and  C3_7 
REMARK    2  A    between atoms: C2_2  and  O2_6 
ROOT
ATOM      1  C1  <0> d           2.049   1.925  -1.162  0.00  0.00     0.217 A 
ATOM      2  C2  <0> d           1.220   1.531  -0.001  0.00  0.00     0.229 A 
ATOM      3  N1  <0> d           1.972   1.875   1.017  0.00  0.00    -0.077 NA
ATOM      4  O1  <0> d           3.007   2.350   0.612  0.00  0.00    -0.103 OA
ATOM      5  N2  <0> d           3.127   2.417  -0.589  0.00  0.00    -0.093 NA
ENDROOT
BRANCH   1   6
ATOM      6  C3  <0> d           1.744   1.797  -2.605  0.00  0.00     0.235 C 
ATOM      7  O3  <0> d           0.689   1.313  -2.962  0.00  0.00    -0.643 OA
ATOM      8  O4  <0> d           2.635   2.218  -3.522  0.00  0.00    -0.643 OA
ENDBRANCH   1   6
BRANCH   2   9
ATOM      9  O2  <0> d          -0.011   0.963   0.007  0.00  0.00    -0.341 OA
ATOM     10  H1  <0> d           0.002  -0.004   0.002  0.00  0.00     0.219 HD
ENDBRANCH   2   9
TORSDOF 2
