REMARK  2 active torsions:
REMARK  status: ('A' for Active; 'I' for Inactive)
REMARK    1  A    between atoms: C1_1  and  C2_2 
REMARK    2  A    between atoms: C3_3  and  C5_7 
ROOT
ATOM      1  C2  <0> d           0.002  -0.004   0.002  0.00  0.00     0.054 A 
ATOM      2  C3  <0> d           0.006  -0.732  -1.183  0.00  0.00     0.106 A 
ATOM      3  S1  <0> d           0.033  -2.398  -0.540  0.00  0.00    -0.074 SA
ATOM      4  C4  <0> d           0.036  -2.015   1.099  0.00  0.00     0.041 A 
ATOM      5  N1  <0> d           0.022  -0.701   1.109  0.00  0.00    -0.257 NA
ATOM      6  H4  <0> d           0.049  -2.689   1.942  0.00  0.00     0.126 H 
ENDROOT
BRANCH   1   7
ATOM      7  C1  <0> d          -0.018   1.503   0.010  0.00  0.00    -0.034 C 
ATOM      8  H1  <0> d           1.004   1.880   0.003  0.00  0.00     0.035 H 
ATOM      9  H2  <0> d          -0.545   1.864  -0.873  0.00  0.00     0.035 H 
ATOM     10  H3  <0> d          -0.529   1.854   0.907  0.00  0.00     0.035 H 
ENDBRANCH   1   7
BRANCH   2  11
ATOM     11  C5  <0> d          -0.008  -0.264  -2.567  0.00  0.00     0.218 C 
ATOM     12  O1  <0> d          -0.026   0.937  -2.808  0.00  0.00    -0.643 OA
ATOM     13  O2  <0> d          -0.001  -1.073  -3.487  0.00  0.00    -0.643 OA
ENDBRANCH   2  11
TORSDOF 2
