REMARK  4 active torsions:
REMARK  status: ('A' for Active; 'I' for Inactive)
REMARK    1  A    between atoms: C1_1  and  C2_2 
REMARK    2  A    between atoms: C2_2  and  C3_4 
REMARK    3  A    between atoms: C2_2  and  N1_6 
REMARK    4  A    between atoms: C3_4  and  O1_5 
ROOT
ATOM      1  N1  <0> d           0.645  -0.408  -1.256  0.00  0.00     0.099 N 
ATOM      2  C4  <0> d           2.057  -0.001  -1.280  0.00  0.00     0.133 C 
ATOM      3  C5  <0> d           2.702  -0.493  -2.579  0.00  0.00     0.044 C 
ATOM      4  O2  <0> d           1.970   0.023  -3.694  0.00  0.00    -0.388 OA
ATOM      5  C6  <0> d           0.590  -0.355  -3.702  0.00  0.00     0.044 C 
ATOM      6  C7  <0> d          -0.076   0.138  -2.415  0.00  0.00     0.133 C 
ATOM      7  H8  <0> d           2.123   1.086  -1.230  0.00  0.00     0.083 H 
ATOM      8  H9  <0> d           2.577  -0.438  -0.428  0.00  0.00     0.083 H 
ATOM      9  H10 <0> d           3.733  -0.144  -2.628  0.00  0.00     0.077 H 
ATOM     10  H11 <0> d           2.683  -1.583  -2.604  0.00  0.00     0.077 H 
ATOM     11  H12 <0> d           0.095   0.093  -4.563  0.00  0.00     0.077 H 
ATOM     12  H13 <0> d           0.511  -1.441  -3.760  0.00  0.00     0.077 H 
ATOM     13  H14 <0> d          -1.113  -0.197  -2.390  0.00  0.00     0.083 H 
ATOM     14  H15 <0> d          -0.044   1.227  -2.383  0.00  0.00     0.083 H 
ENDROOT
BRANCH   1  15
ATOM     15  C2  <0> d           0.002  -0.004   0.002  0.00  0.00     0.151 C 
ATOM     16  H1  <0> d          -0.025   1.084   0.063  0.00  0.00     0.091 H 
BRANCH  15  17
ATOM     17  C1  <0> d           0.799  -0.561   1.184  0.00  0.00    -0.045 C 
ATOM     18  H2  <0> d           0.826  -1.649   1.123  0.00  0.00     0.030 H 
ATOM     19  H3  <0> d           1.816  -0.170   1.153  0.00  0.00     0.030 H 
ATOM     20  H4  <0> d           0.322  -0.261   2.117  0.00  0.00     0.030 H 
ENDBRANCH  15  17
BRANCH  15  21
ATOM     21  C3  <0> d          -1.425  -0.553   0.045  0.00  0.00     0.045 C 
ATOM     22  H5  <0> d          -1.925  -0.195   0.945  0.00  0.00     0.077 H 
ATOM     23  H6  <0> d          -1.972  -0.214  -0.835  0.00  0.00     0.077 H 
BRANCH  21  24
ATOM     24  O1  <0> d          -1.386  -1.982   0.059  0.00  0.00    -0.399 OA
ATOM     25  H7  <0> d          -2.258  -2.399   0.086  0.00  0.00     0.209 HD
ENDBRANCH  21  24
ENDBRANCH  15  21
ENDBRANCH   1  15
TORSDOF 4
