REMARK  3 active torsions:
REMARK  status: ('A' for Active; 'I' for Inactive)
REMARK    1  A    between atoms: C1_1  and  C2_2 
REMARK    2  A    between atoms: C2_2  and  N1_3 
REMARK    3  A    between atoms: N1_3  and  C3_4 
ROOT
ATOM      1  C3  <0> d           0.860  -1.872   1.403  0.00  0.00     0.112 A 
ATOM      2  C4  <0> d           0.348  -2.762   0.521  0.00  0.00     0.013 A 
ATOM      3  N2  <0> d           0.510  -4.108   0.746  0.00  0.00    -0.316 N 
ATOM      4  H1  <0> d           0.140  -4.767   0.091  0.00  0.00     0.170 HD
ATOM      5  C5  <0> d           1.162  -4.547   1.838  0.00  0.00     0.327 A 
ATOM      6  O1  <0> d           1.289  -5.743   2.018  0.00  0.00    -0.247 OA
ATOM      7  N3  <0> d           1.675  -3.683   2.733  0.00  0.00    -0.274 N 
ATOM      8  H2  <0> d           2.156  -4.030   3.538  0.00  0.00     0.173 HD
ATOM      9  C6  <0> d           1.545  -2.354   2.550  0.00  0.00     0.277 A 
ATOM     10  O2  <0> d           2.010  -1.573   3.361  0.00  0.00    -0.266 OA
ATOM     11  H9  <0> d          -0.180  -2.417  -0.355  0.00  0.00     0.115 H 
ENDROOT
BRANCH   1  12
ATOM     12  N1  <0> d           0.711  -0.489   1.189  0.00  0.00    -0.385 N 
ATOM     13  H8  <0> d           1.077   0.142   1.827  0.00  0.00     0.159 HD
BRANCH  12  14
ATOM     14  C2  <0> d           0.002  -0.004   0.002  0.00  0.00    -0.010 C 
ATOM     15  H6  <0> d          -1.020  -0.381   0.010  0.00  0.00     0.063 H 
ATOM     16  H7  <0> d           0.512  -0.356  -0.895  0.00  0.00     0.063 H 
BRANCH  14  17
ATOM     17  C1  <0> d          -0.019   1.526   0.010  0.00  0.00    -0.061 C 
ATOM     18  H3  <0> d           1.004   1.903   0.003  0.00  0.00     0.029 H 
ATOM     19  H4  <0> d          -0.546   1.887  -0.873  0.00  0.00     0.029 H 
ATOM     20  H5  <0> d          -0.529   1.877   0.907  0.00  0.00     0.029 H 
ENDBRANCH  14  17
ENDBRANCH  12  14
ENDBRANCH   1  12
TORSDOF 3
