REMARK  2 active torsions:
REMARK  status: ('A' for Active; 'I' for Inactive)
REMARK    1  A    between atoms: C2_2  and  C5_7 
REMARK    2  A    between atoms: C5_7  and  O1_8 
ROOT
ATOM      1  C1  <0> d          -2.089  -0.765  -1.173  0.00  0.00     0.013 A 
ATOM      2  C2  <0> d          -1.412  -0.526   0.013  0.00  0.00     0.000 A 
ATOM      3  C3  <0> d          -2.064  -0.783   1.208  0.00  0.00     0.013 A 
ATOM      4  N1  <0> d          -3.308  -1.235   1.178  0.00  0.00    -0.254 NA
ATOM      5  C4  <0> d          -3.920  -1.451   0.032  0.00  0.00     0.085 A 
ATOM      6  N2  <0> d          -3.329  -1.223  -1.124  0.00  0.00    -0.254 NA
ATOM      7  H1  <0> d          -1.610  -0.580  -2.123  0.00  0.00     0.115 H 
ATOM      8  H2  <0> d          -1.566  -0.613   2.151  0.00  0.00     0.115 H 
ATOM      9  H3  <0> d          -4.934  -1.825   0.039  0.00  0.00     0.146 H 
ENDROOT
BRANCH   2  10
ATOM     10  C5  <0> d           0.002  -0.004   0.002  0.00  0.00     0.043 C 
ATOM     11  H4  <0> d           0.512  -0.356  -0.895  0.00  0.00     0.081 H 
ATOM     12  H5  <0> d           0.529  -0.365   0.885  0.00  0.00     0.081 H 
BRANCH  10  13
ATOM     13  O1  <0> d          -0.017   1.425   0.010  0.00  0.00    -0.396 OA
ATOM     14  H6  <0> d           0.861   1.830   0.004  0.00  0.00     0.209 HD
ENDBRANCH  10  13
ENDBRANCH   2  10
TORSDOF 2
