REMARK  4 active torsions:
REMARK  status: ('A' for Active; 'I' for Inactive)
REMARK    1  A    between atoms: C1_1  and  C2_2 
REMARK    2  A    between atoms: C3_3  and  C4_4 
REMARK    3  A    between atoms: C4_4  and  C5_6 
REMARK    4  A    between atoms: C4_4  and  N1_7 
ROOT
ATOM      1  N1  <0> d           1.359   2.034   0.000  0.00  0.00     0.100 N 
ATOM      2  C6  <0> d           1.381   3.501   0.095  0.00  0.00     0.134 C 
ATOM      3  C7  <0> d           2.833   3.983   0.141  0.00  0.00     0.044 C 
ATOM      4  O1  <0> d           3.526   3.506  -1.016  0.00  0.00    -0.388 OA
ATOM      5  C8  <0> d           3.525   2.081  -1.139  0.00  0.00     0.044 C 
ATOM      6  C9  <0> d           2.080   1.579  -1.198  0.00  0.00     0.134 C 
ATOM      7  H10 <0> d           0.877   3.933  -0.783  0.00  0.00     0.083 H 
ATOM      8  H11 <0> d           0.858   3.817   1.010  0.00  0.00     0.083 H 
ATOM      9  H12 <0> d           2.854   5.083   0.155  0.00  0.00     0.077 H 
ATOM     10  H13 <0> d           3.319   3.596   1.048  0.00  0.00     0.077 H 
ATOM     11  H14 <0> d           4.053   1.792  -2.060  0.00  0.00     0.077 H 
ATOM     12  H15 <0> d           4.034   1.637  -0.270  0.00  0.00     0.077 H 
ATOM     13  H16 <0> d           2.072   0.480  -1.235  0.00  0.00     0.083 H 
ATOM     14  H17 <0> d           1.587   1.980  -2.096  0.00  0.00     0.083 H 
ENDROOT
BRANCH   1  15
ATOM     15  C4  <0> d          -0.019   1.526   0.010  0.00  0.00     0.147 C 
ATOM     16  H1  <0> d          -0.526   1.918  -0.883  0.00  0.00     0.094 H 
BRANCH  15  17
ATOM     17  C3  <0> d          -0.724   2.012   1.250  0.00  0.00    -0.076 C 
ATOM     18  C2  <0> d          -1.800   2.751   1.144  0.00  0.00    -0.108 C 
ATOM     19  H5  <0> d          -2.189   3.017   0.150  0.00  0.00     0.075 H 
ATOM     20  H6  <0> d          -0.335   1.746   2.244  0.00  0.00     0.079 H 
BRANCH  18  21
ATOM     21  C1  <0> d          -2.506   3.237   2.384  0.00  0.00    -0.060 C 
ATOM     22  H2  <0> d          -3.381   3.838   2.096  0.00  0.00     0.032 H 
ATOM     23  H3  <0> d          -1.817   3.854   2.980  0.00  0.00     0.032 H 
ATOM     24  H4  <0> d          -2.834   2.374   2.982  0.00  0.00     0.032 H 
ENDBRANCH  18  21
ENDBRANCH  15  17
BRANCH  15  25
ATOM     25  C5  <0> d           0.002  -0.004   0.002  0.00  0.00    -0.044 C 
ATOM     26  H7  <0> d           0.517  -0.359  -0.903  0.00  0.00     0.030 H 
ATOM     27  H8  <0> d          -1.030  -0.385   0.010  0.00  0.00     0.030 H 
ATOM     28  H9  <0> d           0.534  -0.368   0.893  0.00  0.00     0.030 H 
ENDBRANCH  15  25
ENDBRANCH   1  15
TORSDOF 4
