REMARK  1 active torsions:
REMARK  status: ('A' for Active; 'I' for Inactive)
REMARK    1  A    between atoms: C6_6  and  O1_7 
ROOT
ATOM      1  C1  <0> d           2.381   1.418  -0.013  0.00  0.00    -0.011 A 
ATOM      2  C2  <0> d           1.172   2.091   0.002  0.00  0.00     0.122 A 
ATOM      3  C3  <0> d          -0.017   1.381   0.010  0.00  0.00    -0.005 A 
ATOM      4  C4  <0> d           0.002  -0.004   0.002  0.00  0.00     0.160 A 
ATOM      5  C5  <0> d           1.211  -0.680  -0.013  0.00  0.00     0.188 A 
ATOM      6  C6  <0> d           2.403   0.031  -0.021  0.00  0.00     0.110 A 
ATOM      7  F1  <0> d           1.229  -2.031  -0.020  0.00  0.00    -0.200 F 
ATOM      8  F2  <0> d          -1.159  -0.695   0.009  0.00  0.00    -0.203 F 
ATOM      9  F3  <0> d           1.151   3.441   0.009  0.00  0.00    -0.206 F 
ATOM     10  H1  <0> d           3.308   1.972  -0.019  0.00  0.00     0.092 H 
ATOM     11  H2  <0> d          -0.960   1.907   0.017  0.00  0.00     0.093 H 
ENDROOT
BRANCH   6  12
ATOM     12  O1  <0> d           3.591  -0.630  -0.036  0.00  0.00    -0.357 OA
ATOM     13  H3  <0> d           3.925  -0.817  -0.924  0.00  0.00     0.217 HD
ENDBRANCH   6  12
TORSDOF 1
