REMARK  2 active torsions:
REMARK  status: ('A' for Active; 'I' for Inactive)
REMARK    1  A    between atoms: C4_4  and  O1_7 
REMARK    2  A    between atoms: O1_7  and  C7_8 
ROOT
ATOM      1  C1  <0> d          -0.020   1.373  -0.065  0.00  0.00    -0.083 A 
ATOM      2  C2  <0> d           1.165   2.084  -0.059  0.00  0.00    -0.080 A 
ATOM      3  C3  <0> d           2.374   1.415  -0.050  0.00  0.00    -0.051 A 
ATOM      4  C4  <0> d           2.398   0.028  -0.045  0.00  0.00     0.069 A 
ATOM      5  C5  <0> d           1.207  -0.683  -0.051  0.00  0.00    -0.051 A 
ATOM      6  C6  <0> d           0.001  -0.010  -0.060  0.00  0.00    -0.080 A 
ATOM      7  H1  <0> d          -0.964   1.897  -0.068  0.00  0.00     0.083 H 
ATOM      8  H2  <0> d           1.146   3.164  -0.062  0.00  0.00     0.083 H 
ATOM      9  H3  <0> d           3.300   1.972  -0.046  0.00  0.00     0.087 H 
ATOM     10  H4  <0> d           1.223  -1.763  -0.048  0.00  0.00     0.087 H 
ATOM     11  H5  <0> d          -0.926  -0.564  -0.064  0.00  0.00     0.083 H 
ENDROOT
BRANCH   4  12
ATOM     12  O1  <0> d           3.586  -0.632  -0.037  0.00  0.00    -0.346 OA
BRANCH  12  13
ATOM     13  C7  <0> d           4.769   0.160  -0.156  0.00  0.00     0.045 A 
ATOM     14  C9  <0> d           6.071  -0.428   0.393  0.00  0.00    -0.038 A 
ATOM     15  C8  <0> d           5.853  -0.329  -1.118  0.00  0.00    -0.038 A 
ATOM     16  H9  <0> d           6.783   0.262   0.845  0.00  0.00     0.036 H 
ATOM     17  H10 <0> d           6.024  -1.419   0.845  0.00  0.00     0.036 H 
ATOM     18  H7  <0> d           5.663  -1.256  -1.661  0.00  0.00     0.036 H 
ATOM     19  H8  <0> d           6.422   0.425  -1.661  0.00  0.00     0.036 H 
ATOM     20  H6  <0> d           4.625   1.237  -0.065  0.00  0.00     0.084 H 
ENDBRANCH  12  13
ENDBRANCH   4  12
TORSDOF 2
