REMARK  7 active torsions:
REMARK  status: ('A' for Active; 'I' for Inactive)
REMARK    1  A    between atoms: C1_1  and  C2_2 
REMARK    2  A    between atoms: C2_2  and  C3_3 
REMARK    3  A    between atoms: C3_3  and  C4_4 
REMARK    4  A    between atoms: C4_4  and  C5_6 
REMARK    5  A    between atoms: C4_4  and  C8_9 
REMARK    6  A    between atoms: C5_6  and  C6_7 
REMARK    7  A    between atoms: C5_6  and  C7_8 
ROOT
ATOM      1  C4  <0> d          -1.329   1.940   0.019  0.00  0.00     0.033 C 
ATOM      2  H1  <0> d          -1.391   2.561   0.913  0.00  0.00     0.057 H 
ENDROOT
BRANCH   1   3
ATOM      3  C3  <0> d          -1.428   2.825  -1.225  0.00  0.00    -0.052 C 
ATOM      4  H7  <0> d          -1.278   2.217  -2.117  0.00  0.00     0.034 H 
ATOM      5  H8  <0> d          -2.414   3.288  -1.264  0.00  0.00     0.034 H 
BRANCH   3   6
ATOM      6  C2  <0> d          -0.355   3.914  -1.163  0.00  0.00    -0.068 C 
ATOM      7  H5  <0> d          -0.506   4.522  -0.271  0.00  0.00     0.032 H 
ATOM      8  H6  <0> d           0.631   3.450  -1.124  0.00  0.00     0.032 H 
BRANCH   6   9
ATOM      9  C1  <0> d          -0.454   4.799  -2.407  0.00  0.00    -0.076 C 
ATOM     10  H2  <0> d           0.311   5.574  -2.363  0.00  0.00     0.027 H 
ATOM     11  H3  <0> d          -0.303   4.191  -3.299  0.00  0.00     0.027 H 
ATOM     12  H4  <0> d          -1.440   5.262  -2.446  0.00  0.00     0.027 H 
ENDBRANCH   6   9
ENDBRANCH   3   6
ENDBRANCH   1   3
BRANCH   1  13
ATOM     13  C5  <0> d          -2.479   0.930   0.019  0.00  0.00    -0.048 C 
ATOM     14  H9  <0> d          -2.417   0.309  -0.875  0.00  0.00     0.040 H 
BRANCH  13  15
ATOM     15  C6  <0> d          -2.380   0.045   1.263  0.00  0.00    -0.072 C 
ATOM     16  H10 <0> d          -2.442   0.666   2.156  0.00  0.00     0.028 H 
ATOM     17  H11 <0> d          -3.199  -0.675   1.263  0.00  0.00     0.028 H 
ATOM     18  H12 <0> d          -1.429  -0.487   1.255  0.00  0.00     0.028 H 
ENDBRANCH  13  15
BRANCH  13  19
ATOM     19  C7  <0> d          -3.814   1.677   0.029  0.00  0.00    -0.072 C 
ATOM     20  H13 <0> d          -4.633   0.957   0.029  0.00  0.00     0.028 H 
ATOM     21  H14 <0> d          -3.876   2.298   0.923  0.00  0.00     0.028 H 
ATOM     22  H15 <0> d          -3.885   2.307  -0.857  0.00  0.00     0.028 H 
ENDBRANCH  13  19
ENDBRANCH   1  13
BRANCH   1  23
ATOM     23  C8  <0> d          -0.014   1.204   0.009  0.00  0.00     0.177 C 
ATOM     24  O1  <0> d           0.002  -0.004   0.002  0.00  0.00    -0.648 OA
ATOM     25  O2  <0> d           1.139   1.891   0.001  0.00  0.00    -0.648 OA
ENDBRANCH   1  23
TORSDOF 7
