REMARK  4 active torsions:
REMARK  status: ('A' for Active; 'I' for Inactive)
REMARK    1  A    between atoms: C1_1  and  C2_2 
REMARK    2  A    between atoms: C2_2  and  C3_3 
REMARK    3  A    between atoms: C3_3  and  C4_5 
REMARK    4  A    between atoms: C3_3  and  C5_6 
ROOT
ATOM      1  C3  <0> d           2.400   3.844  -0.001  0.00  0.00    -0.014 C 
ATOM      2  H1  <0> d           3.189   3.211   0.429  0.00  0.00     0.049 H 
ENDROOT
BRANCH   1   3
ATOM      3  C2  <0> d           2.759   4.221  -1.440  0.00  0.00    -0.060 C 
ATOM      4  H5  <0> d           2.004   4.915  -1.837  0.00  0.00     0.033 H 
ATOM      5  H6  <0> d           2.785   3.313  -2.061  0.00  0.00     0.033 H 
BRANCH   3   6
ATOM      6  C1  <0> d           4.133   4.894  -1.463  0.00  0.00    -0.076 C 
ATOM      7  H2  <0> d           4.392   5.164  -2.497  0.00  0.00     0.027 H 
ATOM      8  H3  <0> d           4.888   4.199  -1.065  0.00  0.00     0.027 H 
ATOM      9  H4  <0> d           4.107   5.801  -0.842  0.00  0.00     0.027 H 
ENDBRANCH   3   6
ENDBRANCH   1   3
BRANCH   1  10
ATOM     10  C4  <0> d           2.241   5.116   0.834  0.00  0.00    -0.068 C 
ATOM     11  H7  <0> d           1.982   4.846   1.869  0.00  0.00     0.028 H 
ATOM     12  H8  <0> d           1.441   5.738   0.407  0.00  0.00     0.028 H 
ATOM     13  H9  <0> d           3.186   5.679   0.828  0.00  0.00     0.028 H 
ENDBRANCH   1  10
BRANCH   1  14
ATOM     14  C5  <0> d           1.105   3.073   0.008  0.00  0.00     0.055 A 
ATOM     15  N2  <0> d           1.123   1.752   0.001  0.00  0.00    -0.262 NA
ATOM     16  C8  <0> d          -0.013   1.076   0.008  0.00  0.00     0.019 A 
ATOM     17  C7  <0> d          -1.220   1.751   0.017  0.00  0.00     0.019 A 
ATOM     18  H12 <0> d           0.002  -0.004   0.002  0.00  0.00     0.117 H 
ATOM     19  N1  <0> d          -1.238   3.072   0.029  0.00  0.00    -0.270 NA
ATOM     20  H11 <0> d          -2.148   1.198   0.019  0.00  0.00     0.117 H 
ATOM     21  C6  <0> d          -0.103   3.749   0.022  0.00  0.00     0.026 A 
ATOM     22  H10 <0> d          -0.117   4.829   0.028  0.00  0.00     0.117 H 
ENDBRANCH   1  14
TORSDOF 4
