REMARK  1 active torsions:
REMARK  status: ('A' for Active; 'I' for Inactive)
REMARK    1  A    between atoms: C2_2  and  C4_6 
ROOT
ATOM      1  C4  <0> d          -0.018   1.468   0.010  0.00  0.00     0.055 C 
ATOM      2  C5  <0> d           0.002  -0.004   0.002  0.00  0.00     0.065 C 
ATOM      3  N2  <0> d           0.018  -1.140  -0.004  0.00  0.00    -0.197 NA
ATOM      4  H3  <0> d          -0.545   1.829  -0.873  0.00  0.00     0.064 H 
ATOM      5  H4  <0> d          -0.528   1.819   0.907  0.00  0.00     0.064 H 
ENDROOT
BRANCH   1   6
ATOM      6  C2  <0> d           1.396   1.989  -0.001  0.00  0.00     0.054 A 
ATOM      7  C1  <0> d           1.809   2.859  -0.958  0.00  0.00    -0.019 A 
ATOM      8  S1  <0> d           3.508   3.108  -0.464  0.00  0.00    -0.092 SA
ATOM      9  H1  <0> d           1.262   3.283  -1.787  0.00  0.00     0.098 H 
ATOM     10  C3  <0> d           3.497   2.055   0.918  0.00  0.00     0.040 A 
ATOM     11  N1  <0> d           2.262   1.609   0.915  0.00  0.00    -0.257 NA
ATOM     12  H2  <0> d           4.300   1.827   1.603  0.00  0.00     0.126 H 
ENDBRANCH   1   6
TORSDOF 1
