REMARK  2 active torsions:
REMARK  status: ('A' for Active; 'I' for Inactive)
REMARK    1  A    between atoms: C3_3  and  C6_9 
REMARK    2  A    between atoms: C6_9  and  O2_10 
ROOT
ATOM      1  C1  <0> d          -0.019   1.526   0.010  0.00  0.00    -0.055 C 
ATOM      2  C2  <0> d           1.429   2.031  -0.001  0.00  0.00    -0.044 C 
ATOM      3  C3  <0> d           2.087   1.662   1.330  0.00  0.00     0.032 C 
ATOM      4  H1  <0> d           1.646   2.260   2.127  0.00  0.00     0.075 H 
ATOM      5  N1  <0> d           1.888   0.248   1.622  0.00  0.00    -0.354 N 
ATOM      6  C4  <0> d           0.947  -0.508   1.054  0.00  0.00     0.217 C 
ATOM      7  O1  <0> d           0.850  -1.664   1.407  0.00  0.00    -0.274 OA
ATOM      8  C5  <0> d           0.002  -0.004   0.002  0.00  0.00     0.009 C 
ATOM      9  H2  <0> d          -0.524   1.882   0.908  0.00  0.00     0.033 H 
ATOM     10  H3  <0> d          -0.541   1.891  -0.874  0.00  0.00     0.033 H 
ATOM     11  H4  <0> d           1.974   1.562  -0.820  0.00  0.00     0.036 H 
ATOM     12  H5  <0> d           1.438   3.114  -0.125  0.00  0.00     0.036 H 
ATOM     13  H6  <0> d           2.477  -0.170   2.270  0.00  0.00     0.162 HD
ATOM     14  H7  <0> d          -1.000  -0.381   0.205  0.00  0.00     0.047 H 
ATOM     15  H8  <0> d           0.329  -0.356  -0.977  0.00  0.00     0.047 H 
ENDROOT
BRANCH   3  16
ATOM     16  C6  <0> d           3.587   1.952   1.250  0.00  0.00     0.035 C 
ATOM     17  H9  <0> d           4.045   1.296   0.509  0.00  0.00     0.077 H 
ATOM     18  H10 <0> d           3.741   2.991   0.961  0.00  0.00     0.077 H 
BRANCH  16  19
ATOM     19  O2  <0> d           4.185   1.718   2.527  0.00  0.00    -0.399 OA
ATOM     20  H11 <0> d           5.138   1.883   2.550  0.00  0.00     0.209 HD
ENDBRANCH  16  19
ENDBRANCH   3  16
TORSDOF 2
