REMARK  4 active torsions:
REMARK  status: ('A' for Active; 'I' for Inactive)
REMARK    1  A    between atoms: C1_1  and  C2_2 
REMARK    2  A    between atoms: C2_2  and  C3_3 
REMARK    3  A    between atoms: C3_3  and  C4_5 
REMARK    4  A    between atoms: C3_3  and  N1_6 
ROOT
ATOM      1  N1  <0> d          -2.150  -0.381   1.635  0.00  0.00     0.096 N 
ATOM      2  C5  <0> d          -1.328  -1.067   0.628  0.00  0.00     0.133 C 
ATOM      3  C6  <0> d          -1.291  -2.565   0.942  0.00  0.00     0.044 C 
ATOM      4  O1  <0> d          -2.628  -3.071   0.985  0.00  0.00    -0.388 OA
ATOM      5  C7  <0> d          -3.457  -2.425   1.955  0.00  0.00     0.044 C 
ATOM      6  C8  <0> d          -3.515  -0.926   1.651  0.00  0.00     0.133 C 
ATOM      7  H10 <0> d          -1.763  -0.911  -0.370  0.00  0.00     0.083 H 
ATOM      8  H11 <0> d          -0.306  -0.661   0.650  0.00  0.00     0.083 H 
ATOM      9  H12 <0> d          -0.724  -3.090   0.159  0.00  0.00     0.077 H 
ATOM     10  H13 <0> d          -0.805  -2.724   1.916  0.00  0.00     0.077 H 
ATOM     11  H14 <0> d          -4.471  -2.850   1.912  0.00  0.00     0.077 H 
ATOM     12  H15 <0> d          -3.036  -2.582   2.959  0.00  0.00     0.077 H 
ATOM     13  H16 <0> d          -4.104  -0.415   2.427  0.00  0.00     0.083 H 
ATOM     14  H17 <0> d          -3.986  -0.767   0.670  0.00  0.00     0.083 H 
ENDROOT
BRANCH   1  15
ATOM     15  C3  <0> d          -2.165   1.070   1.402  0.00  0.00     0.131 C 
ATOM     16  H1  <0> d          -2.551   1.234   0.385  0.00  0.00     0.087 H 
BRANCH  15  17
ATOM     17  C2  <0> d          -0.744   1.622   1.532  0.00  0.00    -0.040 C 
ATOM     18  H5  <0> d          -0.078   1.088   0.838  0.00  0.00     0.035 H 
ATOM     19  H6  <0> d          -0.389   1.480   2.563  0.00  0.00     0.035 H 
BRANCH  17  20
ATOM     20  C1  <0> d          -0.744   3.114   1.193  0.00  0.00    -0.075 C 
ATOM     21  H2  <0> d           0.278   3.510   1.287  0.00  0.00     0.027 H 
ATOM     22  H3  <0> d          -1.409   3.647   1.887  0.00  0.00     0.027 H 
ATOM     23  H4  <0> d          -1.099   3.256   0.162  0.00  0.00     0.027 H 
ENDBRANCH  17  20
ENDBRANCH  15  17
BRANCH  15  24
ATOM     24  C4  <0> d          -3.070   1.743   2.436  0.00  0.00    -0.047 C 
ATOM     25  H7  <0> d          -4.092   1.346   2.342  0.00  0.00     0.030 H 
ATOM     26  H8  <0> d          -3.081   2.829   2.261  0.00  0.00     0.030 H 
ATOM     27  H9  <0> d          -2.688   1.537   3.446  0.00  0.00     0.030 H 
ENDBRANCH  15  24
ENDBRANCH   1  15
TORSDOF 4
