REMARK  0 active torsions:
REMARK  status: ('A' for Active; 'I' for Inactive)
ROOT
ATOM      1  C1  <0> d           0.650   2.248   2.280  0.00  0.00    -0.050 C 
ATOM      2  C2  <0> d           1.512   3.166   1.338  0.00  0.00    -0.035 C 
ATOM      3  H1  <0> d           2.516   3.415   1.683  0.00  0.00     0.046 H 
ATOM      4  C3  <0> d           1.420   2.363   0.001  0.00  0.00    -0.026 C 
ATOM      5  C4  <0> d          -0.022   1.799   0.012  0.00  0.00     0.133 C 
ATOM      6  C5  <0> d          -0.618   2.332   1.354  0.00  0.00    -0.004 C 
ATOM      7  H2  <0> d          -1.528   1.846   1.705  0.00  0.00     0.050 H 
ATOM      8  C6  <0> d          -0.682   3.879   1.133  0.00  0.00    -0.099 C 
ATOM      9  C7  <0> d           0.551   4.343   1.133  0.00  0.00    -0.102 C 
ATOM     10  C8  <0> d          -0.787   2.311  -1.137  0.00  0.00     0.086 C 
ATOM     11  N1  <0> d          -1.377   2.706  -2.024  0.00  0.00    -0.195 NA
ATOM     12 Cl1  <0> d           0.002  -0.004   0.002  0.00  0.00    -0.102 Cl
ATOM     13  H3  <0> d           1.046   1.236   2.354  0.00  0.00     0.035 H 
ATOM     14  H4  <0> d           0.482   2.697   3.259  0.00  0.00     0.035 H 
ATOM     15  H5  <0> d           2.148   1.552  -0.010  0.00  0.00     0.038 H 
ATOM     16  H6  <0> d           1.566   3.023  -0.854  0.00  0.00     0.038 H 
ATOM     17  H7  <0> d          -1.579   4.469   1.009  0.00  0.00     0.077 H 
ATOM     18  H8  <0> d           0.837   5.378   1.010  0.00  0.00     0.076 H 
ENDROOT
TORSDOF 0
