REMARK  3 active torsions:
REMARK  status: ('A' for Active; 'I' for Inactive)
REMARK    1  A    between atoms: C1_1  and  C2_2 
REMARK    2  A    between atoms: C7_7  and  N1_8 
REMARK    3  A    between atoms: N1_8  and  C8_9 
ROOT
ATOM      1  C2  <0> d           1.175   1.782   0.000  0.00  0.00    -0.035 A 
ATOM      2  C3  <0> d          -0.013   1.076   0.008  0.00  0.00    -0.073 A 
ATOM      3  C4  <0> d          -1.220   1.750   0.017  0.00  0.00    -0.061 A 
ATOM      4  C5  <0> d          -1.243   3.134   0.030  0.00  0.00     0.036 A 
ATOM      5  C6  <0> d          -0.058   3.846   0.022  0.00  0.00    -0.036 A 
ATOM      6  C7  <0> d           1.156   3.171   0.008  0.00  0.00     0.035 A 
ATOM      7 Cl1  <0> d          -2.761   3.976   0.048  0.00  0.00    -0.084 Cl
ATOM      8  H4  <0> d           0.002  -0.004   0.002  0.00  0.00     0.084 H 
ATOM      9  H5  <0> d          -2.146   1.195   0.019  0.00  0.00     0.086 H 
ATOM     10  H6  <0> d          -0.076   4.926   0.028  0.00  0.00     0.089 H 
ENDROOT
BRANCH   6  11
ATOM     11  N1  <0> d           2.355   3.887   0.000  0.00  0.00    -0.394 N 
ATOM     12  H7  <0> d           3.316   3.351  -0.011  0.00  0.00     0.159 HD
BRANCH  11  13
ATOM     13  C8  <0> d           2.333   5.352   0.008  0.00  0.00    -0.021 C 
ATOM     14  H8  <0> d           3.365   5.734   0.001  0.00  0.00     0.056 H 
ATOM     15  H9  <0> d           1.817   5.706   0.913  0.00  0.00     0.056 H 
ATOM     16  H10 <0> d           1.801   5.715  -0.884  0.00  0.00     0.056 H 
ENDBRANCH  11  13
ENDBRANCH   6  11
BRANCH   1  17
ATOM     17  C1  <0> d           2.490   1.046  -0.016  0.00  0.00    -0.049 C 
ATOM     18  H1  <0> d           2.303  -0.038  -0.020  0.00  0.00     0.033 H 
ATOM     19  H2  <0> d           3.071   1.315   0.878  0.00  0.00     0.033 H 
ATOM     20  H3  <0> d           3.054   1.324  -0.918  0.00  0.00     0.033 H 
ENDBRANCH   1  17
TORSDOF 3
