REMARK  2 active torsions:
REMARK  status: ('A' for Active; 'I' for Inactive)
REMARK    1  A    between atoms: C3_4  and  C5_7 
REMARK    2  A    between atoms: C4_5  and  N1_6 
ROOT
ATOM      1  C1  <0> d           2.330   5.082   0.008  0.00  0.00    -0.050 A 
ATOM      2  C2  <0> d           1.074   5.592   0.023  0.00  0.00    -0.042 A 
ATOM      3  S1  <0> d           0.067   4.181   0.025  0.00  0.00    -0.093 SA
ATOM      4  C3  <0> d           1.343   2.935   0.005  0.00  0.00     0.107 A 
ATOM      5  C4  <0> d           2.502   3.713   0.004  0.00  0.00     0.050 A 
ATOM      6  H1  <0> d           3.187   5.740   0.003  0.00  0.00     0.087 H 
ATOM      7  H2  <0> d           0.773   6.629   0.031  0.00  0.00     0.095 H 
ENDROOT
BRANCH   4   8
ATOM      8  C5  <0> d           1.215   1.529  -0.001  0.00  0.00     0.218 C 
ATOM      9  O1  <0> d           2.209   0.827  -0.015  0.00  0.00    -0.643 OA
ATOM     10  O2  <0> d          -0.011   0.963   0.007  0.00  0.00    -0.643 OA
ENDBRANCH   4   8
BRANCH   5  11
ATOM     11  N1  <0> d           3.768   3.136  -0.004  0.00  0.00    -0.398 N 
ATOM     12  H3  <0> d           3.861   2.170  -0.010  0.00  0.00     0.156 HD
ATOM     13  H4  <0> d           4.558   3.699  -0.005  0.00  0.00     0.156 HD
ENDBRANCH   5  11
TORSDOF 2
