REMARK  2 active torsions:
REMARK  status: ('A' for Active; 'I' for Inactive)
REMARK    1  A    between atoms: C1_1  and  C2_2 
REMARK    2  A    between atoms: C5_5  and  C8_9 
ROOT
ATOM      1  C8  <0> d           0.059  -4.205  -0.024  0.00  0.00    -0.076 C 
ATOM      2  C9  <0> d           0.075  -5.379  -0.031  0.00  0.00    -0.149 C 
ATOM      3  H7  <0> d           0.088  -6.429  -0.038  0.00  0.00     0.166 H 
ENDROOT
BRANCH   1   4
ATOM      4  C5  <0> d           0.040  -2.774  -0.015  0.00  0.00     0.038 A 
ATOM      5  C4  <0> d           0.024  -2.066  -1.217  0.00  0.00    -0.063 A 
ATOM      6  C3  <0> d           0.006  -0.686  -1.202  0.00  0.00    -0.076 A 
ATOM      7  H5  <0> d           0.026  -2.596  -2.158  0.00  0.00     0.085 H 
ATOM      8  C2  <0> d           0.002  -0.004   0.002  0.00  0.00    -0.060 A 
ATOM      9  H4  <0> d          -0.006  -0.137  -2.132  0.00  0.00     0.084 H 
ATOM     10  C7  <0> d           0.023  -0.699   1.198  0.00  0.00    -0.055 A 
ATOM     11  C6  <0> d           0.037  -2.080   1.197  0.00  0.00     0.053 A 
ATOM     12  H6  <0> d           0.024  -0.160   2.134  0.00  0.00     0.086 H 
ATOM     13 Cl1  <0> d           0.056  -2.951   2.698  0.00  0.00    -0.083 Cl
BRANCH   8  14
ATOM     14  C1  <0> d          -0.018   1.503   0.010  0.00  0.00    -0.051 C 
ATOM     15  H1  <0> d           1.004   1.880   0.003  0.00  0.00     0.033 H 
ATOM     16  H2  <0> d          -0.545   1.864  -0.873  0.00  0.00     0.033 H 
ATOM     17  H3  <0> d          -0.529   1.854   0.907  0.00  0.00     0.033 H 
ENDBRANCH   8  14
ENDBRANCH   1   4
TORSDOF 2
