REMARK  6 active torsions:
REMARK  status: ('A' for Active; 'I' for Inactive)
REMARK    1  A    between atoms: C1_1  and  C2_2 
REMARK    2  A    between atoms: C3_3  and  N3_11 
REMARK    3  A    between atoms: C4_4  and  C7_10 
REMARK    4  A    between atoms: N1_5  and  C5_7 
REMARK    5  A    between atoms: C5_7  and  C6_8 
REMARK    6  A    between atoms: C6_8  and  O1_9 
ROOT
ATOM      1  C2  <0> d           0.566  -0.197   4.133  0.00  0.00     0.079 A 
ATOM      2  C3  <0> d           1.367   0.953   4.144  0.00  0.00     0.076 A 
ATOM      3  C4  <0> d           0.989   1.735   3.101  0.00  0.00     0.055 A 
ATOM      4  N1  <0> d          -0.020   1.094   2.454  0.00  0.00    -0.270 N 
ATOM      5  N2  <0> d          -0.267  -0.110   3.127  0.00  0.00    -0.175 NA
ENDROOT
BRANCH   4   6
ATOM      6  C5  <0> d          -0.729   1.579   1.267  0.00  0.00     0.036 C 
ATOM      7  H4  <0> d          -1.761   1.198   1.275  0.00  0.00     0.070 H 
ATOM      8  H5  <0> d          -0.744   2.679   1.273  0.00  0.00     0.070 H 
BRANCH   6   9
ATOM      9  C6  <0> d          -0.013   1.086   0.008  0.00  0.00     0.033 C 
ATOM     10  H6  <0> d           1.019   1.466   0.000  0.00  0.00     0.076 H 
ATOM     11  H7  <0> d           0.002  -0.014   0.002  0.00  0.00     0.076 H 
BRANCH   9  12
ATOM     12  O1  <0> d          -0.704   1.559  -1.150  0.00  0.00    -0.399 OA
ATOM     13  H8  <0> d          -0.334   1.304  -2.154  0.00  0.00     0.209 HD
ENDBRANCH   9  12
ENDBRANCH   6   9
ENDBRANCH   4   6
BRANCH   3  14
ATOM     14  C7  <0> d           1.581   3.069   2.728  0.00  0.00    -0.034 C 
ATOM     15  H9  <0> d           1.068   3.462   1.837  0.00  0.00     0.035 H 
ATOM     16  H10 <0> d           2.652   2.948   2.510  0.00  0.00     0.035 H 
ATOM     17  H11 <0> d           1.454   3.773   3.564  0.00  0.00     0.035 H 
ENDBRANCH   3  14
BRANCH   2  18
ATOM     18  N3  <0> d           2.384   1.246   5.073  0.00  0.00    -0.396 N 
ATOM     19  H12 <0> d           2.954   2.183   4.988  0.00  0.00     0.156 HD
ATOM     20  H13 <0> d           2.609   0.537   5.884  0.00  0.00     0.156 HD
ENDBRANCH   2  18
BRANCH   1  21
ATOM     21  C1  <0> d           0.644  -1.337   5.115  0.00  0.00    -0.032 C 
ATOM     22  H1  <0> d           1.438  -1.134   5.849  0.00  0.00     0.035 H 
ATOM     23  H2  <0> d           0.872  -2.269   4.578  0.00  0.00     0.035 H 
ATOM     24  H3  <0> d          -0.319  -1.439   5.636  0.00  0.00     0.035 H 
ENDBRANCH   1  21
TORSDOF 6
