REMARK  1 active torsions:
REMARK  status: ('A' for Active; 'I' for Inactive)
REMARK    1  A    between atoms: C3_6  and  N3_10 
ROOT
ATOM      1  C1  <0> d          -0.017   1.387   0.010  0.00  0.00     0.022 A 
ATOM      2  C2  <0> d           1.195   2.070   0.002  0.00  0.00     0.197 A 
ATOM      3  O1  <0> d           1.218   3.410   0.009  0.00  0.00    -0.172 OA
ATOM      4  N1  <0> d           2.346   1.369  -0.013  0.00  0.00    -0.168 N 
ATOM      5  H1  <0> d           3.194   1.839  -0.018  0.00  0.00     0.186 HD
ATOM      6  C3  <0> d           2.331   0.036  -0.020  0.00  0.00     0.679 A 
ATOM      7  N2  <0> d           1.187  -0.646  -0.013  0.00  0.00    -0.168 N 
ATOM      8  C4  <0> d           0.002  -0.004   0.002  0.00  0.00     0.197 A 
ATOM      9  O2  <0> d          -1.145  -0.697   0.009  0.00  0.00    -0.172 OA
ATOM     10  H2  <0> d          -0.953   1.925   0.026  0.00  0.00     0.097 H 
ATOM     11  H5  <0> d           1.207  -1.616  -0.018  0.00  0.00     0.186 HD
ENDROOT
BRANCH   6  12
ATOM     12  N3  <0> d           3.516  -0.645  -0.035  0.00  0.00    -0.234 N 
ATOM     13  H3  <0> d           4.355  -0.159  -0.041  0.00  0.00     0.174 HD
ATOM     14  H4  <0> d           3.518  -1.615  -0.041  0.00  0.00     0.174 HD
ENDBRANCH   6  12
TORSDOF 1
