REMARK  3 active torsions:
REMARK  status: ('A' for Active; 'I' for Inactive)
REMARK    1  A    between atoms: C3_3  and  O2_10 
REMARK    2  A    between atoms: C6_6  and  C7_7 
REMARK    3  A    between atoms: C7_7  and  C8_8 
ROOT
ATOM      1  C1  <0> d          -2.989   0.500  -1.179  0.00  0.00    -0.074 A 
ATOM      2  C2  <0> d          -4.023  -0.416  -1.182  0.00  0.00    -0.051 A 
ATOM      3  C3  <0> d          -4.540  -0.881   0.019  0.00  0.00     0.065 A 
ATOM      4  C4  <0> d          -4.012  -0.429   1.220  0.00  0.00    -0.051 A 
ATOM      5  C5  <0> d          -2.974   0.483   1.217  0.00  0.00    -0.074 A 
ATOM      6  C6  <0> d          -2.462   0.945   0.019  0.00  0.00    -0.048 A 
ATOM      7  H1  <0> d          -2.590   0.866  -2.114  0.00  0.00     0.084 H 
ATOM      8  H2  <0> d          -4.432  -0.766  -2.118  0.00  0.00     0.087 H 
ATOM      9  H3  <0> d          -4.412  -0.789   2.156  0.00  0.00     0.087 H 
ATOM     10  H4  <0> d          -2.563   0.835   2.151  0.00  0.00     0.084 H 
ENDROOT
BRANCH   6  11
ATOM     11  C7  <0> d          -1.329   1.940   0.019  0.00  0.00     0.039 C 
ATOM     12  H5  <0> d          -1.391   2.561   0.913  0.00  0.00     0.056 H 
ATOM     13  H6  <0> d          -1.400   2.570  -0.867  0.00  0.00     0.056 H 
BRANCH  11  14
ATOM     14  C8  <0> d          -0.014   1.204   0.009  0.00  0.00     0.176 C 
ATOM     15  O1  <0> d           0.002  -0.004   0.002  0.00  0.00    -0.648 OA
ATOM     16  O3  <0> d           1.139   1.891   0.001  0.00  0.00    -0.648 OA
ENDBRANCH  11  14
ENDBRANCH   6  11
BRANCH   3  17
ATOM     17  O2  <0> d          -5.560  -1.778   0.019  0.00  0.00    -0.361 OA
ATOM     18  H7  <0> d          -6.439  -1.375   0.025  0.00  0.00     0.217 HD
ENDBRANCH   3  17
TORSDOF 3
