REMARK  1 active torsions:
REMARK  status: ('A' for Active; 'I' for Inactive)
REMARK    1  A    between atoms: C2_2  and  O1_9 
ROOT
ATOM      1  C1  <0> d           2.381   1.417  -0.013  0.00  0.00    -0.014 A 
ATOM      2  C2  <0> d           2.401   0.030  -0.021  0.00  0.00     0.071 A 
ATOM      3  C3  <0> d           1.209  -0.680  -0.014  0.00  0.00    -0.014 A 
ATOM      4  C4  <0> d           0.002  -0.004   0.002  0.00  0.00     0.121 A 
ATOM      5  C5  <0> d          -0.017   1.380   0.010  0.00  0.00    -0.008 A 
ATOM      6  C6  <0> d           1.172   2.090   0.002  0.00  0.00     0.121 A 
ATOM      7  F1  <0> d           1.152   3.441   0.010  0.00  0.00    -0.206 F 
ATOM      8  F2  <0> d          -1.159  -0.695   0.009  0.00  0.00    -0.206 F 
ATOM      9  H1  <0> d           3.308   1.970  -0.019  0.00  0.00     0.092 H 
ATOM     10  H2  <0> d           1.224  -1.760  -0.020  0.00  0.00     0.092 H 
ATOM     11  H3  <0> d          -0.960   1.907   0.017  0.00  0.00     0.092 H 
ENDROOT
BRANCH   2  12
ATOM     12  O1  <0> d           3.587  -0.633  -0.037  0.00  0.00    -0.361 OA
ATOM     13  H4  <0> d           3.922  -0.820  -0.925  0.00  0.00     0.217 HD
ENDBRANCH   2  12
TORSDOF 1
