REMARK  2 active torsions:
REMARK  status: ('A' for Active; 'I' for Inactive)
REMARK    1  A    between atoms: C1_1  and  C2_2 
REMARK    2  A    between atoms: C3_3  and  N3_12 
ROOT
ATOM      1  C2  <0> d          -0.718   1.572   1.248  0.00  0.00     0.076 A 
ATOM      2  C3  <0> d           0.019   1.808   2.422  0.00  0.00     0.146 A 
ATOM      3  N1  <0> d          -0.582   2.234   3.516  0.00  0.00    -0.228 NA
ATOM      4  C4  <0> d          -1.905   2.442   3.507  0.00  0.00     0.087 A 
ATOM      5  C5  <0> d          -2.574   2.897   4.656  0.00  0.00    -0.053 A 
ATOM      6  C6  <0> d          -3.919   3.101   4.617  0.00  0.00    -0.081 A 
ATOM      7  C7  <0> d          -4.646   2.866   3.452  0.00  0.00    -0.081 A 
ATOM      8  C8  <0> d          -4.031   2.425   2.320  0.00  0.00    -0.053 A 
ATOM      9  C9  <0> d          -2.643   2.204   2.322  0.00  0.00     0.086 A 
ATOM     10  N2  <0> d          -2.013   1.776   1.221  0.00  0.00    -0.248 NA
ATOM     11  H4  <0> d          -2.023   3.083   5.566  0.00  0.00     0.087 H 
ATOM     12  H5  <0> d          -4.430   3.450   5.502  0.00  0.00     0.083 H 
ATOM     13  H6  <0> d          -5.713   3.035   3.447  0.00  0.00     0.083 H 
ATOM     14  H7  <0> d          -4.607   2.248   1.424  0.00  0.00     0.087 H 
ENDROOT
BRANCH   1  15
ATOM     15  C1  <0> d          -0.013   1.086   0.008  0.00  0.00    -0.032 C 
ATOM     16  H1  <0> d           0.002  -0.004   0.002  0.00  0.00     0.035 H 
ATOM     17  H2  <0> d           1.010   1.463   0.000  0.00  0.00     0.035 H 
ATOM     18  H3  <0> d          -0.540   1.447  -0.875  0.00  0.00     0.035 H 
ENDBRANCH   1  15
BRANCH   2  19
ATOM     19  N3  <0> d           1.389   1.591   2.429  0.00  0.00    -0.382 N 
ATOM     20  H8  <0> d           1.835   1.278   1.627  0.00  0.00     0.157 HD
ATOM     21  H9  <0> d           1.901   1.753   3.237  0.00  0.00     0.157 HD
ENDBRANCH   2  19
TORSDOF 2
