REMARK  1 active torsions:
REMARK  status: ('A' for Active; 'I' for Inactive)
REMARK    1  A    between atoms: C3_4  and  C4_7 
ROOT
ATOM      1  C4  <0> d           1.808  -1.779  -0.025  0.00  0.00     0.119 A 
ATOM      2  C5  <0> d           3.181  -2.034  -0.033  0.00  0.00     0.033 A 
ATOM      3  N3  <0> d           3.618  -3.279  -0.043  0.00  0.00    -0.269 NA
ATOM      4  C6  <0> d           2.758  -4.283  -0.046  0.00  0.00     0.019 A 
ATOM      5  C7  <0> d           1.396  -4.035  -0.038  0.00  0.00     0.020 A 
ATOM      6  N4  <0> d           0.948  -2.794  -0.022  0.00  0.00    -0.254 NA
ATOM      7  H4  <0> d           3.884  -1.214  -0.031  0.00  0.00     0.118 H 
ATOM      8  H5  <0> d           3.119  -5.301  -0.055  0.00  0.00     0.117 H 
ATOM      9  H6  <0> d           0.698  -4.860  -0.042  0.00  0.00     0.117 H 
ENDROOT
BRANCH   1  10
ATOM     10  C3  <0> d           1.312  -0.386  -0.013  0.00  0.00     0.157 A 
ATOM     11  N1  <0> d           2.058   0.697  -0.014  0.00  0.00    -0.240 NA
ATOM     12  C2  <0> d           1.269   1.776  -0.001  0.00  0.00     0.019 A 
ATOM     13  C1  <0> d          -0.017   1.363   0.009  0.00  0.00    -0.004 A 
ATOM     14  H3  <0> d           1.602   2.803   0.002  0.00  0.00     0.117 H 
ATOM     15  N2  <0> d           0.002  -0.004   0.002  0.00  0.00    -0.347 N 
ATOM     16  H2  <0> d          -0.893   1.993   0.025  0.00  0.00     0.113 H 
ATOM     17  H1  <0> d          -0.770  -0.592   0.006  0.00  0.00     0.167 HD
ENDBRANCH   1  10
TORSDOF 1
