REMARK  3 active torsions:
REMARK  status: ('A' for Active; 'I' for Inactive)
REMARK    1  A    between atoms: C1_1  and  C2_2 
REMARK    2  A    between atoms: C2_2  and  O1_3 
REMARK    3  A    between atoms: O1_3  and  C3_4 
REMARK       I    between atoms: C3_4  and  N1_6 
ROOT
ATOM      1  C3  <0> d          -0.014   1.210   0.009  0.00  0.00     0.370 C 
ATOM      2  O2  <0> d           0.002  -0.004   0.002  0.00  0.00    -0.238 OA
ATOM      3  N1  <0> d          -1.191   1.868   0.018  0.00  0.00    -0.280 N 
ATOM      4  C4  <0> d          -1.346   3.229   0.032  0.00  0.00    -0.011 A 
ATOM      5  C5  <0> d          -2.664   3.501   0.034  0.00  0.00    -0.066 A 
ATOM      6  C6  <0> d          -3.354   2.269   0.030  0.00  0.00    -0.066 A 
ATOM      7  C7  <0> d          -2.432   1.288   0.021  0.00  0.00    -0.011 A 
ATOM      8  H6  <0> d          -0.549   3.958   0.038  0.00  0.00     0.112 H 
ATOM      9  H7  <0> d          -3.113   4.483   0.041  0.00  0.00     0.085 H 
ATOM     10  H8  <0> d          -4.426   2.138   0.035  0.00  0.00     0.085 H 
ATOM     11  H9  <0> d          -2.636   0.227   0.015  0.00  0.00     0.112 H 
ENDROOT
BRANCH   1  12
ATOM     12  O1  <0> d           1.142   1.899   0.001  0.00  0.00    -0.304 OA
BRANCH  12  13
ATOM     13  C2  <0> d           2.370   1.124  -0.015  0.00  0.00     0.027 C 
ATOM     14  H4  <0> d           2.395   0.495  -0.916  0.00  0.00     0.074 H 
ATOM     15  H5  <0> d           2.412   0.485   0.880  0.00  0.00     0.074 H 
BRANCH  13  16
ATOM     16  C1  <0> d           3.570   2.073  -0.021  0.00  0.00    -0.056 C 
ATOM     17  H1  <0> d           4.501   1.486  -0.033  0.00  0.00     0.030 H 
ATOM     18  H2  <0> d           3.545   2.702   0.881  0.00  0.00     0.030 H 
ATOM     19  H3  <0> d           3.528   2.712  -0.915  0.00  0.00     0.030 H 
ENDBRANCH  13  16
ENDBRANCH  12  13
ENDBRANCH   1  12
TORSDOF 3
