REMARK  2 active torsions:
REMARK  status: ('A' for Active; 'I' for Inactive)
REMARK    1  A    between atoms: C1_1  and  O1_2 
REMARK    2  A    between atoms: O1_2  and  C2_3 
ROOT
ATOM      1  C2  <0> d           0.652  -0.570  -1.138  0.00  0.00     0.134 C 
ATOM      2  H1  <0> d           1.659  -0.167  -1.243  0.00  0.00     0.129 H 
ATOM      3  C3  <0> d           0.691  -2.116  -1.032  0.00  0.00    -0.014 C 
ATOM      4  C4  <0> d           0.798  -2.542  -2.517  0.00  0.00    -0.008 C 
ATOM      5  C5  <0> d           0.278  -1.320  -3.292  0.00  0.00     0.167 C 
ATOM      6  O2  <0> d          -0.120  -0.329  -2.335  0.00  0.00    -0.325 OA
ATOM      7  C6  <0> d          -0.924  -1.728  -4.163  0.00  0.00    -0.011 C 
ATOM      8  C7  <0> d          -0.689  -0.896  -5.455  0.00  0.00    -0.040 C 
ATOM      9  C8  <0> d           0.860  -0.887  -5.522  0.00  0.00     0.023 C 
ATOM     10  O3  <0> d           1.294  -0.806  -4.154  0.00  0.00    -0.355 OA
ATOM     11  H5  <0> d           1.565  -2.446  -0.469  0.00  0.00     0.040 H 
ATOM     12  H6  <0> d          -0.226  -2.499  -0.583  0.00  0.00     0.040 H 
ATOM     13  H7  <0> d           1.835  -2.749  -2.782  0.00  0.00     0.041 H 
ATOM     14  H8  <0> d           0.172  -3.412  -2.712  0.00  0.00     0.041 H 
ATOM     15  H9  <0> d          -0.903  -2.796  -4.380  0.00  0.00     0.041 H 
ATOM     16  H10 <0> d          -1.863  -1.446  -3.686  0.00  0.00     0.041 H 
ATOM     17  H11 <0> d          -1.117  -1.393  -6.325  0.00  0.00     0.036 H 
ATOM     18  H12 <0> d          -1.083   0.115  -5.348  0.00  0.00     0.036 H 
ATOM     19  H13 <0> d           1.224  -1.806  -5.981  0.00  0.00     0.074 H 
ATOM     20  H14 <0> d           1.209  -0.020  -6.082  0.00  0.00     0.074 H 
ENDROOT
BRANCH   1  21
ATOM     21  O1  <0> d           0.002  -0.004   0.002  0.00  0.00    -0.366 OA
BRANCH  21  22
ATOM     22  C1  <0> d          -0.017   1.425   0.010  0.00  0.00     0.007 C 
ATOM     23  H2  <0> d           1.005   1.802   0.002  0.00  0.00     0.066 H 
ATOM     24  H3  <0> d          -0.544   1.786  -0.873  0.00  0.00     0.066 H 
ATOM     25  H4  <0> d          -0.527   1.776   0.907  0.00  0.00     0.066 H 
ENDBRANCH  21  22
ENDBRANCH   1  21
TORSDOF 2
