REMARK  1 active torsions:
REMARK  status: ('A' for Active; 'I' for Inactive)
REMARK    1  A    between atoms: C5_6  and  S1_7 
ROOT
ATOM      1  C1  <0> d          -1.223   1.742   0.017  0.00  0.00    -0.043 A 
ATOM      2  C2  <0> d          -0.013   1.076   0.008  0.00  0.00     0.003 A 
ATOM      3  N1  <0> d           1.125   1.743   0.001  0.00  0.00    -0.273 NA
ATOM      4  C3  <0> d           1.155   3.061   0.007  0.00  0.00     0.003 A 
ATOM      5  C4  <0> d          -0.015   3.796   0.022  0.00  0.00    -0.043 A 
ATOM      6  C5  <0> d          -1.231   3.129   0.030  0.00  0.00     0.083 A 
ATOM      7  H1  <0> d          -2.151   1.190   0.018  0.00  0.00     0.088 H 
ATOM      8  H2  <0> d           0.002  -0.004   0.002  0.00  0.00     0.114 H 
ATOM      9  H3  <0> d           2.107   3.573   0.001  0.00  0.00     0.114 H 
ATOM     10  H4  <0> d           0.016   4.875   0.027  0.00  0.00     0.088 H 
ENDROOT
BRANCH   6  11
ATOM     11  S1  <0> d          -2.749   4.022   0.048  0.00  0.00     0.137 S 
ATOM     12  O1  <0> d          -3.726   3.152   0.604  0.00  0.00    -0.591 OA
ATOM     13  O2  <0> d          -2.463   5.299   0.603  0.00  0.00    -0.591 OA
ATOM     14  O3  <0> d          -3.151   4.257  -1.401  0.00  0.00    -0.591 OA
ENDBRANCH   6  11
TORSDOF 1
