REMARK  6 active torsions:
REMARK  status: ('A' for Active; 'I' for Inactive)
REMARK    1  A    between atoms: C1_1  and  C2_2 
REMARK    2  A    between atoms: C2_2  and  C3_3 
REMARK    3  A    between atoms: C3_3  and  C4_5 
REMARK    4  A    between atoms: C3_3  and  N1_6 
REMARK    5  A    between atoms: C6_8  and  N3_12 
REMARK    6  A    between atoms: C7_9  and  C8_11 
ROOT
ATOM      1  N1  <0> d           0.594   3.613   0.015  0.00  0.00    -0.274 N 
ATOM      2  C5  <0> d          -0.766   3.604   0.027  0.00  0.00     0.026 A 
ATOM      3  C6  <0> d          -1.166   2.308   0.019  0.00  0.00     0.069 A 
ATOM      4  C7  <0> d          -0.018   1.503   0.010  0.00  0.00     0.078 A 
ATOM      5  N2  <0> d           1.032   2.283   0.004  0.00  0.00    -0.175 NA
ATOM      6  H10 <0> d          -1.410   4.471   0.037  0.00  0.00     0.117 H 
ENDROOT
BRANCH   1   7
ATOM      7  C3  <0> d           1.449   4.803   0.013  0.00  0.00     0.030 C 
ATOM      8  H1  <0> d           2.416   4.508   0.446  0.00  0.00     0.075 H 
BRANCH   7   9
ATOM      9  C2  <0> d           1.631   5.298  -1.423  0.00  0.00    -0.048 C 
ATOM     10  H5  <0> d           0.662   5.635  -1.821  0.00  0.00     0.035 H 
ATOM     11  H6  <0> d           2.018   4.479  -2.047  0.00  0.00     0.035 H 
BRANCH   9  12
ATOM     12  C1  <0> d           2.622   6.463  -1.440  0.00  0.00    -0.075 C 
ATOM     13  H2  <0> d           2.752   6.819  -2.472  0.00  0.00     0.027 H 
ATOM     14  H3  <0> d           3.590   6.127  -1.043  0.00  0.00     0.027 H 
ATOM     15  H4  <0> d           2.234   7.283  -0.816  0.00  0.00     0.027 H 
ENDBRANCH   9  12
ENDBRANCH   7   9
BRANCH   7  16
ATOM     16  C4  <0> d           0.794   5.902   0.852  0.00  0.00    -0.055 C 
ATOM     17  H7  <0> d           0.664   5.547   1.885  0.00  0.00     0.030 H 
ATOM     18  H8  <0> d          -0.187   6.155   0.424  0.00  0.00     0.030 H 
ATOM     19  H9  <0> d           1.436   6.796   0.851  0.00  0.00     0.030 H 
ENDBRANCH   7  16
ENDBRANCH   1   7
BRANCH   4  20
ATOM     20  C8  <0> d           0.002  -0.004   0.002  0.00  0.00    -0.032 C 
ATOM     21  H11 <0> d           1.044  -0.357  -0.004  0.00  0.00     0.035 H 
ATOM     22  H12 <0> d          -0.515  -0.373  -0.896  0.00  0.00     0.035 H 
ATOM     23  H13 <0> d          -0.508  -0.383   0.900  0.00  0.00     0.035 H 
ENDBRANCH   4  20
BRANCH   3  24
ATOM     24  N3  <0> d          -2.498   1.852   0.023  0.00  0.00    -0.396 N 
ATOM     25  H14 <0> d          -2.710   0.772   0.016  0.00  0.00     0.156 HD
ATOM     26  H15 <0> d          -3.327   2.575   0.033  0.00  0.00     0.156 HD
ENDBRANCH   3  24
TORSDOF 6
