REMARK  7 active torsions:
REMARK  status: ('A' for Active; 'I' for Inactive)
REMARK    1  A    between atoms: C1_1  and  N1_2 
REMARK    2  A    between atoms: N1_2  and  C2_3 
REMARK    3  A    between atoms: N1_2  and  C3_4 
REMARK    4  A    between atoms: C3_4  and  O1_5 
REMARK    5  A    between atoms: C3_4  and  O2_7 
REMARK    6  A    between atoms: O1_5  and  C4_6 
REMARK    7  A    between atoms: O2_7  and  C5_8 
ROOT
ATOM      1  C3  <0> d          -0.018   1.092   0.010  0.00  0.00     0.324 C 
ATOM      2  H7  <0> d          -0.104  -0.004   0.058  0.00  0.00     0.182 H 
ENDROOT
BRANCH   1   3
ATOM      3  N1  <0> d          -0.666   1.722   1.168  0.00  0.00     0.135 N 
BRANCH   3   4
ATOM      4  C1  <0> d          -0.663   3.185   1.041  0.00  0.00     0.101 C 
ATOM      5  H1  <0> d           0.370   3.539   0.907  0.00  0.00     0.072 H 
ATOM      6  H2  <0> d          -1.089   3.632   1.952  0.00  0.00     0.072 H 
ATOM      7  H3  <0> d          -1.268   3.479   0.171  0.00  0.00     0.072 H 
ENDBRANCH   3   4
BRANCH   3   8
ATOM      8  C2  <0> d          -2.031   1.211   1.349  0.00  0.00     0.101 C 
ATOM      9  H4  <0> d          -2.004   0.116   1.441  0.00  0.00     0.072 H 
ATOM     10  H5  <0> d          -2.646   1.491   0.480  0.00  0.00     0.072 H 
ATOM     11  H6  <0> d          -2.467   1.645   2.261  0.00  0.00     0.072 H 
ENDBRANCH   3   8
ENDBRANCH   1   3
BRANCH   1  12
ATOM     12  O1  <0> d           1.368   1.442  -0.010  0.00  0.00    -0.342 OA
BRANCH  12  13
ATOM     13  C4  <0> d           2.161   0.725   0.938  0.00  0.00     0.009 C 
ATOM     14  H8  <0> d           3.209   1.050   0.860  0.00  0.00     0.066 H 
ATOM     15  H9  <0> d           2.096  -0.354   0.730  0.00  0.00     0.066 H 
ATOM     16  H10 <0> d           1.790   0.925   1.954  0.00  0.00     0.066 H 
ENDBRANCH  12  13
ENDBRANCH   1  12
BRANCH   1  17
ATOM     17  O2  <0> d          -0.641   1.549  -1.192  0.00  0.00    -0.342 OA
BRANCH  17  18
ATOM     18  C5  <0> d          -0.366   0.737  -2.335  0.00  0.00     0.009 C 
ATOM     19  H11 <0> d          -0.880   1.154  -3.214  0.00  0.00     0.066 H 
ATOM     20  H12 <0> d          -0.726  -0.287  -2.152  0.00  0.00     0.066 H 
ATOM     21  H13 <0> d           0.718   0.717  -2.519  0.00  0.00     0.066 H 
ENDBRANCH  17  18
ENDBRANCH   1  17
TORSDOF 7
