REMARK  2 active torsions:
REMARK  status: ('A' for Active; 'I' for Inactive)
REMARK    1  A    between atoms: C1_1  and  C2_2 
REMARK    2  A    between atoms: C2_2  and  C3_3 
ROOT
ATOM      1  C3  <0> d          -2.143   1.058   1.278  0.00  0.00     0.134 C 
ATOM      2  N1  <0> d          -2.621   0.314   0.343  0.00  0.00    -0.269 NA
ATOM      3  C4  <0> d          -4.026  -0.003   0.668  0.00  0.00     0.037 C 
ATOM      4  C5  <0> d          -4.339   1.035   1.774  0.00  0.00     0.044 C 
ATOM      5  O1  <0> d          -3.014   1.324   2.268  0.00  0.00    -0.336 OA
ATOM      6  H6  <0> d          -4.669   0.146  -0.200  0.00  0.00     0.070 H 
ATOM      7  H7  <0> d          -4.117  -1.019   1.050  0.00  0.00     0.070 H 
ATOM      8  H8  <0> d          -4.808   1.925   1.355  0.00  0.00     0.077 H 
ATOM      9  H9  <0> d          -4.961   0.598   2.556  0.00  0.00     0.077 H 
ENDROOT
BRANCH   1  10
ATOM     10  C2  <0> d          -0.729   1.579   1.267  0.00  0.00    -0.008 C 
ATOM     11  H4  <0> d          -0.202   1.218   2.150  0.00  0.00     0.044 H 
ATOM     12  H5  <0> d          -0.744   2.669   1.273  0.00  0.00     0.044 H 
BRANCH  10  13
ATOM     13  C1  <0> d          -0.013   1.086   0.008  0.00  0.00    -0.069 C 
ATOM     14  H1  <0> d           0.002  -0.004   0.002  0.00  0.00     0.028 H 
ATOM     15  H2  <0> d           1.010   1.463   0.000  0.00  0.00     0.028 H 
ATOM     16  H3  <0> d          -0.540   1.447  -0.875  0.00  0.00     0.028 H 
ENDBRANCH  10  13
ENDBRANCH   1  10
TORSDOF 2
