REMARK  4 active torsions:
REMARK  status: ('A' for Active; 'I' for Inactive)
REMARK    1  A    between atoms: C1_1  and  C2_2 
REMARK    2  A    between atoms: C2_2  and  C3_3 
REMARK    3  A    between atoms: C2_2  and  C4_4 
REMARK    4  A    between atoms: C2_2  and  C5_5 
ROOT
ATOM      1  C2  <0> d           0.002  -0.004   0.002  0.00  0.00    -0.021 C 
ENDROOT
BRANCH   1   2
ATOM      2  C1  <0> d          -0.019   1.526   0.010  0.00  0.00    -0.066 C 
ATOM      3  H2  <0> d           1.004   1.903   0.003  0.00  0.00     0.028 H 
ATOM      4  H3  <0> d          -0.546   1.887  -0.873  0.00  0.00     0.028 H 
ATOM      5  H4  <0> d          -0.529   1.877   0.907  0.00  0.00     0.028 H 
ENDBRANCH   1   2
BRANCH   1   6
ATOM      6  C3  <0> d           0.742  -0.511   1.242  0.00  0.00    -0.066 C 
ATOM      7  H5  <0> d           0.232  -0.159   2.138  0.00  0.00     0.028 H 
ATOM      8  H6  <0> d           0.757  -1.601   1.236  0.00  0.00     0.028 H 
ATOM      9  H7  <0> d           1.765  -0.134   1.234  0.00  0.00     0.028 H 
ENDBRANCH   1   6
BRANCH   1  10
ATOM     10  C4  <0> d          -1.433  -0.534   0.013  0.00  0.00    -0.066 C 
ATOM     11  H8  <0> d          -1.960  -0.173  -0.870  0.00  0.00     0.028 H 
ATOM     12  H9  <0> d          -1.419  -1.623   0.007  0.00  0.00     0.028 H 
ATOM     13  H10 <0> d          -1.944  -0.182   0.910  0.00  0.00     0.028 H 
ENDBRANCH   1  10
BRANCH   1  14
ATOM     14  C5  <0> d           0.707  -0.490  -1.238  0.00  0.00    -0.015 A 
ATOM     15  C7  <0> d           1.263   0.315  -2.237  0.00  0.00     0.030 A 
ATOM     16  N2  <0> d           1.789  -0.466  -3.146  0.00  0.00    -0.187 NA
ATOM     17  H12 <0> d           1.261   1.395  -2.255  0.00  0.00     0.118 H 
ATOM     18  N1  <0> d           1.576  -1.795  -2.757  0.00  0.00    -0.289 N 
ATOM     19  C6  <0> d           0.910  -1.782  -1.584  0.00  0.00     0.004 A 
ATOM     20  H1  <0> d           1.856  -2.584  -3.246  0.00  0.00     0.188 HD
ATOM     21  H11 <0> d           0.595  -2.649  -1.021  0.00  0.00     0.114 H 
ENDBRANCH   1  14
TORSDOF 4
