REMARK  2 active torsions:
REMARK  status: ('A' for Active; 'I' for Inactive)
REMARK    1  A    between atoms: C2_2  and  C5_9 
REMARK    2  A    between atoms: C3_6  and  C4_7 
ROOT
ATOM      1  C1  <0> d          -3.295   0.336  -0.846  0.00  0.00    -0.023 A 
ATOM      2  C2  <0> d          -2.164   0.907  -1.435  0.00  0.00     0.061 A 
ATOM      3  N1  <0> d          -2.144   0.552  -2.694  0.00  0.00    -0.178 NA
ATOM      4  N2  <0> d          -3.147  -0.200  -2.976  0.00  0.00    -0.271 N 
ATOM      5  H1  <0> d          -3.336  -0.596  -3.874  0.00  0.00     0.189 HD
ATOM      6  C3  <0> d          -3.916  -0.375  -1.860  0.00  0.00     0.128 A 
ATOM      7  H2  <0> d          -3.616   0.428   0.181  0.00  0.00     0.090 H 
ENDROOT
BRANCH   2   8
ATOM      8  C5  <0> d          -1.150   1.781  -0.743  0.00  0.00    -0.010 A 
ATOM      9  C7  <0> d          -1.136   1.773   0.788  0.00  0.00    -0.056 A 
ATOM     10  C6  <0> d          -0.013   1.086   0.008  0.00  0.00    -0.056 A 
ATOM     11  H6  <0> d          -1.859   1.135   1.295  0.00  0.00     0.034 H 
ATOM     12  H7  <0> d          -0.897   2.708   1.294  0.00  0.00     0.034 H 
ATOM     13  H4  <0> d           0.002  -0.004   0.002  0.00  0.00     0.034 H 
ATOM     14  H5  <0> d           0.964   1.569   0.001  0.00  0.00     0.034 H 
ATOM     15  H3  <0> d          -0.922   2.722  -1.243  0.00  0.00     0.049 H 
ENDBRANCH   2   8
BRANCH   6  16
ATOM     16  C4  <0> d          -5.154  -1.161  -1.756  0.00  0.00     0.228 C 
ATOM     17  O1  <0> d          -5.741  -1.232  -0.694  0.00  0.00    -0.643 OA
ATOM     18  O2  <0> d          -5.638  -1.802  -2.838  0.00  0.00    -0.643 OA
ENDBRANCH   6  16
TORSDOF 2
