REMARK  5 active torsions:
REMARK  status: ('A' for Active; 'I' for Inactive)
REMARK    1  A    between atoms: C1_1  and  C2_2 
REMARK    2  A    between atoms: C2_2  and  O1_3 
REMARK    3  A    between atoms: O1_3  and  C3_4 
REMARK    4  A    between atoms: C4_6  and  C8_11 
REMARK    5  A    between atoms: C4_6  and  C9_12 
ROOT
ATOM      1  C3  <0> d          -0.762   2.034  -1.228  0.00  0.00     0.137 C 
ATOM      2  H1  <0> d          -0.741   3.124  -1.242  0.00  0.00     0.130 H 
ATOM      3  C4  <0> d          -0.019   1.526   0.010  0.00  0.00     0.002 C 
ATOM      4  C5  <0> d          -0.738   2.021   1.269  0.00  0.00    -0.052 C 
ATOM      5  C6  <0> d          -2.196   1.547   1.228  0.00  0.00    -0.044 C 
ATOM      6  C7  <0> d          -2.855   2.055  -0.057  0.00  0.00     0.023 C 
ATOM      7  O2  <0> d          -2.117   1.584  -1.187  0.00  0.00    -0.360 OA
ATOM      8  H7  <0> d          -0.246   1.617   2.153  0.00  0.00     0.034 H 
ATOM      9  H8  <0> d          -0.710   3.110   1.300  0.00  0.00     0.034 H 
ATOM     10  H9  <0> d          -2.731   1.942   2.092  0.00  0.00     0.036 H 
ATOM     11  H10 <0> d          -2.225   0.458   1.247  0.00  0.00     0.036 H 
ATOM     12  H11 <0> d          -2.861   3.145  -0.056  0.00  0.00     0.074 H 
ATOM     13  H12 <0> d          -3.878   1.685  -0.111  0.00  0.00     0.074 H 
ENDROOT
BRANCH   1  14
ATOM     14  O1  <0> d          -0.127   1.530  -2.405  0.00  0.00    -0.361 OA
BRANCH  14  15
ATOM     15  C2  <0> d          -0.598   2.121  -3.618  0.00  0.00     0.019 C 
ATOM     16  H5  <0> d          -1.667   1.932  -3.722  0.00  0.00     0.073 H 
ATOM     17  H6  <0> d          -0.420   3.196  -3.591  0.00  0.00     0.073 H 
BRANCH  15  18
ATOM     18  C1  <0> d           0.146   1.509  -4.806  0.00  0.00    -0.056 C 
ATOM     19  H2  <0> d           1.215   1.697  -4.701  0.00  0.00     0.030 H 
ATOM     20  H3  <0> d          -0.032   0.434  -4.832  0.00  0.00     0.030 H 
ATOM     21  H4  <0> d          -0.213   1.959  -5.731  0.00  0.00     0.030 H 
ENDBRANCH  15  18
ENDBRANCH  14  15
ENDBRANCH   1  14
BRANCH   3  22
ATOM     22  C8  <0> d           0.002  -0.004   0.002  0.00  0.00    -0.065 C 
ATOM     23  H13 <0> d           0.529  -0.365   0.885  0.00  0.00     0.028 H 
ATOM     24  H14 <0> d          -1.020  -0.381   0.010  0.00  0.00     0.028 H 
ATOM     25  H15 <0> d           0.512  -0.356  -0.895  0.00  0.00     0.028 H 
ENDBRANCH   3  22
BRANCH   3  26
ATOM     26  C9  <0> d           1.416   2.057  -0.000  0.00  0.00    -0.065 C 
ATOM     27  H16 <0> d           1.927   1.706  -0.897  0.00  0.00     0.028 H 
ATOM     28  H17 <0> d           1.401   3.147   0.006  0.00  0.00     0.028 H 
ATOM     29  H18 <0> d           1.944   1.696   0.883  0.00  0.00     0.028 H 
ENDBRANCH   3  26
TORSDOF 5
