REMARK  5 active torsions:
REMARK  status: ('A' for Active; 'I' for Inactive)
REMARK    1  A    between atoms: C1_1  and  O1_2 
REMARK    2  A    between atoms: O1_2  and  C2_3 
REMARK    3  A    between atoms: C2_3  and  C3_4 
REMARK    4  A    between atoms: C2_3  and  O2_11 
REMARK    5  A    between atoms: O2_11  and  C9_12 
ROOT
ATOM      1  C3  <0> d           0.688   2.048   0.194  0.00  0.00    -0.003 C 
ATOM      2  H1  <0> d           0.873   1.563   1.152  0.00  0.00     0.047 H 
ATOM      3  C4  <0> d          -0.777   1.843  -0.214  0.00  0.00    -0.054 C 
ATOM      4  C5  <0> d          -1.095   0.348  -0.142  0.00  0.00    -0.050 C 
ATOM      5  C6  <0> d          -0.044  -0.439  -0.869  0.00  0.00    -0.106 C 
ATOM      6  C7  <0> d           1.122   0.027  -1.186  0.00  0.00    -0.106 C 
ATOM      7  C8  <0> d           1.580   1.423  -0.881  0.00  0.00    -0.042 C 
ATOM      8  H6  <0> d          -0.928   2.202  -1.232  0.00  0.00     0.034 H 
ATOM      9  H7  <0> d          -1.427   2.389   0.470  0.00  0.00     0.034 H 
ATOM     10  H8  <0> d          -1.124   0.035   0.901  0.00  0.00     0.038 H 
ATOM     11  H9  <0> d          -2.065   0.163  -0.603  0.00  0.00     0.038 H 
ATOM     12  H10 <0> d          -0.274  -1.457  -1.145  0.00  0.00     0.076 H 
ATOM     13  H11 <0> d           1.806  -0.629  -1.703  0.00  0.00     0.076 H 
ATOM     14  H12 <0> d           2.610   1.395  -0.524  0.00  0.00     0.039 H 
ATOM     15  H13 <0> d           1.531   2.026  -1.788  0.00  0.00     0.039 H 
ENDROOT
BRANCH   1  16
ATOM     16  C2  <0> d           0.986   3.545   0.304  0.00  0.00     0.133 C 
ATOM     17  H5  <0> d           0.336   3.991   1.056  0.00  0.00     0.129 H 
BRANCH  16  18
ATOM     18  O1  <0> d           2.351   3.731   0.683  0.00  0.00    -0.366 OA
BRANCH  18  19
ATOM     19  C1  <0> d           2.602   4.963   1.364  0.00  0.00     0.007 C 
ATOM     20  H2  <0> d           2.225   5.792   0.766  0.00  0.00     0.066 H 
ATOM     21  H3  <0> d           2.098   4.953   2.330  0.00  0.00     0.066 H 
ATOM     22  H4  <0> d           3.675   5.082   1.515  0.00  0.00     0.066 H 
ENDBRANCH  18  19
ENDBRANCH  16  18
BRANCH  16  23
ATOM     23  O2  <0> d           0.753   4.171  -0.960  0.00  0.00    -0.366 OA
BRANCH  23  24
ATOM     24  C9  <0> d           0.696   5.598  -0.899  0.00  0.00     0.007 C 
ATOM     25  H14 <0> d           0.238   5.982  -1.810  0.00  0.00     0.066 H 
ATOM     26  H15 <0> d           0.101   5.901  -0.038  0.00  0.00     0.066 H 
ATOM     27  H16 <0> d           1.705   5.998  -0.803  0.00  0.00     0.066 H 
ENDBRANCH  23  24
ENDBRANCH  16  23
ENDBRANCH   1  16
TORSDOF 5
