REMARK  6 active torsions:
REMARK  status: ('A' for Active; 'I' for Inactive)
REMARK    1  A    between atoms: C1_1  and  C2_2 
REMARK    2  A    between atoms: C2_2  and  C3_3 
REMARK    3  A    between atoms: C3_3  and  C4_4 
REMARK    4  A    between atoms: C4_4  and  O1_5 
REMARK    5  A    between atoms: O1_5  and  C5_6 
REMARK    6  A    between atoms: C5_6  and  C6_8 
ROOT
ATOM      1  C3  <0> d          -1.433  -0.534   0.013  0.00  0.00    -0.045 C 
ATOM      2  H6  <0> d          -1.944  -0.182   0.910  0.00  0.00     0.036 H 
ATOM      3  H7  <0> d          -1.960  -0.173  -0.870  0.00  0.00     0.036 H 
ENDROOT
BRANCH   1   4
ATOM      4  C2  <0> d           0.002  -0.004   0.002  0.00  0.00    -0.067 C 
ATOM      5  H4  <0> d           0.512  -0.356  -0.895  0.00  0.00     0.032 H 
ATOM      6  H5  <0> d           0.529  -0.365   0.885  0.00  0.00     0.032 H 
BRANCH   4   7
ATOM      7  C1  <0> d          -0.019   1.526   0.010  0.00  0.00    -0.076 C 
ATOM      8  H1  <0> d           1.004   1.903   0.003  0.00  0.00     0.027 H 
ATOM      9  H2  <0> d          -0.546   1.887  -0.873  0.00  0.00     0.027 H 
ATOM     10  H3  <0> d          -0.529   1.877   0.907  0.00  0.00     0.027 H 
ENDBRANCH   4   7
ENDBRANCH   1   4
BRANCH   1  11
ATOM     11  C4  <0> d          -1.413  -2.063   0.004  0.00  0.00     0.029 C 
ATOM     12  H8  <0> d          -0.902  -2.415  -0.892  0.00  0.00     0.075 H 
ATOM     13  H9  <0> d          -0.885  -2.425   0.887  0.00  0.00     0.075 H 
BRANCH  11  14
ATOM     14  O1  <0> d          -2.753  -2.558   0.015  0.00  0.00    -0.322 OA
BRANCH  14  15
ATOM     15  C5  <0> d          -2.911  -3.891   0.009  0.00  0.00     0.254 C 
ATOM     16  O2  <0> d          -1.943  -4.614  -0.004  0.00  0.00    -0.266 OA
BRANCH  15  17
ATOM     17  C6  <0> d          -4.296  -4.486   0.019  0.00  0.00     0.004 C 
ATOM     18  H10 <0> d          -5.035  -3.685   0.030  0.00  0.00     0.041 H 
ATOM     19  H11 <0> d          -4.435  -5.097  -0.873  0.00  0.00     0.041 H 
ATOM     20  H12 <0> d          -4.418  -5.106   0.907  0.00  0.00     0.041 H 
ENDBRANCH  15  17
ENDBRANCH  14  15
ENDBRANCH  11  14
ENDBRANCH   1  11
TORSDOF 6
