REMARK  2 active torsions:
REMARK  status: ('A' for Active; 'I' for Inactive)
REMARK    1  A    between atoms: C3_3  and  C6_8 
REMARK    2  A    between atoms: C6_8  and  C7_9 
ROOT
ATOM      1  C1  <0> d          -2.851   1.593   0.118  0.00  0.00    -0.045 C 
ATOM      2  C2  <0> d          -2.206   1.108  -1.183  0.00  0.00    -0.057 C 
ATOM      3  C3  <0> d          -0.754   1.593  -1.232  0.00  0.00    -0.024 C 
ATOM      4  H1  <0> d          -0.731   2.693  -1.253  0.00  0.00     0.044 H 
ATOM      5  C4  <0> d          -0.013   1.086   0.008  0.00  0.00     0.023 C 
ATOM      6  O1  <0> d          -0.682   1.547   1.183  0.00  0.00    -0.391 OA
ATOM      7  C5  <0> d          -2.029   1.086   1.306  0.00  0.00     0.019 C 
ATOM      8  H2  <0> d          -3.877   1.204   0.190  0.00  0.00     0.036 H 
ATOM      9  H3  <0> d          -2.875   2.693   0.132  0.00  0.00     0.036 H 
ATOM     10  H4  <0> d          -2.231   0.009  -1.218  0.00  0.00     0.033 H 
ATOM     11  H5  <0> d          -2.761   1.515  -2.042  0.00  0.00     0.033 H 
ATOM     12  H6  <0> d           0.002  -0.014   0.002  0.00  0.00     0.074 H 
ATOM     13  H7  <0> d           1.019   1.467  -0.000  0.00  0.00     0.074 H 
ATOM     14  H8  <0> d          -2.464   1.467   2.242  0.00  0.00     0.074 H 
ATOM     15  H9  <0> d          -2.041  -0.014   1.317  0.00  0.00     0.074 H 
ENDROOT
BRANCH   3  16
ATOM     16  C6  <0> d          -0.074   1.051  -2.491  0.00  0.00     0.021 C 
ATOM     17  H10 <0> d          -0.017  -0.046  -2.433  0.00  0.00     0.049 H 
ATOM     18  H11 <0> d          -0.658   1.342  -3.377  0.00  0.00     0.049 H 
BRANCH  16  19
ATOM     19  C7  <0> d           1.317   1.622  -2.597  0.00  0.00     0.172 C 
ATOM     20  O2  <0> d           1.722   2.385  -1.752  0.00  0.00    -0.648 OA
ATOM     21  O3  <0> d           2.104   1.284  -3.630  0.00  0.00    -0.648 OA
ENDBRANCH  16  19
ENDBRANCH   3  16
TORSDOF 2
