REMARK  5 active torsions:
REMARK  status: ('A' for Active; 'I' for Inactive)
REMARK    1  A    between atoms: C1_1  and  C2_2 
REMARK    2  A    between atoms: C2_2  and  C3_3 
REMARK    3  A    between atoms: C2_2  and  C4_4 
REMARK    4  A    between atoms: C4_4  and  C5_5 
REMARK    5  A    between atoms: C5_5  and  C6_6 
ROOT
ATOM      1  C6  <0> d          -0.018   1.468   0.010  0.00  0.00     0.015 C 
ATOM      2  C7  <0> d           0.002  -0.004   0.002  0.00  0.00     0.059 C 
ATOM      3  N1  <0> d           0.018  -1.140  -0.004  0.00  0.00    -0.197 NA
ATOM      4  H11 <0> d           1.005   1.845   0.002  0.00  0.00     0.054 H 
ATOM      5  H12 <0> d          -0.545   1.829  -0.873  0.00  0.00     0.054 H 
ENDROOT
BRANCH   1   6
ATOM      6  C5  <0> d          -0.734   1.961   1.269  0.00  0.00    -0.052 C 
ATOM      7  H9  <0> d          -1.757   1.584   1.277  0.00  0.00     0.034 H 
ATOM      8  H10 <0> d          -0.207   1.600   2.152  0.00  0.00     0.034 H 
BRANCH   6   9
ATOM      9  C4  <0> d          -0.755   3.491   1.277  0.00  0.00    -0.046 C 
ATOM     10  H7  <0> d           0.268   3.868   1.270  0.00  0.00     0.035 H 
ATOM     11  H8  <0> d          -1.282   3.852   0.394  0.00  0.00     0.035 H 
BRANCH   9  12
ATOM     12  C2  <0> d          -1.471   3.984   2.536  0.00  0.00     0.042 C 
ATOM     13  C8  <0> d          -1.491   5.456   2.544  0.00  0.00     0.068 C 
ATOM     14  N2  <0> d          -1.506   6.592   2.550  0.00  0.00    -0.196 NA
BRANCH  12  15
ATOM     15  C1  <0> d          -2.906   3.455   2.547  0.00  0.00    -0.057 C 
ATOM     16  H1  <0> d          -2.892   2.365   2.541  0.00  0.00     0.029 H 
ATOM     17  H2  <0> d          -3.417   3.806   3.444  0.00  0.00     0.029 H 
ATOM     18  H3  <0> d          -3.433   3.816   1.664  0.00  0.00     0.029 H 
ENDBRANCH  12  15
BRANCH  12  19
ATOM     19  C3  <0> d          -0.731   3.478   3.776  0.00  0.00    -0.057 C 
ATOM     20  H4  <0> d           0.292   3.855   3.768  0.00  0.00     0.029 H 
ATOM     21  H5  <0> d          -1.241   3.829   4.673  0.00  0.00     0.029 H 
ATOM     22  H6  <0> d          -0.716   2.388   3.770  0.00  0.00     0.029 H 
ENDBRANCH  12  19
ENDBRANCH   9  12
ENDBRANCH   6   9
ENDBRANCH   1   6
TORSDOF 5
