REMARK  1 active torsions:
REMARK  status: ('A' for Active; 'I' for Inactive)
REMARK    1  A    between atoms: C1_1  and  C2_2 
ROOT
ATOM      1  C2  <0> d          -1.248   2.078   0.019  0.00  0.00     0.009 A 
ATOM      2  H1  <0> d          -1.801   1.897   0.832  0.00  0.00     0.052 H 
ATOM      3  C3  <0> d          -0.727   3.522   0.028  0.00  0.00    -0.030 A 
ATOM      4  C4  <0> d           0.779   3.429   0.013  0.00  0.00    -0.043 A 
ATOM      5  C5  <0> d           1.740   4.423   0.010  0.00  0.00    -0.076 A 
ATOM      6  C6  <0> d           3.083   4.096  -0.005  0.00  0.00    -0.082 A 
ATOM      7  C7  <0> d           3.477   2.769  -0.015  0.00  0.00    -0.082 A 
ATOM      8  C8  <0> d           2.532   1.767  -0.012  0.00  0.00    -0.069 A 
ATOM      9  C9  <0> d           1.166   2.089   0.002  0.00  0.00     0.016 A 
ATOM     10  C10 <0> d          -0.014   1.208   0.009  0.00  0.00     0.164 A 
ATOM     11  O1  <0> d           0.002  -0.004   0.002  0.00  0.00    -0.292 OA
ATOM     12  H5  <0> d          -1.062   4.038   0.927  0.00  0.00     0.041 H 
ATOM     13  H6  <0> d          -1.079   4.049  -0.859  0.00  0.00     0.041 H 
ATOM     14  H7  <0> d           1.440   5.460   0.018  0.00  0.00     0.084 H 
ATOM     15  H8  <0> d           3.828   4.878  -0.007  0.00  0.00     0.083 H 
ATOM     16  H9  <0> d           4.527   2.518  -0.026  0.00  0.00     0.083 H 
ATOM     17  H10 <0> d           2.842   0.733  -0.021  0.00  0.00     0.085 H 
ENDROOT
BRANCH   1  18
ATOM     18  C1  <0> d          -2.087   1.822  -1.235  0.00  0.00    -0.066 C 
ATOM     19  H2  <0> d          -2.411   0.781  -1.249  0.00  0.00     0.028 H 
ATOM     20  H3  <0> d          -2.961   2.474  -1.227  0.00  0.00     0.028 H 
ATOM     21  H4  <0> d          -1.488   2.028  -2.122  0.00  0.00     0.028 H 
ENDBRANCH   1  18
TORSDOF 1
