REMARK  1 active torsions:
REMARK  status: ('A' for Active; 'I' for Inactive)
REMARK    1  A    between atoms: C3_4  and  C6_8 
ROOT
ATOM      1  C1  <0> d          -0.017   1.408   0.010  0.00  0.00    -0.020 A 
ATOM      2  C2  <0> d           1.153   2.090   0.002  0.00  0.00    -0.019 A 
ATOM      3  N1  <0> d           2.333   1.441  -0.013  0.00  0.00    -0.360 N 
ATOM      4  C3  <0> d           2.398   0.076  -0.021  0.00  0.00     0.113 A 
ATOM      5  C4  <0> d           1.259  -0.668  -0.015  0.00  0.00    -0.002 A 
ATOM      6  C5  <0> d           0.002  -0.004   0.002  0.00  0.00     0.175 A 
ATOM      7  O1  <0> d          -1.040  -0.642   0.009  0.00  0.00    -0.288 OA
ATOM      8  H1  <0> d          -0.957   1.940   0.026  0.00  0.00     0.091 H 
ATOM      9  H2  <0> d           1.140   3.170   0.008  0.00  0.00     0.111 H 
ATOM     10  H3  <0> d           1.310  -1.747  -0.022  0.00  0.00     0.093 H 
ATOM     11  H4  <0> d           3.156   1.955  -0.018  0.00  0.00     0.165 HD
ENDROOT
BRANCH   4  12
ATOM     12  C6  <0> d           3.716  -0.597  -0.038  0.00  0.00     0.227 C 
ATOM     13  O2  <0> d           3.779  -1.818  -0.046  0.00  0.00    -0.643 OA
ATOM     14  O3  <0> d           4.742   0.068  -0.045  0.00  0.00    -0.643 OA
ENDBRANCH   4  12
TORSDOF 1
