REMARK  6 active torsions:
REMARK  status: ('A' for Active; 'I' for Inactive)
REMARK    1  A    between atoms: C1_2  and  C2_5 
REMARK    2  A    between atoms: C2_5  and  C3_7 
REMARK    3  A    between atoms: C2_5  and  C7_11 
REMARK    4  A    between atoms: C3_7  and  C4_8 
REMARK    5  A    between atoms: C4_8  and  C5_9 
REMARK    6  A    between atoms: C5_9  and  C6_10 
ROOT
ATOM      1  C7  <0> d          -2.164   1.050   1.278  0.00  0.00     0.018 C 
ATOM      2  C8  <0> d          -2.145  -0.418   1.391  0.00  0.00     0.059 C 
ATOM      3  N1  <0> d          -2.130  -1.550   1.478  0.00  0.00    -0.197 NA
ATOM      4  H14 <0> d          -2.701   1.472   2.127  0.00  0.00     0.055 H 
ATOM      5  H15 <0> d          -2.664   1.336   0.353  0.00  0.00     0.055 H 
ENDROOT
BRANCH   1   6
ATOM      6  C2  <0> d          -0.729   1.579   1.267  0.00  0.00    -0.046 C 
ATOM      7  H4  <0> d          -0.202   1.218   2.150  0.00  0.00     0.040 H 
BRANCH   6   8
ATOM      8  C1  <0> d          -0.013   1.086   0.008  0.00  0.00    -0.072 C 
ATOM      9  H1  <0> d           0.002  -0.004   0.002  0.00  0.00     0.028 H 
ATOM     10  H2  <0> d           1.010   1.463   0.000  0.00  0.00     0.028 H 
ATOM     11  H3  <0> d          -0.540   1.447  -0.875  0.00  0.00     0.028 H 
ENDBRANCH   6   8
BRANCH   6  12
ATOM     12  C3  <0> d          -0.750   3.109   1.275  0.00  0.00    -0.061 C 
ATOM     13  H5  <0> d          -1.198   3.471   0.350  0.00  0.00     0.033 H 
ATOM     14  H6  <0> d          -1.336   3.460   2.125  0.00  0.00     0.033 H 
BRANCH  12  15
ATOM     15  C4  <0> d           0.681   3.638   1.390  0.00  0.00    -0.065 C 
ATOM     16  H7  <0> d           1.130   3.276   2.315  0.00  0.00     0.033 H 
ATOM     17  H8  <0> d           1.268   3.287   0.541  0.00  0.00     0.033 H 
BRANCH  15  18
ATOM     18  C5  <0> d           0.661   5.168   1.399  0.00  0.00    -0.069 C 
ATOM     19  H9  <0> d           0.213   5.530   0.473  0.00  0.00     0.032 H 
ATOM     20  H10 <0> d           0.074   5.519   2.248  0.00  0.00     0.032 H 
BRANCH  18  21
ATOM     21  C6  <0> d           2.092   5.697   1.514  0.00  0.00    -0.077 C 
ATOM     22  H11 <0> d           2.077   6.787   1.519  0.00  0.00     0.027 H 
ATOM     23  H12 <0> d           2.540   5.334   2.439  0.00  0.00     0.027 H 
ATOM     24  H13 <0> d           2.678   5.346   0.664  0.00  0.00     0.027 H 
ENDBRANCH  18  21
ENDBRANCH  15  18
ENDBRANCH  12  15
ENDBRANCH   6  12
ENDBRANCH   1   6
TORSDOF 6
