REMARK  2 active torsions:
REMARK  status: ('A' for Active; 'I' for Inactive)
REMARK    1  A    between atoms: C2_2  and  C4_7 
REMARK    2  A    between atoms: C4_7  and  O3_8 
ROOT
ATOM      1  C1  <0> d          -0.019   1.545   0.011  0.00  0.00     0.048 C 
ATOM      2  C2  <0> d           0.002  -0.004   0.002  0.00  0.00     0.082 C 
ATOM      3  H1  <0> d           0.125  -0.382  -1.013  0.00  0.00     0.090 H 
ATOM      4  O1  <0> d           1.157  -0.319   0.806  0.00  0.00    -0.357 OA
ATOM      5  C3  <0> d           2.004   0.837   0.806  0.00  0.00     0.103 C 
ATOM      6  O2  <0> d           1.395   1.858  -0.001  0.00  0.00    -0.364 OA
ATOM      7  H2  <0> d          -0.512   1.933  -0.880  0.00  0.00     0.078 H 
ATOM      8  H3  <0> d          -0.495   1.924   0.915  0.00  0.00     0.078 H 
ATOM      9  H4  <0> d           2.127   1.202   1.826  0.00  0.00     0.117 H 
ATOM     10  H5  <0> d           2.979   0.577   0.394  0.00  0.00     0.117 H 
ENDROOT
BRANCH   2  11
ATOM     11  C4  <0> d          -1.270  -0.566   0.640  0.00  0.00     0.043 C 
ATOM     12  H6  <0> d          -1.298  -0.294   1.695  0.00  0.00     0.078 H 
ATOM     13  H7  <0> d          -2.143  -0.152   0.134  0.00  0.00     0.078 H 
BRANCH  11  14
ATOM     14  O3  <0> d          -1.278  -1.989   0.514  0.00  0.00    -0.398 OA
ATOM     15  H8  <0> d          -2.058  -2.414   0.897  0.00  0.00     0.209 HD
ENDBRANCH  11  14
ENDBRANCH   2  11
TORSDOF 2
