REMARK  5 active torsions:
REMARK  status: ('A' for Active; 'I' for Inactive)
REMARK    1  A    between atoms: C1_1  and  C2_2 
REMARK    2  A    between atoms: C2_2  and  O1_3 
REMARK    3  A    between atoms: O1_3  and  C3_4 
REMARK    4  A    between atoms: C3_4  and  C4_6 
REMARK    5  A    between atoms: C6_10  and  O4_11 
ROOT
ATOM      1  C3  <0> d          -0.164   1.192   2.389  0.00  0.00     0.299 C 
ATOM      2  O2  <0> d           0.838   0.504   2.424  0.00  0.00    -0.259 OA
ENDROOT
BRANCH   1   3
ATOM      3  O1  <0> d          -0.692   1.554   1.203  0.00  0.00    -0.318 OA
BRANCH   3   4
ATOM      4  C2  <0> d          -0.013   1.086   0.008  0.00  0.00     0.026 C 
ATOM      5  H4  <0> d           0.002  -0.004   0.002  0.00  0.00     0.074 H 
ATOM      6  H5  <0> d           1.010   1.463   0.000  0.00  0.00     0.074 H 
BRANCH   4   7
ATOM      7  C1  <0> d          -0.753   1.593  -1.232  0.00  0.00    -0.056 C 
ATOM      8  H1  <0> d          -1.775   1.215  -1.224  0.00  0.00     0.030 H 
ATOM      9  H2  <0> d          -0.767   2.683  -1.226  0.00  0.00     0.030 H 
ATOM     10  H3  <0> d          -0.242   1.241  -2.128  0.00  0.00     0.030 H 
ENDBRANCH   4   7
ENDBRANCH   3   4
ENDBRANCH   1   3
BRANCH   1  11
ATOM     11  C4  <0> d          -0.797   1.629   3.638  0.00  0.00     0.119 A 
ATOM     12  C6  <0> d          -0.404   1.360   4.950  0.00  0.00     0.225 A 
ATOM     13  O3  <0> d          -1.300   1.977   5.731  0.00  0.00    -0.187 OA
ATOM     14  N1  <0> d          -2.141   2.555   5.086  0.00  0.00    -0.137 NA
ATOM     15  C5  <0> d          -1.961   2.436   3.806  0.00  0.00     0.050 A 
ATOM     16  H6  <0> d          -2.572   2.862   3.024  0.00  0.00     0.120 H 
BRANCH  12  17
ATOM     17  O4  <0> d           0.659   0.630   5.349  0.00  0.00    -0.339 OA
ATOM     18  H7  <0> d           1.469   1.145   5.464  0.00  0.00     0.220 HD
ENDBRANCH  12  17
ENDBRANCH   1  11
TORSDOF 5
