REMARK  8 active torsions:
REMARK  status: ('A' for Active; 'I' for Inactive)
REMARK    1  A    between atoms: C1_1  and  C2_2 
REMARK    2  A    between atoms: C2_2  and  O1_3 
REMARK    3  A    between atoms: O1_3  and  C3_4 
REMARK    4  A    between atoms: C3_4  and  C4_5 
REMARK    5  A    between atoms: C4_5  and  C5_6 
REMARK    6  A    between atoms: C4_5  and  O2_8 
REMARK    7  A    between atoms: C5_6  and  C6_7 
REMARK    8  A    between atoms: O2_8  and  C7_9 
ROOT
ATOM      1  C3  <0> d           0.746  -1.888  -1.280  0.00  0.00     0.062 C 
ATOM      2  H6  <0> d           1.288  -2.288  -0.423  0.00  0.00     0.080 H 
ATOM      3  H7  <0> d          -0.261  -2.304  -1.299  0.00  0.00     0.080 H 
ENDROOT
BRANCH   1   4
ATOM      4  O1  <0> d           0.671  -0.465  -1.174  0.00  0.00    -0.387 OA
BRANCH   4   5
ATOM      5  C2  <0> d           0.002  -0.004   0.002  0.00  0.00     0.016 C 
ATOM      6  H4  <0> d           0.529  -0.365   0.885  0.00  0.00     0.073 H 
ATOM      7  H5  <0> d          -1.020  -0.381   0.010  0.00  0.00     0.073 H 
BRANCH   5   8
ATOM      8  C1  <0> d          -0.019   1.526   0.010  0.00  0.00    -0.056 C 
ATOM      9  H1  <0> d           1.004   1.903   0.003  0.00  0.00     0.030 H 
ATOM     10  H2  <0> d          -0.546   1.887  -0.873  0.00  0.00     0.030 H 
ATOM     11  H3  <0> d          -0.529   1.877   0.907  0.00  0.00     0.030 H 
ENDBRANCH   5   8
ENDBRANCH   4   5
ENDBRANCH   1   4
BRANCH   1  12
ATOM     12  C4  <0> d           1.467  -2.260  -2.550  0.00  0.00     0.176 C 
BRANCH  12  13
ATOM     13  C5  <0> d           1.908  -1.324  -3.349  0.00  0.00    -0.138 C 
BRANCH  13  14
ATOM     14  C6  <0> d           2.350  -0.389  -4.147  0.00  0.00    -0.009 C 
ATOM     15  H8  <0> d           1.718  -0.011  -4.937  0.00  0.00     0.051 H 
ATOM     16  H9  <0> d           3.346   0.006  -4.017  0.00  0.00     0.051 H 
ENDBRANCH  13  14
ENDBRANCH  12  13
BRANCH  12  17
ATOM     17  O2  <0> d           1.657  -3.562  -2.863  0.00  0.00    -0.367 OA
BRANCH  17  18
ATOM     18  C7  <0> d           2.349  -3.842  -4.082  0.00  0.00     0.006 C 
ATOM     19  H10 <0> d           1.795  -3.417  -4.919  0.00  0.00     0.066 H 
ATOM     20  H11 <0> d           3.345  -3.401  -4.044  0.00  0.00     0.066 H 
ATOM     21  H12 <0> d           2.434  -4.921  -4.212  0.00  0.00     0.066 H 
ENDBRANCH  17  18
ENDBRANCH  12  17
ENDBRANCH   1  12
TORSDOF 8
