REMARK  2 active torsions:
REMARK  status: ('A' for Active; 'I' for Inactive)
REMARK    1  A    between atoms: C1_1  and  C2_2 
REMARK    2  A    between atoms: C4_6  and  C5_8 
ROOT
ATOM      1  C2  <0> d           2.166   0.812  -0.004  0.00  0.00     0.052 C 
ATOM      2  H1  <0> d           2.944   1.008   0.733  0.00  0.00     0.078 H 
ATOM      3  C3  <0> d           1.325  -0.426   0.394  0.00  0.00     0.048 C 
ATOM      4  O1  <0> d           0.002  -0.004   0.002  0.00  0.00    -0.336 OA
ATOM      5  C4  <0> d          -0.016   1.342   0.009  0.00  0.00     0.131 C 
ATOM      6  N1  <0> d           1.151   1.883   0.001  0.00  0.00    -0.264 NA
ATOM      7  H5  <0> d           1.377  -0.607   1.467  0.00  0.00     0.078 H 
ATOM      8  H6  <0> d           1.636  -1.308  -0.166  0.00  0.00     0.078 H 
ENDROOT
BRANCH   1   9
ATOM      9  C1  <0> d           2.769   0.638  -1.399  0.00  0.00    -0.053 C 
ATOM     10  H2  <0> d           1.969   0.509  -2.128  0.00  0.00     0.030 H 
ATOM     11  H3  <0> d           3.355   1.521  -1.655  0.00  0.00     0.030 H 
ATOM     12  H4  <0> d           3.414  -0.241  -1.409  0.00  0.00     0.030 H 
ENDBRANCH   1   9
BRANCH   5  13
ATOM     13  C5  <0> d          -1.292   2.144   0.020  0.00  0.00    -0.016 C 
ATOM     14  H7  <0> d          -2.147   1.467   0.021  0.00  0.00     0.038 H 
ATOM     15  H8  <0> d          -1.321   2.768   0.913  0.00  0.00     0.038 H 
ATOM     16  H9  <0> d          -1.331   2.777  -0.867  0.00  0.00     0.038 H 
ENDBRANCH   5  13
TORSDOF 2
