REMARK  3 active torsions:
REMARK  status: ('A' for Active; 'I' for Inactive)
REMARK    1  A    between atoms: C2_2  and  O3_10 
REMARK    2  A    between atoms: C3_3  and  C6_8 
REMARK    3  A    between atoms: C5_6  and  O1_7 
ROOT
ATOM      1  C1  <0> d           2.476   5.119   0.005  0.00  0.00     0.001 A 
ATOM      2  C2  <0> d           2.479   3.731  -0.002  0.00  0.00     0.088 A 
ATOM      3  C3  <0> d           1.238   3.062   0.007  0.00  0.00     0.091 A 
ATOM      4  C4  <0> d           0.065   3.818   0.016  0.00  0.00     0.024 A 
ATOM      5  N1  <0> d           0.114   5.133   0.028  0.00  0.00    -0.236 NA
ATOM      6  C5  <0> d           1.264   5.793   0.020  0.00  0.00     0.164 A 
ATOM      7  H1  <0> d           3.406   5.668  -0.001  0.00  0.00     0.094 H 
ATOM      8  H2  <0> d          -0.893   3.318   0.018  0.00  0.00     0.116 H 
ENDROOT
BRANCH   3   9
ATOM      9  C6  <0> d           1.181   1.591  -0.001  0.00  0.00     0.213 C 
ATOM     10  O2  <0> d           2.209   0.943  -0.014  0.00  0.00    -0.644 OA
ATOM     11  O4  <0> d          -0.011   0.963   0.007  0.00  0.00    -0.644 OA
ENDBRANCH   3   9
BRANCH   2  12
ATOM     12  O3  <0> d           3.643   3.038  -0.015  0.00  0.00    -0.359 OA
ATOM     13  H4  <0> d           3.973   2.841  -0.903  0.00  0.00     0.217 HD
ENDBRANCH   2  12
BRANCH   6  14
ATOM     14  O1  <0> d           1.254   7.148   0.027  0.00  0.00    -0.345 OA
ATOM     15  H3  <0> d           1.243   7.545  -0.855  0.00  0.00     0.219 HD
ENDBRANCH   6  14
TORSDOF 3
