REMARK  0 active torsions:
REMARK  status: ('A' for Active; 'I' for Inactive)
ROOT
ATOM      1  C1  <0> d          -0.019   1.541   0.011  0.00  0.00    -0.056 C 
ATOM      2  C2  <0> d           1.488   1.872  -0.002  0.00  0.00    -0.025 C 
ATOM      3  C3  <0> d           2.176   0.662   0.628  0.00  0.00     0.026 A 
ATOM      4  C4  <0> d           1.325  -0.366   0.613  0.00  0.00     0.010 A 
ATOM      5  S1  <0> d           2.253  -1.682   1.363  0.00  0.00    -0.032 SA
ATOM      6  C5  <0> d           3.679  -0.842   1.657  0.00  0.00     0.288 A 
ATOM      7  O1  <0> d           4.705  -1.249   2.172  0.00  0.00    -0.260 OA
ATOM      8  N1  <0> d           3.413   0.388   1.185  0.00  0.00    -0.320 N 
ATOM      9  H1  <0> d           4.087   1.084   1.235  0.00  0.00     0.169 HD
ATOM     10  C6  <0> d           0.002  -0.004   0.002  0.00  0.00    -0.033 C 
ATOM     11  H2  <0> d          -0.494   1.921   0.915  0.00  0.00     0.034 H 
ATOM     12  H3  <0> d          -0.512   1.930  -0.881  0.00  0.00     0.034 H 
ATOM     13  H4  <0> d           1.834   2.012  -1.026  0.00  0.00     0.042 H 
ATOM     14  H5  <0> d           1.682   2.767   0.589  0.00  0.00     0.042 H 
ATOM     15  H6  <0> d          -0.816  -0.399   0.605  0.00  0.00     0.041 H 
ATOM     16  H7  <0> d          -0.061  -0.380  -1.019  0.00  0.00     0.041 H 
ENDROOT
TORSDOF 0
