REMARK  1 active torsions:
REMARK  status: ('A' for Active; 'I' for Inactive)
REMARK    1  A    between atoms: C6_6  and  O1_11 
ROOT
ATOM      1  C1  <0> d          -0.016   1.357   0.009  0.00  0.00    -0.082 A 
ATOM      2  C2  <0> d           1.169   2.091   0.002  0.00  0.00    -0.082 A 
ATOM      3  C3  <0> d           2.378   1.468  -0.013  0.00  0.00    -0.072 A 
ATOM      4  C4  <0> d           2.437   0.063  -0.021  0.00  0.00    -0.023 A 
ATOM      5  C5  <0> d           3.668  -0.614  -0.037  0.00  0.00    -0.040 A 
ATOM      6  C6  <0> d           3.687  -1.980  -0.044  0.00  0.00     0.066 A 
ATOM      7  C7  <0> d           2.497  -2.714  -0.036  0.00  0.00    -0.050 A 
ATOM      8  C8  <0> d           1.289  -2.088  -0.022  0.00  0.00    -0.070 A 
ATOM      9  C9  <0> d           1.232  -0.683  -0.013  0.00  0.00    -0.026 A 
ATOM     10  C10 <0> d           0.002  -0.004   0.002  0.00  0.00    -0.072 A 
ATOM     11  H1  <0> d          -0.963   1.876   0.026  0.00  0.00     0.083 H 
ATOM     12  H2  <0> d           1.126   3.170   0.008  0.00  0.00     0.083 H 
ATOM     13  H3  <0> d           3.288   2.049  -0.019  0.00  0.00     0.084 H 
ATOM     14  H4  <0> d           4.594  -0.058  -0.043  0.00  0.00     0.089 H 
ATOM     15  H5  <0> d           2.537  -3.793  -0.043  0.00  0.00     0.087 H 
ATOM     16  H6  <0> d           0.378  -2.667  -0.017  0.00  0.00     0.085 H 
ATOM     17  H7  <0> d          -0.924  -0.559   0.008  0.00  0.00     0.084 H 
ENDROOT
BRANCH   6  18
ATOM     18  O1  <0> d           4.878  -2.633  -0.059  0.00  0.00    -0.361 OA
ATOM     19  H8  <0> d           5.231  -2.827   0.821  0.00  0.00     0.217 HD
ENDBRANCH   6  18
TORSDOF 1
