REMARK  4 active torsions:
REMARK  status: ('A' for Active; 'I' for Inactive)
REMARK    1  A    between atoms: C1_1  and  C2_2 
REMARK    2  A    between atoms: C2_2  and  N1_3 
REMARK    3  A    between atoms: C3_4  and  C6_9 
REMARK    4  A    between atoms: C4_5  and  N3_8 
ROOT
ATOM      1  N1  <0> d          -0.017   1.397   0.010  0.00  0.00    -0.273 N 
ATOM      2  C3  <0> d           1.271   1.831  -0.000  0.00  0.00     0.054 A 
ATOM      3  C4  <0> d           2.073   0.736  -0.014  0.00  0.00     0.069 A 
ATOM      4  C5  <0> d           1.250  -0.399  -0.012  0.00  0.00     0.049 A 
ATOM      5  N2  <0> d           0.002  -0.004   0.002  0.00  0.00    -0.182 NA
ATOM      6  H6  <0> d           1.587  -1.425  -0.020  0.00  0.00     0.121 H 
ENDROOT
BRANCH   1   7
ATOM      7  C2  <0> d          -1.213   2.243   0.020  0.00  0.00     0.014 C 
ATOM      8  H4  <0> d          -0.998   3.182  -0.490  0.00  0.00     0.066 H 
ATOM      9  H5  <0> d          -2.026   1.729  -0.492  0.00  0.00     0.066 H 
BRANCH   7  10
ATOM     10  C1  <0> d          -1.621   2.530   1.466  0.00  0.00    -0.059 C 
ATOM     11  H1  <0> d          -1.836   1.591   1.976  0.00  0.00     0.029 H 
ATOM     12  H2  <0> d          -0.808   3.044   1.979  0.00  0.00     0.029 H 
ATOM     13  H3  <0> d          -2.511   3.160   1.474  0.00  0.00     0.029 H 
ENDBRANCH   7  10
ENDBRANCH   1   7
BRANCH   2  14
ATOM     14  C6  <0> d           1.727   3.268   0.003  0.00  0.00    -0.034 C 
ATOM     15  H9  <0> d           1.846   3.608   1.032  0.00  0.00     0.035 H 
ATOM     16  H10 <0> d           2.680   3.348  -0.519  0.00  0.00     0.035 H 
ATOM     17  H11 <0> d           0.983   3.886  -0.500  0.00  0.00     0.035 H 
ENDBRANCH   2  14
BRANCH   3  18
ATOM     18  N3  <0> d           3.481   0.739  -0.027  0.00  0.00    -0.396 N 
ATOM     19  H7  <0> d           3.967  -0.100  -0.036  0.00  0.00     0.156 HD
ATOM     20  H8  <0> d           3.964   1.580  -0.028  0.00  0.00     0.156 HD
ENDBRANCH   3  18
TORSDOF 4
