REMARK  4 active torsions:
REMARK  status: ('A' for Active; 'I' for Inactive)
REMARK    1  A    between atoms: C1_1  and  C2_2 
REMARK    2  A    between atoms: C2_2  and  C3_4 
REMARK    3  A    between atoms: C2_2  and  O1_10 
REMARK    4  A    between atoms: N2_7  and  C6_9 
ROOT
ATOM      1  C3  <0> d          -0.016   1.349   0.009  0.00  0.00     0.006 A 
ATOM      2  C4  <0> d           1.308   1.797  -0.001  0.00  0.00     0.032 A 
ATOM      3  N1  <0> d           2.094   0.751  -0.014  0.00  0.00    -0.185 NA
ATOM      4  N2  <0> d           1.293  -0.398  -0.012  0.00  0.00    -0.285 N 
ATOM      5  C5  <0> d           0.002  -0.004   0.002  0.00  0.00     0.008 A 
ATOM      6  H5  <0> d           1.628   2.829   0.002  0.00  0.00     0.118 H 
ATOM      7  H6  <0> d          -0.862  -0.653   0.007  0.00  0.00     0.115 H 
ENDROOT
BRANCH   1   8
ATOM      8  C2  <0> d          -1.247   2.219   0.020  0.00  0.00     0.060 C 
ATOM      9  H1  <0> d          -2.081   1.698   0.512  0.00  0.00     0.090 H 
BRANCH   8  10
ATOM     10  C1  <0> d          -1.598   2.624  -1.413  0.00  0.00    -0.049 C 
ATOM     11  H2  <0> d          -2.496   3.259  -1.405  0.00  0.00     0.031 H 
ATOM     12  H3  <0> d          -1.792   1.722  -2.012  0.00  0.00     0.031 H 
ATOM     13  H4  <0> d          -0.758   3.182  -1.852  0.00  0.00     0.031 H 
ENDBRANCH   8  10
BRANCH   8  14
ATOM     14  O1  <0> d          -0.995   3.391   0.798  0.00  0.00    -0.391 OA
ATOM     15  H10 <0> d          -0.725   3.298   1.861  0.00  0.00     0.210 HD
ENDBRANCH   8  14
ENDBRANCH   1   8
BRANCH   4  16
ATOM     16  C6  <0> d           1.771  -1.782  -0.024  0.00  0.00     0.002 C 
ATOM     17  H7  <0> d           0.911  -2.468  -0.020  0.00  0.00     0.059 H 
ATOM     18  H8  <0> d           2.389  -1.964   0.868  0.00  0.00     0.059 H 
ATOM     19  H9  <0> d           2.373  -1.955  -0.929  0.00  0.00     0.059 H 
ENDBRANCH   4  16
TORSDOF 4
