REMARK  1 active torsions:
REMARK  status: ('A' for Active; 'I' for Inactive)
REMARK    1  A    between atoms: C6_6  and  N1_7 
ROOT
ATOM      1  C1  <0> d           3.101   3.739  -0.006  0.00  0.00    -0.057 A 
ATOM      2  C2  <0> d           1.767   4.098   0.008  0.00  0.00    -0.072 A 
ATOM      3  C3  <0> d           0.784   3.126   0.011  0.00  0.00    -0.030 A 
ATOM      4  C4  <0> d           1.122   1.781   0.001  0.00  0.00     0.036 A 
ATOM      5  C5  <0> d           2.469   1.420  -0.014  0.00  0.00    -0.032 A 
ATOM      6  C6  <0> d           3.453   2.395  -0.018  0.00  0.00     0.027 A 
ATOM      7  N2  <0> d          -0.011   0.966   0.007  0.00  0.00    -0.389 N 
ATOM      8  C7  <0> d          -1.223   1.789   0.017  0.00  0.00    -0.004 A 
ATOM      9  C8  <0> d          -0.724   3.243   0.026  0.00  0.00    -0.024 A 
ATOM     10  H1  <0> d           3.867   4.500  -0.009  0.00  0.00     0.086 H 
ATOM     11  H2  <0> d           1.491   5.142   0.016  0.00  0.00     0.084 H 
ATOM     12  H3  <0> d           2.747   0.376  -0.022  0.00  0.00     0.090 H 
ATOM     13  H6  <0> d           0.002  -0.004   0.002  0.00  0.00     0.159 HD
ATOM     14  H7  <0> d          -1.818   1.597  -0.876  0.00  0.00     0.064 H 
ATOM     15  H8  <0> d          -1.810   1.587   0.913  0.00  0.00     0.064 H 
ATOM     16  H9  <0> d          -1.056   3.757   0.928  0.00  0.00     0.042 H 
ATOM     17  H10 <0> d          -1.073   3.767  -0.863  0.00  0.00     0.042 H 
ENDROOT
BRANCH   6  18
ATOM     18  N1  <0> d           4.800   2.027  -0.032  0.00  0.00    -0.399 N 
ATOM     19  H4  <0> d           5.047   1.089  -0.039  0.00  0.00     0.156 HD
ATOM     20  H5  <0> d           5.489   2.710  -0.035  0.00  0.00     0.156 HD
ENDBRANCH   6  18
TORSDOF 1
