REMARK  7 active torsions:
REMARK  status: ('A' for Active; 'I' for Inactive)
REMARK    1  A    between atoms: C1_1  and  O1_2 
REMARK    2  A    between atoms: O1_2  and  C2_3 
REMARK    3  A    between atoms: C2_3  and  C3_4 
REMARK    4  A    between atoms: C3_4  and  C4_5 
REMARK    5  A    between atoms: C4_5  and  C5_6 
REMARK    6  A    between atoms: C5_6  and  C6_7 
REMARK    7  A    between atoms: C6_7  and  C7_8 
ROOT
ATOM      1  C4  <0> d           2.755   5.077   0.003  0.00  0.00    -0.063 C 
ATOM      2  H8  <0> d           2.248   5.465  -0.880  0.00  0.00     0.033 H 
ATOM      3  H9  <0> d           2.265   5.455   0.900  0.00  0.00     0.033 H 
ENDROOT
BRANCH   1   4
ATOM      4  C3  <0> d           4.217   5.531  -0.009  0.00  0.00    -0.045 C 
ATOM      5  H6  <0> d           4.724   5.143   0.875  0.00  0.00     0.036 H 
ATOM      6  H7  <0> d           4.707   5.152  -0.905  0.00  0.00     0.036 H 
BRANCH   4   7
ATOM      7  C2  <0> d           4.276   7.059  -0.001  0.00  0.00     0.019 C 
ATOM      8  H4  <0> d           3.768   7.447  -0.884  0.00  0.00     0.074 H 
ATOM      9  H5  <0> d           3.785   7.438   0.896  0.00  0.00     0.074 H 
BRANCH   7  10
ATOM     10  O1  <0> d           5.641   7.483  -0.012  0.00  0.00    -0.396 OA
BRANCH  10  11
ATOM     11  C1  <0> d           5.809   8.902  -0.006  0.00  0.00     0.004 C 
ATOM     12  H1  <0> d           5.333   9.328  -0.889  0.00  0.00     0.066 H 
ATOM     13  H2  <0> d           5.350   9.319   0.891  0.00  0.00     0.066 H 
ATOM     14  H3  <0> d           6.872   9.142  -0.015  0.00  0.00     0.066 H 
ENDBRANCH  10  11
ENDBRANCH   7  10
ENDBRANCH   4   7
ENDBRANCH   1   4
BRANCH   1  15
ATOM     15  C5  <0> d           2.696   3.548  -0.005  0.00  0.00    -0.056 C 
ATOM     16  H10 <0> d           3.204   3.160   0.878  0.00  0.00     0.033 H 
ATOM     17  H11 <0> d           3.187   3.170  -0.901  0.00  0.00     0.033 H 
BRANCH  15  18
ATOM     18  C6  <0> d           1.235   3.094   0.007  0.00  0.00     0.016 C 
ATOM     19  H12 <0> d           0.727   3.482  -0.876  0.00  0.00     0.049 H 
ATOM     20  H13 <0> d           0.744   3.473   0.904  0.00  0.00     0.049 H 
BRANCH  18  21
ATOM     21  C7  <0> d           1.177   1.588  -0.001  0.00  0.00     0.172 C 
ATOM     22  O2  <0> d           2.199   0.944  -0.014  0.00  0.00    -0.648 OA
ATOM     23  O3  <0> d          -0.011   0.963   0.007  0.00  0.00    -0.648 OA
ENDBRANCH  18  21
ENDBRANCH  15  18
ENDBRANCH   1  15
TORSDOF 7
