REMARK  3 active torsions:
REMARK  status: ('A' for Active; 'I' for Inactive)
REMARK    1  A    between atoms: C1_1  and  C2_2 
REMARK    2  A    between atoms: C5_5  and  O1_8 
REMARK    3  A    between atoms: O1_8  and  C8_9 
ROOT
ATOM      1  C2  <0> d           1.171   2.086   0.002  0.00  0.00    -0.062 A 
ATOM      2  C3  <0> d          -0.017   1.377   0.010  0.00  0.00    -0.075 A 
ATOM      3  C4  <0> d           0.002  -0.004   0.002  0.00  0.00    -0.050 A 
ATOM      4  C5  <0> d           1.213  -0.680  -0.013  0.00  0.00     0.074 A 
ATOM      5  C6  <0> d           2.403   0.033  -0.021  0.00  0.00    -0.050 A 
ATOM      6  C7  <0> d           2.379   1.415  -0.013  0.00  0.00    -0.075 A 
ATOM      7  H4  <0> d          -0.960   1.904   0.017  0.00  0.00     0.084 H 
ATOM      8  H5  <0> d          -0.925  -0.557   0.008  0.00  0.00     0.087 H 
ATOM      9  H6  <0> d           3.348  -0.491  -0.032  0.00  0.00     0.087 H 
ATOM     10  H7  <0> d           3.305   1.970  -0.019  0.00  0.00     0.084 H 
ENDROOT
BRANCH   4  11
ATOM     11  O1  <0> d           1.234  -2.039  -0.020  0.00  0.00    -0.290 OA
BRANCH  11  12
ATOM     12  C8  <0> d           2.518  -2.668  -0.036  0.00  0.00     0.310 C 
ATOM     13  F1  <0> d           3.215  -2.275  -1.183  0.00  0.00    -0.184 F 
ATOM     14  F2  <0> d           3.238  -2.287   1.101  0.00  0.00    -0.184 F 
ATOM     15  H8  <0> d           2.392  -3.751  -0.040  0.00  0.00     0.195 H 
ENDBRANCH  11  12
ENDBRANCH   4  11
BRANCH   1  16
ATOM     16  C1  <0> d           1.147   3.593   0.011  0.00  0.00    -0.051 C 
ATOM     17  H1  <0> d           1.151   3.950   1.040  0.00  0.00     0.033 H 
ATOM     18  H2  <0> d           2.026   3.973  -0.510  0.00  0.00     0.033 H 
ATOM     19  H3  <0> d           0.247   3.945  -0.493  0.00  0.00     0.033 H 
ENDBRANCH   1  16
TORSDOF 3
