REMARK  1 active torsions:
REMARK  status: ('A' for Active; 'I' for Inactive)
REMARK    1  A    between atoms: C4_4  and  C7_7 
ROOT
ATOM      1  C1  <0> d          -0.017   1.379   0.010  0.00  0.00    -0.083 A 
ATOM      2  C2  <0> d           1.169   2.092   0.002  0.00  0.00    -0.082 A 
ATOM      3  C3  <0> d           2.377   1.426  -0.013  0.00  0.00    -0.069 A 
ATOM      4  C4  <0> d           2.402   0.033  -0.021  0.00  0.00     0.013 A 
ATOM      5  C5  <0> d           1.205  -0.680  -0.013  0.00  0.00    -0.069 A 
ATOM      6  C6  <0> d           0.002  -0.004   0.002  0.00  0.00    -0.082 A 
ATOM      7  H2  <0> d          -0.960   1.904   0.026  0.00  0.00     0.083 H 
ATOM      8  H3  <0> d           1.148   3.172   0.008  0.00  0.00     0.083 H 
ATOM      9  H4  <0> d           3.302   1.983  -0.020  0.00  0.00     0.085 H 
ATOM     10  H5  <0> d           1.219  -1.760  -0.019  0.00  0.00     0.085 H 
ATOM     11  H6  <0> d          -0.926  -0.556   0.008  0.00  0.00     0.083 H 
ENDROOT
BRANCH   4  12
ATOM     12  C7  <0> d           3.699  -0.689  -0.038  0.00  0.00     0.180 A 
ATOM     13  N3  <0> d           3.849  -1.995  -0.047  0.00  0.00    -0.153 NA
ATOM     14  N2  <0> d           5.231  -2.243  -0.064  0.00  0.00    -0.270 N 
ATOM     15  C8  <0> d           5.835  -1.041  -0.057  0.00  0.00     0.082 A 
ATOM     16  H1  <0> d           5.665  -3.111  -0.076  0.00  0.00     0.190 HD
ATOM     17  N1  <0> d           4.911  -0.118  -0.042  0.00  0.00    -0.221 NA
ATOM     18  H7  <0> d           6.901  -0.869  -0.064  0.00  0.00     0.145 H 
ENDBRANCH   4  12
TORSDOF 1
