REMARK  2 active torsions:
REMARK  status: ('A' for Active; 'I' for Inactive)
REMARK    1  A    between atoms: C1_1  and  C2_2 
REMARK    2  A    between atoms: C2_2  and  N1_3 
ROOT
ATOM      1  N1  <0> d          -0.020   1.094   2.454  0.00  0.00    -0.325 N 
ATOM      2  C3  <0> d          -0.314  -0.032   3.163  0.00  0.00     0.068 A 
ATOM      3  N2  <0> d           0.516  -0.163   4.157  0.00  0.00    -0.238 NA
ATOM      4  C4  <0> d           1.396   0.869   4.150  0.00  0.00     0.121 A 
ATOM      5  C5  <0> d           1.064   1.686   3.050  0.00  0.00     0.162 A 
ATOM      6  N3  <0> d           1.786   2.773   2.816  0.00  0.00    -0.222 NA
ATOM      7  C6  <0> d           2.800   3.082   3.598  0.00  0.00     0.088 A 
ATOM      8  N4  <0> d           3.144   2.341   4.636  0.00  0.00    -0.252 NA
ATOM      9  C7  <0> d           2.477   1.243   4.949  0.00  0.00     0.035 A 
ATOM     10  H6  <0> d          -1.118  -0.715   2.935  0.00  0.00     0.143 H 
ATOM     11  H7  <0> d           3.371   3.973   3.382  0.00  0.00     0.146 H 
ATOM     12  H8  <0> d           2.768   0.644   5.799  0.00  0.00     0.118 H 
ENDROOT
BRANCH   1  13
ATOM     13  C2  <0> d          -0.729   1.579   1.267  0.00  0.00    -0.001 C 
ATOM     14  H4  <0> d          -0.744   2.669   1.273  0.00  0.00     0.064 H 
ATOM     15  H5  <0> d          -1.751   1.202   1.275  0.00  0.00     0.064 H 
BRANCH  13  16
ATOM     16  C1  <0> d          -0.013   1.086   0.008  0.00  0.00    -0.061 C 
ATOM     17  H1  <0> d           0.002  -0.004   0.002  0.00  0.00     0.029 H 
ATOM     18  H2  <0> d           1.010   1.463   0.000  0.00  0.00     0.029 H 
ATOM     19  H3  <0> d          -0.540   1.447  -0.875  0.00  0.00     0.029 H 
ENDBRANCH  13  16
ENDBRANCH   1  13
TORSDOF 2
