REMARK  0 active torsions:
REMARK  status: ('A' for Active; 'I' for Inactive)
ROOT
ATOM      1  C1  <0> d          -0.019   1.527   0.010  0.00  0.00     0.006 C 
ATOM      2  C2  <0> d           1.419   2.052  -0.001  0.00  0.00     0.115 C 
ATOM      3  N1  <0> d           2.112   1.560  -1.198  0.00  0.00     0.083 N 
ATOM      4  C3  <0> d           2.186   0.094  -1.205  0.00  0.00     0.115 C 
ATOM      5  C4  <0> d           0.771  -0.489  -1.230  0.00  0.00     0.006 C 
ATOM      6  C5  <0> d           0.002  -0.004   0.002  0.00  0.00     0.194 C 
ATOM      7  C6  <0> d          -1.378  -0.514  -0.047  0.00  0.00     0.103 C 
ATOM      8  N2  <0> d          -2.443  -0.908  -0.084  0.00  0.00    -0.194 NA
ATOM      9  F1  <0> d           0.633  -0.469   1.161  0.00  0.00    -0.227 F 
ATOM     10  H1  <0> d          -0.528   1.879   0.908  0.00  0.00     0.042 H 
ATOM     11  H2  <0> d          -0.545   1.889  -0.873  0.00  0.00     0.042 H 
ATOM     12  H3  <0> d           1.407   3.142  -0.009  0.00  0.00     0.079 H 
ATOM     13  H4  <0> d           1.940   1.701   0.890  0.00  0.00     0.079 H 
ATOM     14  H5  <0> d           1.670   1.904  -2.038  0.00  0.00     0.315 HD
ATOM     15  H6  <0> d           2.731  -0.238  -2.088  0.00  0.00     0.079 H 
ATOM     16  H7  <0> d           2.703  -0.248  -0.309  0.00  0.00     0.079 H 
ATOM     17  H8  <0> d           0.257  -0.160  -2.133  0.00  0.00     0.042 H 
ATOM     18  H9  <0> d           0.826  -1.578  -1.219  0.00  0.00     0.042 H 
ENDROOT
TORSDOF 0
