REMARK  5 active torsions:
REMARK  status: ('A' for Active; 'I' for Inactive)
REMARK    1  A    between atoms: C1_1  and  C2_2 
REMARK    2  A    between atoms: C2_2  and  C3_3 
REMARK    3  A    between atoms: C3_3  and  C4_4 
REMARK    4  A    between atoms: C4_4  and  O1_5 
REMARK    5  A    between atoms: O1_5  and  C5_6 
ROOT
ATOM      1  C4  <0> d           1.364   5.765   0.021  0.00  0.00     0.028 C 
ATOM      2  H8  <0> d           1.920   5.451   0.904  0.00  0.00     0.075 H 
ATOM      3  H9  <0> d           1.904   5.461  -0.876  0.00  0.00     0.075 H 
ENDROOT
BRANCH   1   4
ATOM      4  C3  <0> d           1.208   7.287   0.031  0.00  0.00    -0.045 C 
ATOM      5  H6  <0> d           0.651   7.601  -0.852  0.00  0.00     0.036 H 
ATOM      6  H7  <0> d           0.668   7.591   0.928  0.00  0.00     0.036 H 
BRANCH   4   7
ATOM      7  C2  <0> d           2.590   7.942   0.022  0.00  0.00    -0.067 C 
ATOM      8  H4  <0> d           3.147   7.628   0.905  0.00  0.00     0.032 H 
ATOM      9  H5  <0> d           3.130   7.638  -0.875  0.00  0.00     0.032 H 
BRANCH   7  10
ATOM     10  C1  <0> d           2.434   9.463   0.032  0.00  0.00    -0.076 C 
ATOM     11  H1  <0> d           1.877   9.777  -0.851  0.00  0.00     0.027 H 
ATOM     12  H2  <0> d           1.894   9.767   0.929  0.00  0.00     0.027 H 
ATOM     13  H3  <0> d           3.419   9.930   0.026  0.00  0.00     0.027 H 
ENDBRANCH   7  10
ENDBRANCH   4   7
ENDBRANCH   1   4
BRANCH   1  14
ATOM     14  O1  <0> d           0.072   5.153   0.030  0.00  0.00    -0.334 OA
BRANCH  14  15
ATOM     15  C5  <0> d           0.033   3.797   0.022  0.00  0.00     0.163 A 
ATOM     16  N1  <0> d           1.162   3.109   0.008  0.00  0.00    -0.237 NA
ATOM     17  C9  <0> d           1.169   1.790   0.001  0.00  0.00     0.005 A 
ATOM     18  C8  <0> d          -0.013   1.076   0.008  0.00  0.00    -0.066 A 
ATOM     19  H13 <0> d           2.111   1.261  -0.012  0.00  0.00     0.114 H 
ATOM     20  C7  <0> d          -1.220   1.761   0.017  0.00  0.00    -0.077 A 
ATOM     21  H12 <0> d           0.002  -0.004   0.002  0.00  0.00     0.085 H 
ATOM     22  C6  <0> d          -1.194   3.144   0.030  0.00  0.00    -0.032 A 
ATOM     23  H11 <0> d          -2.158   1.226   0.018  0.00  0.00     0.083 H 
ATOM     24  H10 <0> d          -2.114   3.709   0.042  0.00  0.00     0.090 H 
ENDBRANCH  14  15
ENDBRANCH   1  14
TORSDOF 5
