REMARK  4 active torsions:
REMARK  status: ('A' for Active; 'I' for Inactive)
REMARK    1  A    between atoms: C1_1  and  O1_2 
REMARK    2  A    between atoms: O1_2  and  C2_3 
REMARK    3  A    between atoms: C2_3  and  C3_5 
REMARK    4  A    between atoms: C3_5  and  C4_6 
ROOT
ATOM      1  C4  <0> d          -4.160   1.056   2.522  0.00  0.00     0.047 C 
ATOM      2  H1  <0> d          -4.627   1.304   1.569  0.00  0.00     0.084 H 
ATOM      3  C5  <0> d          -5.006   1.603   3.693  0.00  0.00    -0.038 C 
ATOM      4  C6  <0> d          -5.893   0.408   4.106  0.00  0.00    -0.043 C 
ATOM      5  C7  <0> d          -5.478  -0.720   3.136  0.00  0.00     0.020 C 
ATOM      6  O3  <0> d          -4.139  -0.374   2.718  0.00  0.00    -0.385 OA
ATOM      7  H7  <0> d          -4.363   1.905   4.520  0.00  0.00     0.036 H 
ATOM      8  H8  <0> d          -5.622   2.439   3.362  0.00  0.00     0.036 H 
ATOM      9  H9  <0> d          -5.689   0.119   5.137  0.00  0.00     0.036 H 
ATOM     10  H10 <0> d          -6.947   0.652   3.979  0.00  0.00     0.036 H 
ATOM     11  H11 <0> d          -5.479  -1.682   3.649  0.00  0.00     0.074 H 
ATOM     12  H12 <0> d          -6.149  -0.748   2.277  0.00  0.00     0.074 H 
ENDROOT
BRANCH   1  13
ATOM     13  C3  <0> d          -2.740   1.623   2.581  0.00  0.00     0.040 C 
ATOM     14  H5  <0> d          -2.241   1.260   3.480  0.00  0.00     0.051 H 
ATOM     15  H6  <0> d          -2.783   2.712   2.603  0.00  0.00     0.051 H 
BRANCH  13  16
ATOM     16  C2  <0> d          -1.970   1.175   1.365  0.00  0.00     0.260 C 
ATOM     17  O2  <0> d          -2.502   0.475   0.537  0.00  0.00    -0.265 OA
BRANCH  16  18
ATOM     18  O1  <0> d          -0.692   1.554   1.203  0.00  0.00    -0.326 OA
BRANCH  18  19
ATOM     19  C1  <0> d          -0.013   1.086   0.008  0.00  0.00     0.013 C 
ATOM     20  H2  <0> d           0.002  -0.004   0.002  0.00  0.00     0.067 H 
ATOM     21  H3  <0> d           1.010   1.463   0.000  0.00  0.00     0.067 H 
ATOM     22  H4  <0> d          -0.540   1.447  -0.875  0.00  0.00     0.067 H 
ENDBRANCH  18  19
ENDBRANCH  16  18
ENDBRANCH  13  16
ENDBRANCH   1  13
TORSDOF 4
