REMARK  0 active torsions:
REMARK  status: ('A' for Active; 'I' for Inactive)
ROOT
ATOM      1  C1  <0> d           2.349   0.011  -0.376  0.00  0.00     0.045 C 
ATOM      2  C2  <0> d           2.334   1.359   0.360  0.00  0.00     0.045 C 
ATOM      3  O1  <0> d           1.128   2.044   0.002  0.00  0.00    -0.359 OA
ATOM      4  C3  <0> d          -0.016   1.310   0.009  0.00  0.00     0.033 C 
ATOM      5  C4  <0> d           0.002  -0.004   0.002  0.00  0.00     0.033 C 
ATOM      6  O2  <0> d           1.165  -0.707  -0.004  0.00  0.00    -0.359 OA
ATOM      7  H1  <0> d           3.231  -0.559  -0.085  0.00  0.00     0.078 H 
ATOM      8  H2  <0> d           2.356   0.177  -1.453  0.00  0.00     0.078 H 
ATOM      9  H3  <0> d           2.358   1.192   1.437  0.00  0.00     0.078 H 
ATOM     10  H4  <0> d           3.198   1.952   0.059  0.00  0.00     0.078 H 
ATOM     11  H5  <0> d          -0.967   1.821   0.017  0.00  0.00     0.125 H 
ATOM     12  H6  <0> d          -0.935  -0.541   0.001  0.00  0.00     0.125 H 
ENDROOT
TORSDOF 0
