REMARK  0 active torsions:
REMARK  status: ('A' for Active; 'I' for Inactive)
ROOT
ATOM      1  C1  <0> d           1.173   1.793   0.001  0.00  0.00    -0.074 A 
ATOM      2  C2  <0> d          -0.013   1.076   0.008  0.00  0.00    -0.027 A 
ATOM      3  C3  <0> d          -1.216   1.760   0.017  0.00  0.00     0.212 A 
ATOM      4  N1  <0> d          -1.242   3.081   0.030  0.00  0.00    -0.191 NA
ATOM      5  C4  <0> d          -0.131   3.796   0.023  0.00  0.00     0.212 A 
ATOM      6  C5  <0> d           1.108   3.178   0.008  0.00  0.00    -0.027 A 
ATOM      7  F1  <0> d          -0.205   5.145   0.030  0.00  0.00    -0.184 F 
ATOM      8  F2  <0> d          -2.377   1.070   0.019  0.00  0.00    -0.184 F 
ATOM      9  H1  <0> d           2.126   1.285  -0.011  0.00  0.00     0.083 H 
ATOM     10  H2  <0> d           0.002  -0.004   0.002  0.00  0.00     0.090 H 
ATOM     11  H3  <0> d           2.013   3.768   0.002  0.00  0.00     0.090 H 
ENDROOT
TORSDOF 0
