REMARK  4 active torsions:
REMARK  status: ('A' for Active; 'I' for Inactive)
REMARK    1  A    between atoms: C1_1  and  O1_2 
REMARK    2  A    between atoms: O1_2  and  C2_3 
REMARK    3  A    between atoms: C2_3  and  C3_5 
REMARK    4  A    between atoms: C5_7  and  C7_9 
ROOT
ATOM      1  C3  <0> d          -0.013   1.086   0.008  0.00  0.00     0.032 C 
ATOM      2  C4  <0> d          -0.218   1.707  -1.384  0.00  0.00    -0.041 C 
ATOM      3  C5  <0> d           1.312   1.675  -1.537  0.00  0.00     0.032 C 
ATOM      4  C6  <0> d           1.388   1.721  -0.002  0.00  0.00    -0.041 C 
ATOM      5  H4  <0> d          -0.178   0.017   0.210  0.00  0.00     0.055 H 
ATOM      6  H5  <0> d          -0.833   1.033  -1.999  0.00  0.00     0.035 H 
ATOM      7  H6  <0> d          -0.727   2.676  -1.281  0.00  0.00     0.035 H 
ATOM      8  H7  <0> d           1.831   0.912  -2.135  0.00  0.00     0.056 H 
ATOM      9  H8  <0> d           1.352   2.695   0.508  0.00  0.00     0.035 H 
ATOM     10  H9  <0> d           2.094   1.059   0.520  0.00  0.00     0.035 H 
ENDROOT
BRANCH   1  11
ATOM     11  C2  <0> d          -0.925   1.653   1.065  0.00  0.00     0.262 C 
ATOM     12  O2  <0> d          -0.519   2.504   1.820  0.00  0.00    -0.265 OA
BRANCH  11  13
ATOM     13  O1  <0> d          -2.189   1.212   1.167  0.00  0.00    -0.326 OA
BRANCH  13  14
ATOM     14  C1  <0> d          -3.011   1.803   2.208  0.00  0.00     0.013 C 
ATOM     15  H1  <0> d          -4.015   1.355   2.181  0.00  0.00     0.067 H 
ATOM     16  H2  <0> d          -3.089   2.888   2.042  0.00  0.00     0.067 H 
ATOM     17  H3  <0> d          -2.551   1.614   3.190  0.00  0.00     0.067 H 
ENDBRANCH  13  14
ENDBRANCH  11  13
ENDBRANCH   1  11
BRANCH   3  18
ATOM     18  C7  <0> d           1.878   2.901  -2.207  0.00  0.00     0.177 C 
ATOM     19  O3  <0> d           2.334   3.798  -1.538  0.00  0.00    -0.648 OA
ATOM     20  O4  <0> d           1.877   2.996  -3.545  0.00  0.00    -0.648 OA
ENDBRANCH   3  18
TORSDOF 4
