REMARK  2 active torsions:
REMARK  status: ('A' for Active; 'I' for Inactive)
REMARK    1  A    between atoms: C3_4  and  C4_6 
REMARK    2  A    between atoms: C4_6  and  O2_7 
ROOT
ATOM      1  C1  <0> d          -0.016   1.341   0.009  0.00  0.00     0.026 A 
ATOM      2  C2  <0> d           1.258   1.766  -0.001  0.00  0.00     0.038 A 
ATOM      3  O1  <0> d           2.042   0.669  -0.014  0.00  0.00    -0.304 OA
ATOM      4  C3  <0> d           1.241  -0.405  -0.012  0.00  0.00     0.168 A 
ATOM      5  N1  <0> d           0.002  -0.004   0.002  0.00  0.00    -0.237 NA
ATOM      6  H1  <0> d          -0.896   1.966   0.025  0.00  0.00     0.117 H 
ATOM      7  H2  <0> d           1.592   2.793   0.002  0.00  0.00     0.125 H 
ENDROOT
BRANCH   4   8
ATOM      8  C4  <0> d           1.699  -1.841  -0.025  0.00  0.00     0.077 C 
ATOM      9  H3  <0> d           2.663  -1.919   0.479  0.00  0.00     0.086 H 
ATOM     10  H4  <0> d           0.967  -2.460   0.493  0.00  0.00     0.086 H 
BRANCH   8  11
ATOM     11  O2  <0> d           1.831  -2.287  -1.376  0.00  0.00    -0.393 OA
ATOM     12  H5  <0> d           2.123  -3.204  -1.461  0.00  0.00     0.210 HD
ENDBRANCH   8  11
ENDBRANCH   4   8
TORSDOF 2
