REMARK  1 active torsions:
REMARK  status: ('A' for Active; 'I' for Inactive)
REMARK    1  A    between atoms: C4_6  and  N3_8 
ROOT
ATOM      1  C1  <0> d           0.002  -0.004   0.002  0.00  0.00     0.020 A 
ATOM      2  C2  <0> d          -0.017   1.390   0.010  0.00  0.00     0.130 A 
ATOM      3  C3  <0> d           1.224   2.083   0.002  0.00  0.00     0.305 A 
ATOM      4  O1  <0> d           1.257   3.301   0.007  0.00  0.00    -0.264 OA
ATOM      5  N1  <0> d           2.365   1.362  -0.013  0.00  0.00    -0.022 NA
ATOM      6  C4  <0> d           2.312   0.004  -0.020  0.00  0.00     0.701 A 
ATOM      7  N2  <0> d           1.162  -0.646  -0.013  0.00  0.00    -0.199 N 
ATOM      8  C5  <0> d          -1.257   2.107   0.019  0.00  0.00     0.106 C 
ATOM      9  N4  <0> d          -2.240   2.675   0.027  0.00  0.00    -0.191 NA
ATOM     10  H1  <0> d          -0.924  -0.559   0.007  0.00  0.00     0.114 H 
ATOM     11  H4  <0> d           1.181  -1.746  -0.019  0.00  0.00     0.183 HD
ENDROOT
BRANCH   6  12
ATOM     12  N3  <0> d           3.477  -0.708  -0.035  0.00  0.00    -0.233 N 
ATOM     13  H2  <0> d           3.450  -1.808  -0.041  0.00  0.00     0.174 HD
ATOM     14  H3  <0> d           4.443  -0.181  -0.042  0.00  0.00     0.174 HD
ENDBRANCH   6  12
TORSDOF 1
