REMARK  8 active torsions:
REMARK  status: ('A' for Active; 'I' for Inactive)
REMARK    1  A    between atoms: C1_1  and  C2_2 
REMARK    2  A    between atoms: C2_2  and  C3_3 
REMARK    3  A    between atoms: C4_4  and  C5_5 
REMARK    4  A    between atoms: C5_5  and  C6_7 
REMARK    5  A    between atoms: C5_5  and  O1_11 
REMARK    6  A    between atoms: C6_7  and  C7_8 
REMARK    7  A    between atoms: C7_8  and  C8_9 
REMARK    8  A    between atoms: C7_8  and  C9_10 
ROOT
ATOM      1  C5  <0> d          -0.729   1.579   1.267  0.00  0.00     0.094 C 
ATOM      2  H1  <0> d          -1.776   1.277   1.232  0.00  0.00     0.103 H 
ENDROOT
BRANCH   1   3
ATOM      3  C4  <0> d          -0.089   0.994   2.457  0.00  0.00    -0.075 C 
ATOM      4  C3  <0> d           0.421   0.528   3.405  0.00  0.00    -0.104 C 
BRANCH   4   5
ATOM      5  C2  <0> d           1.061  -0.057   4.595  0.00  0.00    -0.012 C 
ATOM      6  H5  <0> d           0.999  -1.144   4.544  0.00  0.00     0.051 H 
ATOM      7  H6  <0> d           2.108   0.245   4.630  0.00  0.00     0.051 H 
BRANCH   5   8
ATOM      8  C1  <0> d           0.345   0.436   5.854  0.00  0.00    -0.067 C 
ATOM      9  H2  <0> d           0.819   0.003   6.735  0.00  0.00     0.028 H 
ATOM     10  H3  <0> d           0.408   1.524   5.905  0.00  0.00     0.028 H 
ATOM     11  H4  <0> d          -0.702   0.134   5.819  0.00  0.00     0.028 H 
ENDBRANCH   5   8
ENDBRANCH   4   5
ENDBRANCH   1   3
BRANCH   1  12
ATOM     12  C6  <0> d          -0.013   1.086   0.008  0.00  0.00    -0.028 C 
ATOM     13  H7  <0> d           0.002  -0.004   0.002  0.00  0.00     0.038 H 
ATOM     14  H8  <0> d           1.010   1.463   0.000  0.00  0.00     0.038 H 
BRANCH  12  15
ATOM     15  C7  <0> d          -0.753   1.593  -1.232  0.00  0.00    -0.058 C 
ATOM     16  H9  <0> d          -0.845   2.678  -1.181  0.00  0.00     0.039 H 
BRANCH  15  17
ATOM     17  C8  <0> d           0.031   1.205  -2.487  0.00  0.00    -0.073 C 
ATOM     18  H10 <0> d           0.123   0.120  -2.538  0.00  0.00     0.028 H 
ATOM     19  H11 <0> d          -0.496   1.567  -3.370  0.00  0.00     0.028 H 
ATOM     20  H12 <0> d           1.024   1.653  -2.448  0.00  0.00     0.028 H 
ENDBRANCH  15  17
BRANCH  15  21
ATOM     21  C9  <0> d          -2.147   0.964  -1.286  0.00  0.00    -0.073 C 
ATOM     22  H13 <0> d          -2.674   1.325  -2.169  0.00  0.00     0.028 H 
ATOM     23  H14 <0> d          -2.054  -0.121  -1.336  0.00  0.00     0.028 H 
ATOM     24  H15 <0> d          -2.705   1.240  -0.391  0.00  0.00     0.028 H 
ENDBRANCH  15  21
ENDBRANCH  12  15
ENDBRANCH   1  12
BRANCH   1  25
ATOM     25  O1  <0> d          -0.647   3.004   1.334  0.00  0.00    -0.383 OA
ATOM     26  H16 <0> d           0.258   3.345   1.368  0.00  0.00     0.211 HD
ENDBRANCH   1  25
TORSDOF 8
