REMARK  2 active torsions:
REMARK  status: ('A' for Active; 'I' for Inactive)
REMARK    1  A    between atoms: C4_4  and  N1_12 
REMARK    2  A    between atoms: C5_5  and  C7_7 
ROOT
ATOM      1  C1  <0> d           0.002  -0.004   0.002  0.00  0.00    -0.082 A 
ATOM      2  C2  <0> d           1.207  -0.686  -0.014  0.00  0.00    -0.081 A 
ATOM      3  C3  <0> d           2.402   0.007  -0.021  0.00  0.00    -0.057 A 
ATOM      4  C4  <0> d           2.401   1.394  -0.013  0.00  0.00     0.038 A 
ATOM      5  C5  <0> d           1.183   2.088   0.002  0.00  0.00     0.024 A 
ATOM      6  C6  <0> d          -0.017   1.375   0.010  0.00  0.00    -0.068 A 
ATOM      7  H1  <0> d          -0.927  -0.554   0.008  0.00  0.00     0.083 H 
ATOM      8  H2  <0> d           1.212  -1.766  -0.019  0.00  0.00     0.083 H 
ATOM      9  H3  <0> d           3.338  -0.532  -0.033  0.00  0.00     0.086 H 
ATOM     10  H4  <0> d          -0.959   1.903   0.017  0.00  0.00     0.085 H 
ENDROOT
BRANCH   5  11
ATOM     11  C7  <0> d           1.169   3.565   0.009  0.00  0.00     0.087 A 
ATOM     12  O1  <0> d           1.867   4.357   0.846  0.00  0.00    -0.322 OA
ATOM     13  C10 <0> d           1.610   5.645   0.560  0.00  0.00     0.019 A 
ATOM     14  C9  <0> d           0.735   5.693  -0.464  0.00  0.00    -0.059 A 
ATOM     15  H7  <0> d           2.033   6.499   1.067  0.00  0.00     0.123 H 
ATOM     16  C8  <0> d           0.447   4.361  -0.823  0.00  0.00    -0.048 A 
ATOM     17  H6  <0> d           0.332   6.584  -0.922  0.00  0.00     0.086 H 
ATOM     18  H5  <0> d          -0.220   4.035  -1.608  0.00  0.00     0.087 H 
ENDBRANCH   5  11
BRANCH   4  19
ATOM     19  N1  <0> d           3.607   2.096  -0.021  0.00  0.00    -0.398 N 
ATOM     20  H8  <0> d           4.448   1.613  -0.032  0.00  0.00     0.156 HD
ATOM     21  H9  <0> d           3.604   3.066  -0.016  0.00  0.00     0.156 HD
ENDBRANCH   4  19
TORSDOF 2
