REMARK  1 active torsions:
REMARK  status: ('A' for Active; 'I' for Inactive)
REMARK    1  A    between atoms: C5_5  and  O1_7 
ROOT
ATOM      1  C1  <0> d          -0.017   1.378   0.010  0.00  0.00    -0.080 A 
ATOM      2  C2  <0> d           1.174   2.084   0.002  0.00  0.00    -0.074 A 
ATOM      3  C3  <0> d           2.375   1.409  -0.013  0.00  0.00    -0.020 A 
ATOM      4  C4  <0> d           2.411   0.022  -0.021  0.00  0.00     0.075 A 
ATOM      5  C5  <0> d           1.206  -0.686  -0.013  0.00  0.00     0.092 A 
ATOM      6  C6  <0> d           0.002  -0.004   0.002  0.00  0.00    -0.049 A 
ATOM      7  N1  <0> d           3.734  -0.427  -0.036  0.00  0.00    -0.324 N 
ATOM      8  C7  <0> d           4.615   0.588  -0.039  0.00  0.00     0.226 A 
ATOM      9  O2  <0> d           5.824   0.494  -0.051  0.00  0.00    -0.273 OA
ATOM     10  C8  <0> d           3.813   1.873  -0.025  0.00  0.00     0.035 A 
ATOM     11  H1  <0> d          -0.959   1.906   0.026  0.00  0.00     0.083 H 
ATOM     12  H2  <0> d           1.161   3.164   0.008  0.00  0.00     0.084 H 
ATOM     13  H3  <0> d          -0.927  -0.554   0.008  0.00  0.00     0.087 H 
ATOM     14  H5  <0> d           3.988  -1.363  -0.044  0.00  0.00     0.169 HD
ATOM     15  H6  <0> d           4.018   2.461  -0.920  0.00  0.00     0.054 H 
ATOM     16  H7  <0> d           4.035   2.451   0.872  0.00  0.00     0.054 H 
ENDROOT
BRANCH   5  17
ATOM     17  O1  <0> d           1.217  -2.046  -0.021  0.00  0.00    -0.358 OA
ATOM     18  H4  <0> d           1.229  -2.444   0.861  0.00  0.00     0.217 HD
ENDBRANCH   5  17
TORSDOF 1
