REMARK  2 active torsions:
REMARK  status: ('A' for Active; 'I' for Inactive)
REMARK    1  A    between atoms: C1_1  and  C2_2 
REMARK    2  A    between atoms: C2_2  and  C3_4 
ROOT
ATOM      1  C3  <0> d          -1.266  -0.759   0.010  0.00  0.00     0.101 A 
ATOM      2  C4  <0> d          -1.240  -2.154   0.008  0.00  0.00    -0.051 A 
ATOM      3  C5  <0> d          -2.439  -2.849   0.016  0.00  0.00    -0.079 A 
ATOM      4  C6  <0> d          -3.622  -2.126   0.025  0.00  0.00    -0.066 A 
ATOM      5  C7  <0> d          -3.573  -0.740   0.026  0.00  0.00     0.003 A 
ATOM      6  N1  <0> d          -2.422  -0.105   0.025  0.00  0.00    -0.257 NA
ATOM      7  H4  <0> d          -0.300  -2.685   0.000  0.00  0.00     0.087 H 
ATOM      8  H5  <0> d          -2.452  -3.929   0.014  0.00  0.00     0.083 H 
ATOM      9  H6  <0> d          -4.574  -2.638   0.031  0.00  0.00     0.085 H 
ATOM     10  H7  <0> d          -4.493  -0.175   0.034  0.00  0.00     0.114 H 
ENDROOT
BRANCH   1  11
ATOM     11  C2  <0> d           0.002  -0.004   0.002  0.00  0.00     0.173 C 
ATOM     12  O1  <0> d           1.060  -0.596  -0.011  0.00  0.00    -0.291 OA
BRANCH  11  13
ATOM     13  C1  <0> d          -0.018   1.503   0.010  0.00  0.00    -0.015 C 
ATOM     14  H1  <0> d           1.004   1.880   0.003  0.00  0.00     0.038 H 
ATOM     15  H2  <0> d          -0.545   1.864  -0.873  0.00  0.00     0.038 H 
ATOM     16  H3  <0> d          -0.529   1.854   0.907  0.00  0.00     0.038 H 
ENDBRANCH  11  13
ENDBRANCH   1  11
TORSDOF 2
