REMARK  1 active torsions:
REMARK  status: ('A' for Active; 'I' for Inactive)
REMARK    1  A    between atoms: C7_7  and  C8_9 
ROOT
ATOM      1  C1  <0> d          -1.955   3.223   2.507  0.00  0.00    -0.064 C 
ATOM      2  C2  <0> d          -2.318   1.770   2.904  0.00  0.00    -0.064 C 
ATOM      3  C3  <0> d          -2.071   0.952   1.618  0.00  0.00    -0.057 C 
ATOM      4  C4  <0> d          -1.064   1.753   0.782  0.00  0.00    -0.026 A 
ATOM      5  C5  <0> d          -0.731   3.029   1.576  0.00  0.00    -0.057 C 
ATOM      6  C6  <0> d           0.003   1.050  -0.052  0.00  0.00    -0.044 A 
ATOM      7  C7  <0> d          -1.151   1.782  -0.742  0.00  0.00     0.038 A 
ATOM      8  H1  <0> d          -1.922   1.173  -1.215  0.00  0.00     0.057 H 
ATOM      9  H2  <0> d          -2.778   3.694   1.970  0.00  0.00     0.033 H 
ATOM     10  H3  <0> d          -1.682   3.806   3.386  0.00  0.00     0.033 H 
ATOM     11  H4  <0> d          -3.365   1.707   3.201  0.00  0.00     0.033 H 
ATOM     12  H5  <0> d          -1.671   1.421   3.708  0.00  0.00     0.033 H 
ATOM     13  H6  <0> d          -3.004   0.832   1.066  0.00  0.00     0.034 H 
ATOM     14  H7  <0> d          -1.657  -0.024   1.869  0.00  0.00     0.034 H 
ATOM     15  H8  <0> d           0.177   2.887   2.162  0.00  0.00     0.034 H 
ATOM     16  H9  <0> d          -0.624   3.880   0.903  0.00  0.00     0.034 H 
ATOM     17  H10 <0> d          -0.009  -0.040  -0.070  0.00  0.00     0.035 H 
ATOM     18  H11 <0> d           0.990   1.510  -0.098  0.00  0.00     0.035 H 
ENDROOT
BRANCH   7  19
ATOM     19  C8  <0> d          -0.837   3.083  -1.433  0.00  0.00     0.177 C 
ATOM     20  O1  <0> d           0.255   3.586  -1.307  0.00  0.00    -0.648 OA
ATOM     21  O2  <0> d          -1.769   3.685  -2.188  0.00  0.00    -0.648 OA
ENDBRANCH   7  19
TORSDOF 1
