REMARK  2 active torsions:
REMARK  status: ('A' for Active; 'I' for Inactive)
REMARK    1  A    between atoms: C1_1  and  C2_2 
REMARK    2  A    between atoms: C2_2  and  C3_3 
ROOT
ATOM      1  C2  <0> d           0.002  -0.004   0.002  0.00  0.00     0.087 C 
ATOM      2 Cl1  <0> d          -1.689  -0.628   0.015  0.00  0.00    -0.107 Cl
ATOM      3 Br1  <0> d           0.922  -0.638  -1.615  0.00  0.00    -0.069 Br
ENDROOT
BRANCH   1   4
ATOM      4  C1  <0> d          -0.019   1.526   0.010  0.00  0.00    -0.048 C 
ATOM      5  H1  <0> d           1.004   1.903   0.003  0.00  0.00     0.031 H 
ATOM      6  H2  <0> d          -0.546   1.887  -0.873  0.00  0.00     0.031 H 
ATOM      7  H3  <0> d          -0.529   1.877   0.907  0.00  0.00     0.031 H 
ENDBRANCH   1   4
BRANCH   1   8
ATOM      8  C3  <0> d           0.742  -0.511   1.242  0.00  0.00    -0.048 C 
ATOM      9  H4  <0> d           0.232  -0.159   2.138  0.00  0.00     0.031 H 
ATOM     10  H5  <0> d           0.757  -1.601   1.236  0.00  0.00     0.031 H 
ATOM     11  H6  <0> d           1.765  -0.134   1.234  0.00  0.00     0.031 H 
ENDBRANCH   1   8
TORSDOF 2
