REMARK  4 active torsions:
REMARK  status: ('A' for Active; 'I' for Inactive)
REMARK    1  A    between atoms: C1_1  and  O1_2 
REMARK    2  A    between atoms: O1_2  and  C2_3 
REMARK    3  A    between atoms: C2_3  and  C3_4 
REMARK    4  A    between atoms: C7_8  and  O2_10 
ROOT
ATOM      1  C3  <0> d           0.614  -2.074  -1.042  0.00  0.00    -0.032 A 
ATOM      2  C4  <0> d           1.636  -2.752  -0.405  0.00  0.00    -0.075 A 
ATOM      3  C5  <0> d           1.604  -4.131  -0.316  0.00  0.00    -0.080 A 
ATOM      4  C6  <0> d           0.550  -4.835  -0.864  0.00  0.00    -0.051 A 
ATOM      5  C7  <0> d          -0.477  -4.158  -1.504  0.00  0.00     0.066 A 
ATOM      6  C8  <0> d          -0.446  -2.773  -1.587  0.00  0.00    -0.043 A 
ATOM      7  H6  <0> d           2.462  -2.203   0.024  0.00  0.00     0.084 H 
ATOM      8  H7  <0> d           2.404  -4.658   0.183  0.00  0.00     0.083 H 
ATOM      9  H8  <0> d           0.526  -5.913  -0.795  0.00  0.00     0.087 H 
ATOM     10  H9  <0> d          -1.246  -2.243  -2.081  0.00  0.00     0.088 H 
ENDROOT
BRANCH   1  11
ATOM     11  C2  <0> d           0.652  -0.570  -1.138  0.00  0.00     0.043 C 
ATOM     12  H4  <0> d           0.139  -0.251  -2.045  0.00  0.00     0.081 H 
ATOM     13  H5  <0> d           1.688  -0.234  -1.169  0.00  0.00     0.081 H 
BRANCH  11  14
ATOM     14  O1  <0> d           0.002  -0.004   0.002  0.00  0.00    -0.391 OA
BRANCH  14  15
ATOM     15  C1  <0> d          -0.017   1.425   0.010  0.00  0.00     0.004 C 
ATOM     16  H1  <0> d           1.005   1.802   0.002  0.00  0.00     0.066 H 
ATOM     17  H2  <0> d          -0.544   1.786  -0.873  0.00  0.00     0.066 H 
ATOM     18  H3  <0> d          -0.527   1.776   0.907  0.00  0.00     0.066 H 
ENDBRANCH  14  15
ENDBRANCH  11  14
ENDBRANCH   1  11
BRANCH   5  19
ATOM     19  O2  <0> d          -1.515  -4.849  -2.045  0.00  0.00    -0.361 OA
ATOM     20  H10 <0> d          -2.253  -4.989  -1.436  0.00  0.00     0.217 HD
ENDBRANCH   5  19
TORSDOF 4
