REMARK  2 active torsions:
REMARK  status: ('A' for Active; 'I' for Inactive)
REMARK    1  A    between atoms: C1_1  and  C2_2 
REMARK    2  A    between atoms: C2_2  and  N1_3 
REMARK       I    between atoms: N1_3  and  C3_4 
REMARK       I    between atoms: C3_4  and  N2_6 
ROOT
ATOM      1  C1  <0> d           3.571   2.196  -0.020  0.00  0.00     0.029 C 
ATOM      2  C4  <0> d           4.856   1.478  -0.036  0.00  0.00     0.060 C 
ATOM      3  N3  <0> d           5.847   0.923  -0.049  0.00  0.00    -0.197 NA
ATOM      4  H1  <0> d           3.497   2.827  -0.906  0.00  0.00     0.057 H 
ATOM      5  H2  <0> d           3.514   2.817   0.874  0.00  0.00     0.057 H 
ENDROOT
BRANCH   1   6
ATOM      6  C2  <0> d           2.422   1.186  -0.015  0.00  0.00     0.008 C 
ATOM      7  H3  <0> d           2.497   0.556   0.871  0.00  0.00     0.065 H 
ATOM      8  H4  <0> d           2.480   0.565  -0.909  0.00  0.00     0.065 H 
BRANCH   6   9
ATOM      9  N1  <0> d           1.143   1.901   0.001  0.00  0.00    -0.342 N 
ATOM     10  C3  <0> d          -0.014   1.212   0.009  0.00  0.00     0.313 C 
ATOM     11  O1  <0> d           0.002  -0.004   0.002  0.00  0.00    -0.248 OA
ATOM     12  N2  <0> d          -1.191   1.870   0.018  0.00  0.00    -0.352 N 
ATOM     13  H6  <0> d          -2.024   1.373   0.019  0.00  0.00     0.160 HD
ATOM     14  H7  <0> d          -1.204   2.840   0.023  0.00  0.00     0.160 HD
ATOM     15  H5  <0> d           1.130   2.871   0.007  0.00  0.00     0.164 HD
ENDBRANCH   6   9
ENDBRANCH   1   6
TORSDOF 2
