REMARK  2 active torsions:
REMARK  status: ('A' for Active; 'I' for Inactive)
REMARK    1  A    between atoms: C1_1  and  C2_2 
REMARK    2  A    between atoms: C8_10  and  C9_12 
ROOT
ATOM      1  C2  <0> d           0.002  -0.004   0.002  0.00  0.00    -0.060 A 
ATOM      2  C3  <0> d           0.006  -0.687  -1.206  0.00  0.00    -0.075 A 
ATOM      3  C4  <0> d           0.024  -2.052  -1.235  0.00  0.00    -0.052 A 
ATOM      4  C5  <0> d           0.040  -2.774  -0.039  0.00  0.00     0.085 A 
ATOM      5  C6  <0> d           0.037  -2.083   1.185  0.00  0.00     0.063 A 
ATOM      6  C7  <0> d           0.023  -0.695   1.195  0.00  0.00    -0.049 A 
ATOM      7  N1  <0> d           0.055  -3.051   2.169  0.00  0.00    -0.343 N 
ATOM      8  H1  <0> d           0.057  -2.898   3.127  0.00  0.00     0.167 HD
ATOM      9  C8  <0> d           0.068  -4.261   1.546  0.00  0.00     0.101 A 
ATOM     10  N2  <0> d           0.059  -4.099   0.255  0.00  0.00    -0.234 NA
ATOM     11  H5  <0> d          -0.006  -0.133  -2.133  0.00  0.00     0.084 H 
ATOM     12  H6  <0> d           0.026  -2.573  -2.181  0.00  0.00     0.087 H 
ATOM     13  H7  <0> d           0.024  -0.159   2.132  0.00  0.00     0.087 H 
ENDROOT
BRANCH   1  14
ATOM     14  C1  <0> d          -0.018   1.503   0.010  0.00  0.00    -0.051 C 
ATOM     15  H2  <0> d           1.004   1.880   0.003  0.00  0.00     0.033 H 
ATOM     16  H3  <0> d          -0.545   1.864  -0.873  0.00  0.00     0.033 H 
ATOM     17  H4  <0> d          -0.529   1.854   0.907  0.00  0.00     0.033 H 
ENDBRANCH   1  14
BRANCH   9  18
ATOM     18  C9  <0> d           0.090  -5.594   2.249  0.00  0.00    -0.021 C 
ATOM     19  H8  <0> d          -0.932  -5.929   2.425  0.00  0.00     0.037 H 
ATOM     20  H9  <0> d           0.611  -6.323   1.629  0.00  0.00     0.037 H 
ATOM     21  H10 <0> d           0.608  -5.493   3.203  0.00  0.00     0.037 H 
ENDBRANCH   9  18
TORSDOF 2
