REMARK  3 active torsions:
REMARK  status: ('A' for Active; 'I' for Inactive)
REMARK    1  A    between atoms: C1_1  and  C2_2 
REMARK    2  A    between atoms: C5_5  and  C9_9 
REMARK    3  A    between atoms: C6_6  and  C8_8 
ROOT
ATOM      1  C2  <0> d           0.002  -0.004   0.002  0.00  0.00    -0.061 A 
ATOM      2  C3  <0> d           0.006  -0.686  -1.202  0.00  0.00    -0.076 A 
ATOM      3  C4  <0> d           0.024  -2.066  -1.216  0.00  0.00    -0.072 A 
ATOM      4  C5  <0> d           0.040  -2.773  -0.013  0.00  0.00    -0.031 A 
ATOM      5  C6  <0> d           0.037  -2.079   1.197  0.00  0.00    -0.051 A 
ATOM      6  C7  <0> d           0.023  -0.699   1.198  0.00  0.00    -0.071 A 
ATOM      7  H4  <0> d          -0.006  -0.138  -2.132  0.00  0.00     0.084 H 
ATOM      8  H5  <0> d           0.026  -2.597  -2.156  0.00  0.00     0.084 H 
ATOM      9  H6  <0> d           0.024  -0.161   2.134  0.00  0.00     0.085 H 
ENDROOT
BRANCH   4  10
ATOM     10  C9  <0> d           0.060  -4.251  -0.021  0.00  0.00    -0.082 C 
ATOM     11  C10 <0> d           0.062  -4.907  -1.173  0.00  0.00    -0.120 C 
ATOM     12  H11 <0> d           0.050  -4.362  -2.105  0.00  0.00     0.066 H 
ATOM     13  H12 <0> d           0.077  -5.987  -1.179  0.00  0.00     0.066 H 
ATOM     14  H10 <0> d           0.072  -4.796   0.911  0.00  0.00     0.083 H 
ENDBRANCH   4  10
BRANCH   5  15
ATOM     15  C8  <0> d           0.054  -2.835   2.501  0.00  0.00    -0.050 C 
ATOM     16  H7  <0> d           1.085  -3.003   2.810  0.00  0.00     0.033 H 
ATOM     17  H8  <0> d          -0.464  -2.254   3.264  0.00  0.00     0.033 H 
ATOM     18  H9  <0> d          -0.448  -3.794   2.371  0.00  0.00     0.033 H 
ENDBRANCH   5  15
BRANCH   1  19
ATOM     19  C1  <0> d          -0.018   1.503   0.010  0.00  0.00    -0.051 C 
ATOM     20  H1  <0> d           1.004   1.880   0.003  0.00  0.00     0.033 H 
ATOM     21  H2  <0> d          -0.545   1.864  -0.873  0.00  0.00     0.033 H 
ATOM     22  H3  <0> d          -0.529   1.854   0.907  0.00  0.00     0.033 H 
ENDBRANCH   1  19
TORSDOF 3
