REMARK  5 active torsions:
REMARK  status: ('A' for Active; 'I' for Inactive)
REMARK    1  A    between atoms: C1_1  and  C2_2 
REMARK    2  A    between atoms: C1_1  and  O5_14 
REMARK    3  A    between atoms: C3_4  and  O4_13 
REMARK    4  A    between atoms: C4_6  and  O3_12 
REMARK    5  A    between atoms: C5_8  and  O2_11 
ROOT
ATOM      1  C2  <0> d           2.315   3.460  -1.072  0.00  0.00     0.089 C 
ATOM      2  H1  <0> d           3.313   3.534  -0.615  0.00  0.00     0.090 H 
ATOM      3  C3  <0> d           1.171   3.103  -0.088  0.00  0.00     0.092 C 
ATOM      4  H2  <0> d           1.178   3.639   0.872  0.00  0.00     0.091 H 
ATOM      5  C4  <0> d           1.286   1.562  -0.002  0.00  0.00     0.110 C 
ATOM      6  H3  <0> d           1.731   1.184   0.931  0.00  0.00     0.094 H 
ATOM      7  C5  <0> d           2.053   1.168  -1.279  0.00  0.00     0.156 C 
ATOM      8  H4  <0> d           1.531   0.445  -1.923  0.00  0.00     0.133 H 
ATOM      9  O1  <0> d           2.291   2.375  -2.024  0.00  0.00    -0.349 OA
ENDROOT
BRANCH   1  10
ATOM     10  C1  <0> d           2.031   4.793  -1.767  0.00  0.00     0.043 C 
ATOM     11  H5  <0> d           1.093   4.718  -2.336  0.00  0.00     0.078 H 
ATOM     12  H6  <0> d           1.939   5.588  -1.012  0.00  0.00     0.078 H 
BRANCH  10  13
ATOM     13  O5  <0> d           3.105   5.104  -2.657  0.00  0.00    -0.398 OA
ATOM     14  H10 <0> d           3.078   6.030  -3.249  0.00  0.00     0.209 HD
ENDBRANCH  10  13
ENDBRANCH   1  10
BRANCH   3  15
ATOM     15  O4  <0> d          -0.098   3.491  -0.619  0.00  0.00    -0.390 OA
ATOM     16  H9  <0> d          -1.015   3.307  -0.041  0.00  0.00     0.210 HD
ENDBRANCH   3  15
BRANCH   7  17
ATOM     17  O2  <0> d           3.298   0.559  -0.931  0.00  0.00    -0.369 OA
ATOM     18  H7  <0> d           3.981   0.213  -1.721  0.00  0.00     0.212 HD
ENDBRANCH   7  17
BRANCH   5  19
ATOM     19  O3  <0> d          -0.011   0.963   0.007  0.00  0.00    -0.388 OA
ATOM     20  H8  <0> d          -0.111  -0.131   0.065  0.00  0.00     0.210 HD
ENDBRANCH   5  19
TORSDOF 5
