REMARK  2 active torsions:
REMARK  status: ('A' for Active; 'I' for Inactive)
REMARK    1  A    between atoms: C1_1  and  C2_2 
REMARK    2  A    between atoms: C5_7  and  C6_8 
ROOT
ATOM      1  C2  <0> d           0.002  -0.004   0.002  0.00  0.00    -0.033 A 
ATOM      2  C3  <0> d           0.006  -0.713  -1.192  0.00  0.00    -0.034 A 
ATOM      3  C4  <0> d           0.025  -2.098  -1.126  0.00  0.00     0.148 A 
ATOM      4  N1  <0> d           0.039  -2.700   0.050  0.00  0.00    -0.138 NA
ATOM      5  N2  <0> d           0.035  -2.043   1.153  0.00  0.00    -0.153 NA
ATOM      6  C5  <0> d           0.023  -0.724   1.186  0.00  0.00     0.059 A 
ATOM      7 Cl1  <0> d           0.031  -3.039  -2.585  0.00  0.00    -0.060 Cl
ATOM      8  H4  <0> d          -0.005  -0.201  -2.143  0.00  0.00     0.089 H 
ENDROOT
BRANCH   1   9
ATOM      9  C1  <0> d          -0.018   1.503   0.010  0.00  0.00    -0.049 C 
ATOM     10  H1  <0> d           1.004   1.880   0.003  0.00  0.00     0.033 H 
ATOM     11  H2  <0> d          -0.545   1.864  -0.873  0.00  0.00     0.033 H 
ATOM     12  H3  <0> d          -0.529   1.854   0.907  0.00  0.00     0.033 H 
ENDBRANCH   1   9
BRANCH   6  13
ATOM     13  C6  <0> d           0.026  -0.003   2.509  0.00  0.00    -0.033 C 
ATOM     14  H5  <0> d          -1.000   0.158   2.838  0.00  0.00     0.035 H 
ATOM     15  H6  <0> d           0.555  -0.603   3.249  0.00  0.00     0.035 H 
ATOM     16  H7  <0> d           0.526   0.960   2.397  0.00  0.00     0.035 H 
ENDBRANCH   6  13
TORSDOF 2
