REMARK  2 active torsions:
REMARK  status: ('A' for Active; 'I' for Inactive)
REMARK    1  A    between atoms: C1_1  and  N1_2 
REMARK    2  A    between atoms: C4_5  and  C5_7 
ROOT
ATOM      1  N1  <0> d          -0.656   3.155   0.025  0.00  0.00    -0.284 N 
ATOM      2  C2  <0> d          -1.101   1.880   0.017  0.00  0.00     0.000 A 
ATOM      3  C3  <0> d          -0.013   1.076   0.008  0.00  0.00    -0.030 A 
ATOM      4  C4  <0> d           1.102   1.948   0.002  0.00  0.00     0.154 A 
ATOM      5  N2  <0> d           0.628   3.178   0.013  0.00  0.00    -0.167 NA
ATOM      6  H4  <0> d          -2.133   1.562   0.019  0.00  0.00     0.114 H 
ATOM      7  H5  <0> d           0.002  -0.004   0.002  0.00  0.00     0.089 H 
ENDROOT
BRANCH   1   8
ATOM      8  C1  <0> d          -1.515   4.342   0.038  0.00  0.00     0.002 C 
ATOM      9  H1  <0> d          -1.737   4.642  -0.986  0.00  0.00     0.059 H 
ATOM     10  H2  <0> d          -2.444   4.112   0.559  0.00  0.00     0.059 H 
ATOM     11  H3  <0> d          -1.002   5.156   0.551  0.00  0.00     0.059 H 
ENDBRANCH   1   8
BRANCH   4  12
ATOM     12  C5  <0> d           2.525   1.555  -0.013  0.00  0.00     0.230 C 
ATOM     13  O1  <0> d           2.830   0.379  -0.022  0.00  0.00    -0.643 OA
ATOM     14  O2  <0> d           3.485   2.500  -0.017  0.00  0.00    -0.643 OA
ENDBRANCH   4  12
TORSDOF 2
