REMARK  1 active torsions:
REMARK  status: ('A' for Active; 'I' for Inactive)
REMARK    1  A    between atoms: C4_5  and  C6_7 
ROOT
ATOM      1  C1  <0> d           0.002  -0.004   0.002  0.00  0.00    -0.079 A 
ATOM      2  C2  <0> d          -0.017   1.383   0.010  0.00  0.00    -0.066 A 
ATOM      3  C3  <0> d           1.179   2.078   0.002  0.00  0.00     0.003 A 
ATOM      4  N1  <0> d           2.332   1.440  -0.013  0.00  0.00    -0.257 NA
ATOM      5  C4  <0> d           2.393   0.115  -0.020  0.00  0.00     0.107 A 
ATOM      6  C5  <0> d           1.227  -0.648  -0.013  0.00  0.00    -0.051 A 
ATOM      7  H1  <0> d          -0.918  -0.569   0.007  0.00  0.00     0.083 H 
ATOM      8  H2  <0> d          -0.956   1.916   0.017  0.00  0.00     0.085 H 
ATOM      9  H3  <0> d           1.168   3.158   0.007  0.00  0.00     0.114 H 
ATOM     10  H4  <0> d           1.279  -1.727  -0.019  0.00  0.00     0.087 H 
ENDROOT
BRANCH   5  11
ATOM     11  C6  <0> d           3.714  -0.561  -0.036  0.00  0.00     0.225 A 
ATOM     12  N4  <0> d           3.938  -1.883  -0.039  0.00  0.00    -0.104 NA
ATOM     13  N3  <0> d           5.216  -2.055  -0.057  0.00  0.00    -0.021 NA
ATOM     14  N5  <0> d           5.792  -0.904  -0.057  0.00  0.00    -0.021 NA
ATOM     15  N2  <0> d           4.896   0.022  -0.044  0.00  0.00    -0.104 NA
ENDBRANCH   5  11
TORSDOF 1
