REMARK  5 active torsions:
REMARK  status: ('A' for Active; 'I' for Inactive)
REMARK    1  A    between atoms: C1_1  and  C2_2 
REMARK    2  A    between atoms: C2_2  and  C3_3 
REMARK    3  A    between atoms: C3_3  and  C4_4 
REMARK    4  A    between atoms: C3_3  and  C5_5 
REMARK    5  A    between atoms: C3_3  and  O1_11 
ROOT
ATOM      1  C3  <0> d          -2.553   3.869   0.045  0.00  0.00     0.081 C 
ENDROOT
BRANCH   1   2
ATOM      2  C2  <0> d          -3.614   3.031  -0.670  0.00  0.00    -0.036 C 
ATOM      3  H4  <0> d          -3.307   2.858  -1.701  0.00  0.00     0.037 H 
ATOM      4  H5  <0> d          -3.727   2.074  -0.160  0.00  0.00     0.037 H 
BRANCH   2   5
ATOM      5  C1  <0> d          -4.950   3.777  -0.654  0.00  0.00    -0.073 C 
ATOM      6  H1  <0> d          -4.837   4.734  -1.165  0.00  0.00     0.027 H 
ATOM      7  H2  <0> d          -5.706   3.181  -1.164  0.00  0.00     0.027 H 
ATOM      8  H3  <0> d          -5.257   3.950   0.377  0.00  0.00     0.027 H 
ENDBRANCH   2   5
ENDBRANCH   1   2
BRANCH   1   9
ATOM      9  C4  <0> d          -2.985   4.111   1.493  0.00  0.00    -0.044 C 
ATOM     10  H6  <0> d          -2.228   4.707   2.003  0.00  0.00     0.032 H 
ATOM     11  H7  <0> d          -3.936   4.643   1.504  0.00  0.00     0.032 H 
ATOM     12  H8  <0> d          -3.097   3.154   2.003  0.00  0.00     0.032 H 
ENDBRANCH   1   9
BRANCH   1  13
ATOM     13  C5  <0> d          -1.238   3.133   0.030  0.00  0.00    -0.025 A 
ATOM     14  C10 <0> d          -0.050   3.840   0.022  0.00  0.00    -0.074 A 
ATOM     15  C9  <0> d           1.156   3.165   0.008  0.00  0.00    -0.082 A 
ATOM     16  H13 <0> d          -0.065   4.920   0.028  0.00  0.00     0.084 H 
ATOM     17  C8  <0> d           1.175   1.783   0.000  0.00  0.00    -0.083 A 
ATOM     18  H12 <0> d           2.084   3.718   0.001  0.00  0.00     0.083 H 
ATOM     19  C7  <0> d          -0.013   1.076   0.008  0.00  0.00    -0.082 A 
ATOM     20  H11 <0> d           2.118   1.256  -0.011  0.00  0.00     0.083 H 
ATOM     21  C6  <0> d          -1.219   1.751   0.017  0.00  0.00    -0.074 A 
ATOM     22  H10 <0> d           0.002  -0.004   0.002  0.00  0.00     0.083 H 
ATOM     23  H9  <0> d          -2.147   1.198   0.019  0.00  0.00     0.084 H 
ENDBRANCH   1  13
BRANCH   1  24
ATOM     24  O1  <0> d          -2.405   5.122  -0.624  0.00  0.00    -0.385 OA
ATOM     25  H14 <0> d          -2.132   5.045  -1.548  0.00  0.00     0.211 HD
ENDBRANCH   1  24
TORSDOF 5
