REMARK  2 active torsions:
REMARK  status: ('A' for Active; 'I' for Inactive)
REMARK    1  A    between atoms: C3_3  and  O2_10 
REMARK    2  A    between atoms: C4_4  and  C6_7 
REMARK       I    between atoms: C6_7  and  N2_9 
ROOT
ATOM      1  C1  <0> d           1.191   2.064   0.002  0.00  0.00    -0.063 A 
ATOM      2  C2  <0> d          -0.017   1.389   0.010  0.00  0.00    -0.047 A 
ATOM      3  C3  <0> d           0.002  -0.004   0.002  0.00  0.00     0.100 A 
ATOM      4  C4  <0> d           1.236  -0.664  -0.013  0.00  0.00     0.156 A 
ATOM      5  N1  <0> d           2.369   0.029  -0.020  0.00  0.00    -0.253 NA
ATOM      6  C5  <0> d           2.375   1.343  -0.013  0.00  0.00     0.003 A 
ATOM      7  H1  <0> d           1.211   3.144   0.007  0.00  0.00     0.085 H 
ATOM      8  H2  <0> d          -0.952   1.929   0.017  0.00  0.00     0.087 H 
ATOM      9  H3  <0> d           3.318   1.870  -0.019  0.00  0.00     0.114 H 
ENDROOT
BRANCH   4  10
ATOM     10  C6  <0> d           1.278  -2.142  -0.022  0.00  0.00     0.270 C 
ATOM     11  O1  <0> d           0.243  -2.779  -0.015  0.00  0.00    -0.266 OA
ATOM     12  N2  <0> d           2.464  -2.782  -0.036  0.00  0.00    -0.365 N 
ATOM     13  H4  <0> d           3.290  -2.273  -0.042  0.00  0.00     0.159 HD
ATOM     14  H5  <0> d           2.492  -3.751  -0.042  0.00  0.00     0.159 HD
ENDBRANCH   4  10
BRANCH   3  15
ATOM     15  O2  <0> d          -1.157  -0.709   0.010  0.00  0.00    -0.358 OA
ATOM     16  H6  <0> d          -1.502  -0.909  -0.871  0.00  0.00     0.217 HD
ENDBRANCH   3  15
TORSDOF 2
