REMARK  2 active torsions:
REMARK  status: ('A' for Active; 'I' for Inactive)
REMARK    1  A    between atoms: C2_2  and  C3_3 
REMARK    2  A    between atoms: C3_3  and  C5_7 
ROOT
ATOM      1  C3  <0> d          -1.293  -0.775   0.010  0.00  0.00     0.071 C 
ATOM      2  H1  <0> d          -2.131  -0.078   0.022  0.00  0.00     0.076 H 
ATOM      3  C4  <0> d          -1.348  -1.629   1.208  0.00  0.00     0.072 C 
ATOM      4  N1  <0> d          -1.390  -2.288   2.133  0.00  0.00    -0.196 NA
ENDROOT
BRANCH   1   5
ATOM      5  C2  <0> d           0.002  -0.004   0.002  0.00  0.00    -0.091 C 
ATOM      6  C1  <0> d          -0.016   1.306   0.009  0.00  0.00    -0.123 C 
ATOM      7  H2  <0> d           0.912   1.859   0.003  0.00  0.00     0.066 H 
ATOM      8  H3  <0> d          -0.958   1.833   0.017  0.00  0.00     0.066 H 
ATOM      9  H4  <0> d           0.945  -0.531  -0.010  0.00  0.00     0.078 H 
ENDBRANCH   1   5
BRANCH   1  10
ATOM     10  C5  <0> d          -1.372  -1.636  -1.224  0.00  0.00    -0.037 A 
ATOM     11  C10 <0> d          -2.408  -1.461  -2.123  0.00  0.00    -0.075 A 
ATOM     12  C9  <0> d          -2.478  -2.247  -3.258  0.00  0.00    -0.082 A 
ATOM     13  H9  <0> d          -3.159  -0.707  -1.941  0.00  0.00     0.084 H 
ATOM     14  C8  <0> d          -1.519  -3.216  -3.489  0.00  0.00    -0.083 A 
ATOM     15  H8  <0> d          -3.285  -2.107  -3.962  0.00  0.00     0.083 H 
ATOM     16  C7  <0> d          -0.487  -3.394  -2.587  0.00  0.00    -0.082 A 
ATOM     17  H7  <0> d          -1.576  -3.832  -4.373  0.00  0.00     0.083 H 
ATOM     18  C6  <0> d          -0.414  -2.605  -1.454  0.00  0.00    -0.075 A 
ATOM     19  H6  <0> d           0.263  -4.151  -2.767  0.00  0.00     0.083 H 
ATOM     20  H5  <0> d           0.393  -2.744  -0.750  0.00  0.00     0.084 H 
ENDBRANCH   1  10
TORSDOF 2
