REMARK  1 active torsions:
REMARK  status: ('A' for Active; 'I' for Inactive)
REMARK    1  A    between atoms: C1_1  and  N1_2 
ROOT
ATOM      1  N1  <0> d           1.155   3.157   0.008  0.00  0.00    -0.271 N 
ATOM      2  C2  <0> d           1.198   1.810   0.000  0.00  0.00     0.252 A 
ATOM      3  O1  <0> d           2.269   1.229  -0.013  0.00  0.00    -0.268 OA
ATOM      4  C3  <0> d          -0.013   1.076   0.008  0.00  0.00    -0.002 A 
ATOM      5  C4  <0> d          -1.186   1.744   0.017  0.00  0.00    -0.013 A 
ATOM      6  N2  <0> d          -1.186   3.112   0.030  0.00  0.00    -0.318 N 
ATOM      7  H1  <0> d          -2.139   3.662   0.046  0.00  0.00     0.170 HD
ATOM      8  C5  <0> d          -0.029   3.798   0.023  0.00  0.00     0.328 A 
ATOM      9  O2  <0> d          -0.052   5.014   0.030  0.00  0.00    -0.246 OA
ATOM     10  H5  <0> d           0.002  -0.004   0.002  0.00  0.00     0.094 H 
ATOM     11  H6  <0> d          -2.119   1.201   0.018  0.00  0.00     0.111 H 
ENDROOT
BRANCH   1  12
ATOM     12  C1  <0> d           2.401   3.927   0.000  0.00  0.00    -0.007 C 
ATOM     13  H2  <0> d           3.258   3.238  -0.012  0.00  0.00     0.057 H 
ATOM     14  H3  <0> d           2.450   4.556   0.902  0.00  0.00     0.057 H 
ATOM     15  H4  <0> d           2.432   4.566  -0.894  0.00  0.00     0.057 H 
ENDBRANCH   1  12
TORSDOF 1
