REMARK  6 active torsions:
REMARK  status: ('A' for Active; 'I' for Inactive)
REMARK    1  A    between atoms: C1_1  and  C2_2 
REMARK    2  A    between atoms: C2_2  and  C3_4 
REMARK    3  A    between atoms: C2_2  and  O3_9 
REMARK    4  A    between atoms: C3_4  and  O1_5 
REMARK    5  A    between atoms: O1_5  and  C4_6 
REMARK    6  A    between atoms: C4_6  and  C5_8 
ROOT
ATOM      1  C3  <0> d          -0.013   1.086   0.008  0.00  0.00     0.052 C 
ATOM      2  H5  <0> d           0.002  -0.004   0.002  0.00  0.00     0.079 H 
ATOM      3  H6  <0> d           1.010   1.463   0.000  0.00  0.00     0.079 H 
ENDROOT
BRANCH   1   4
ATOM      4  C2  <0> d          -0.729   1.579   1.267  0.00  0.00     0.053 C 
ATOM      5  H1  <0> d          -0.255   1.146   2.148  0.00  0.00     0.085 H 
BRANCH   4   6
ATOM      6  C1  <0> d          -2.198   1.155   1.217  0.00  0.00    -0.050 C 
ATOM      7  H2  <0> d          -2.261   0.068   1.166  0.00  0.00     0.031 H 
ATOM      8  H3  <0> d          -2.708   1.506   2.114  0.00  0.00     0.031 H 
ATOM      9  H4  <0> d          -2.672   1.588   0.336  0.00  0.00     0.031 H 
ENDBRANCH   4   6
BRANCH   4  10
ATOM     10  O3  <0> d          -0.647   3.004   1.334  0.00  0.00    -0.394 OA
ATOM     11  H10 <0> d          -1.081   3.387   2.109  0.00  0.00     0.210 HD
ENDBRANCH   4  10
ENDBRANCH   1   4
BRANCH   1  12
ATOM     12  O1  <0> d          -0.715   1.567  -1.168  0.00  0.00    -0.319 OA
BRANCH  12  13
ATOM     13  C4  <0> d          -0.211   1.220  -2.363  0.00  0.00     0.254 C 
ATOM     14  O2  <0> d           0.783   0.536  -2.424  0.00  0.00    -0.266 OA
BRANCH  13  15
ATOM     15  C5  <0> d          -0.887   1.682  -3.629  0.00  0.00     0.004 C 
ATOM     16  H7  <0> d          -0.901   2.771  -3.655  0.00  0.00     0.041 H 
ATOM     17  H8  <0> d          -0.339   1.304  -4.492  0.00  0.00     0.041 H 
ATOM     18  H9  <0> d          -1.909   1.304  -3.654  0.00  0.00     0.041 H 
ENDBRANCH  13  15
ENDBRANCH  12  13
ENDBRANCH   1  12
TORSDOF 6
