REMARK  5 active torsions:
REMARK  status: ('A' for Active; 'I' for Inactive)
REMARK    1  A    between atoms: C1_1  and  C2_2 
REMARK    2  A    between atoms: C2_2  and  C3_4 
REMARK    3  A    between atoms: C2_2  and  O1_12 
REMARK    4  A    between atoms: C3_4  and  C4_5 
REMARK    5  A    between atoms: C4_5  and  C5_6 
ROOT
ATOM      1  C5  <0> d           1.347  -2.517  -2.587  0.00  0.00    -0.054 C 
ATOM      2  C6  <0> d           0.607  -2.010  -3.827  0.00  0.00    -0.062 C 
ATOM      3  C7  <0> d           1.323  -2.503  -5.086  0.00  0.00    -0.065 C 
ATOM      4  C8  <0> d           1.343  -4.033  -5.094  0.00  0.00    -0.065 C 
ATOM      5  C9  <0> d           2.083  -4.540  -3.855  0.00  0.00    -0.065 C 
ATOM      6  C10 <0> d           1.367  -4.046  -2.596  0.00  0.00    -0.062 C 
ATOM      7  H9  <0> d           2.378  -2.136  -2.595  0.00  0.00     0.040 H 
ATOM      8  H10 <0> d          -0.425  -2.391  -3.819  0.00  0.00     0.033 H 
ATOM      9  H11 <0> d           0.592  -0.910  -3.821  0.00  0.00     0.033 H 
ATOM     10  H12 <0> d           0.790  -2.139  -5.977  0.00  0.00     0.033 H 
ATOM     11  H13 <0> d           2.355  -2.123  -5.094  0.00  0.00     0.033 H 
ATOM     12  H14 <0> d           0.311  -4.414  -5.086  0.00  0.00     0.033 H 
ATOM     13  H15 <0> d           1.858  -4.388  -5.999  0.00  0.00     0.033 H 
ATOM     14  H16 <0> d           2.098  -5.640  -3.861  0.00  0.00     0.033 H 
ATOM     15  H17 <0> d           3.115  -4.159  -3.862  0.00  0.00     0.033 H 
ATOM     16  H18 <0> d           1.899  -4.411  -1.705  0.00  0.00     0.033 H 
ATOM     17  H19 <0> d           0.335  -4.427  -2.588  0.00  0.00     0.033 H 
ENDROOT
BRANCH   1  18
ATOM     18  C4  <0> d           0.630  -2.023  -1.329  0.00  0.00    -0.059 C 
ATOM     19  H7  <0> d           1.108  -2.460  -0.440  0.00  0.00     0.033 H 
ATOM     20  H8  <0> d          -0.426  -2.329  -1.364  0.00  0.00     0.033 H 
BRANCH  18  21
ATOM     21  C3  <0> d           0.718  -0.497  -1.257  0.00  0.00    -0.041 C 
ATOM     22  H5  <0> d           0.240  -0.060  -2.146  0.00  0.00     0.036 H 
ATOM     23  H6  <0> d           1.774  -0.192  -1.221  0.00  0.00     0.036 H 
BRANCH  21  24
ATOM     24  C2  <0> d           0.002  -0.004   0.002  0.00  0.00     0.032 C 
ATOM     25  H1  <0> d          -1.015  -0.417   0.070  0.00  0.00     0.082 H 
BRANCH  24  26
ATOM     26  C1  <0> d          -0.019   1.526   0.010  0.00  0.00    -0.052 C 
ATOM     27  H2  <0> d          -0.534   1.881   0.915  0.00  0.00     0.030 H 
ATOM     28  H3  <0> d          -0.551   1.890  -0.881  0.00  0.00     0.030 H 
ATOM     29  H4  <0> d           1.013   1.907   0.003  0.00  0.00     0.030 H 
ENDBRANCH  24  26
BRANCH  24  30
ATOM     30  O1  <0> d           0.693  -0.477   1.160  0.00  0.00    -0.396 OA
ATOM     31  H20 <0> d           0.810  -1.558   1.327  0.00  0.00     0.210 HD
ENDBRANCH  24  30
ENDBRANCH  21  24
ENDBRANCH  18  21
ENDBRANCH   1  18
TORSDOF 5
