REMARK  5 active torsions:
REMARK  status: ('A' for Active; 'I' for Inactive)
REMARK    1  A    between atoms: C1_1  and  C2_2 
REMARK    2  A    between atoms: C2_2  and  C3_3 
REMARK    3  A    between atoms: C3_3  and  N1_4 
REMARK    4  A    between atoms: C4_5  and  N3_10 
REMARK    5  A    between atoms: C5_6  and  C7_9 
ROOT
ATOM      1  N1  <0> d          -1.391   2.988   0.030  0.00  0.00    -0.254 N 
ATOM      2  C4  <0> d          -1.226   1.645   0.017  0.00  0.00     0.124 A 
ATOM      3  C5  <0> d          -2.465   1.079   0.020  0.00  0.00     0.002 A 
ATOM      4  C6  <0> d          -3.406   2.112   0.031  0.00  0.00     0.031 A 
ATOM      5  N2  <0> d          -2.766   3.253   0.034  0.00  0.00    -0.183 NA
ATOM      6  H8  <0> d          -4.479   1.989   0.035  0.00  0.00     0.118 H 
ENDROOT
BRANCH   1   7
ATOM      7  C3  <0> d          -0.320   3.988   0.037  0.00  0.00     0.018 C 
ATOM      8  H6  <0> d          -0.660   4.881   0.560  0.00  0.00     0.067 H 
ATOM      9  H7  <0> d           0.554   3.580   0.544  0.00  0.00     0.067 H 
BRANCH   7  10
ATOM     10  C2  <0> d           0.049   4.350  -1.403  0.00  0.00    -0.051 C 
ATOM     11  H4  <0> d           0.389   3.456  -1.927  0.00  0.00     0.035 H 
ATOM     12  H5  <0> d          -0.826   4.757  -1.911  0.00  0.00     0.035 H 
BRANCH  10  13
ATOM     13  C1  <0> d           1.167   5.394  -1.396  0.00  0.00    -0.075 C 
ATOM     14  H1  <0> d           0.826   6.287  -0.873  0.00  0.00     0.027 H 
ATOM     15  H2  <0> d           2.041   4.987  -0.889  0.00  0.00     0.027 H 
ATOM     16  H3  <0> d           1.429   5.652  -2.422  0.00  0.00     0.027 H 
ENDBRANCH  10  13
ENDBRANCH   7  10
ENDBRANCH   1   7
BRANCH   2  17
ATOM     17  N3  <0> d          -0.011   0.966   0.007  0.00  0.00    -0.384 N 
ATOM     18  H12 <0> d           0.002  -0.004   0.002  0.00  0.00     0.157 HD
ATOM     19  H13 <0> d           0.822   1.462   0.002  0.00  0.00     0.157 HD
ENDBRANCH   2  17
BRANCH   3  20
ATOM     20  C7  <0> d          -2.766  -0.397   0.013  0.00  0.00    -0.046 C 
ATOM     21  H9  <0> d          -2.833  -0.759   1.039  0.00  0.00     0.033 H 
ATOM     22  H10 <0> d          -3.713  -0.572  -0.497  0.00  0.00     0.033 H 
ATOM     23  H11 <0> d          -1.969  -0.928  -0.508  0.00  0.00     0.033 H 
ENDBRANCH   3  20
TORSDOF 5
