REMARK  1 active torsions:
REMARK  status: ('A' for Active; 'I' for Inactive)
REMARK    1  A    between atoms: C1_1  and  C2_2 
ROOT
ATOM      1  C2  <0> d           0.002  -0.004   0.002  0.00  0.00     0.017 C 
ATOM      2  N1  <0> d           0.005  -0.637  -1.123  0.00  0.00    -0.204 NA
ATOM      3  C3  <0> d           0.001  -1.978  -1.181  0.00  0.00     0.343 C 
ATOM      4  O1  <0> d           0.279  -2.530  -2.228  0.00  0.00    -0.245 OA
ATOM      5  N2  <0> d          -0.304  -2.723  -0.103  0.00  0.00    -0.324 N 
ATOM      6  C4  <0> d          -0.738  -2.077   1.139  0.00  0.00     0.102 C 
ATOM      7  H1  <0> d          -0.522  -2.731   1.984  0.00  0.00     0.096 H 
ATOM      8  C5  <0> d           0.025  -0.757   1.308  0.00  0.00     0.002 C 
ATOM      9  C6  <0> d          -2.184  -1.813   1.077  0.00  0.00     0.085 C 
ATOM     10  N3  <0> d          -3.301  -1.609   1.030  0.00  0.00    -0.195 NA
ATOM     11  H5  <0> d          -0.236  -3.690  -0.149  0.00  0.00     0.165 HD
ATOM     12  H6  <0> d           1.057  -0.963   1.591  0.00  0.00     0.046 H 
ATOM     13  H7  <0> d          -0.454  -0.157   2.082  0.00  0.00     0.046 H 
ENDROOT
BRANCH   1  14
ATOM     14  C1  <0> d          -0.018   1.503   0.010  0.00  0.00    -0.039 C 
ATOM     15  H2  <0> d           1.004   1.880   0.003  0.00  0.00     0.035 H 
ATOM     16  H3  <0> d          -0.545   1.864  -0.873  0.00  0.00     0.035 H 
ATOM     17  H4  <0> d          -0.529   1.854   0.907  0.00  0.00     0.035 H 
ENDBRANCH   1  14
TORSDOF 1
