REMARK  2 active torsions:
REMARK  status: ('A' for Active; 'I' for Inactive)
REMARK    1  A    between atoms: C1_1  and  C2_2 
REMARK    2  A    between atoms: N1_6  and  C6_7 
ROOT
ATOM      1  C2  <0> d           3.898   3.150  -0.870  0.00  0.00     0.012 A 
ATOM      2  C3  <0> d           5.140   3.581  -0.570  0.00  0.00    -0.060 A 
ATOM      3  C4  <0> d           5.613   2.796   0.500  0.00  0.00    -0.066 A 
ATOM      4  C5  <0> d           4.641   1.918   0.820  0.00  0.00    -0.015 A 
ATOM      5  N1  <0> d           3.586   2.125  -0.022  0.00  0.00    -0.326 N 
ATOM      6  H4  <0> d           5.673   4.382  -1.061  0.00  0.00     0.086 H 
ATOM      7  H5  <0> d           6.577   2.886   0.981  0.00  0.00     0.085 H 
ATOM      8  H6  <0> d           4.690   1.177   1.604  0.00  0.00     0.112 H 
ENDROOT
BRANCH   5   9
ATOM      9  C6  <0> d           2.381   1.409  -0.013  0.00  0.00     0.038 A 
ATOM     10  C11 <0> d           2.396   0.021  -0.021  0.00  0.00    -0.057 A 
ATOM     11  C10 <0> d           1.207  -0.682  -0.013  0.00  0.00    -0.081 A 
ATOM     12  H11 <0> d           3.337  -0.509  -0.033  0.00  0.00     0.086 H 
ATOM     13  C9  <0> d           0.002  -0.004   0.002  0.00  0.00    -0.083 A 
ATOM     14  H10 <0> d           1.219  -1.762  -0.019  0.00  0.00     0.083 H 
ATOM     15  C8  <0> d          -0.017   1.379   0.010  0.00  0.00    -0.081 A 
ATOM     16  H9  <0> d          -0.926  -0.556   0.008  0.00  0.00     0.083 H 
ATOM     17  C7  <0> d           1.169   2.087   0.002  0.00  0.00    -0.057 A 
ATOM     18  H8  <0> d          -0.960   1.905   0.017  0.00  0.00     0.083 H 
ATOM     19  H7  <0> d           1.154   3.167   0.008  0.00  0.00     0.086 H 
ENDBRANCH   5   9
BRANCH   1  20
ATOM     20  C1  <0> d           3.008   3.702  -1.953  0.00  0.00    -0.037 C 
ATOM     21  H1  <0> d           2.397   4.508  -1.546  0.00  0.00     0.035 H 
ATOM     22  H2  <0> d           3.622   4.086  -2.767  0.00  0.00     0.035 H 
ATOM     23  H3  <0> d           2.360   2.910  -2.330  0.00  0.00     0.035 H 
ENDBRANCH   1  20
TORSDOF 2
