REMARK  5 active torsions:
REMARK  status: ('A' for Active; 'I' for Inactive)
REMARK    1  A    between atoms: C1_1  and  C2_2 
REMARK    2  A    between atoms: C2_2  and  C3_3 
REMARK    3  A    between atoms: C3_3  and  C4_4 
REMARK    4  A    between atoms: C4_4  and  S1_5 
REMARK    5  A    between atoms: S1_5  and  C5_6 
ROOT
ATOM      1  C4  <0> d           3.701  -1.685  -0.042  0.00  0.00    -0.016 C 
ATOM      2  H9  <0> d           3.955  -1.109  -0.932  0.00  0.00     0.049 H 
ATOM      3  H10 <0> d           3.973  -1.118   0.848  0.00  0.00     0.049 H 
ENDROOT
BRANCH   1   4
ATOM      4  C3  <0> d           4.466  -3.010  -0.057  0.00  0.00    -0.057 C 
ATOM      5  H7  <0> d           4.211  -3.587   0.833  0.00  0.00     0.034 H 
ATOM      6  H8  <0> d           4.194  -3.577  -0.947  0.00  0.00     0.034 H 
BRANCH   4   7
ATOM      7  C2  <0> d           5.970  -2.730  -0.070  0.00  0.00    -0.068 C 
ATOM      8  H5  <0> d           6.225  -2.154  -0.959  0.00  0.00     0.032 H 
ATOM      9  H6  <0> d           6.242  -2.163   0.821  0.00  0.00     0.032 H 
BRANCH   7  10
ATOM     10  C1  <0> d           6.735  -4.055  -0.084  0.00  0.00    -0.076 C 
ATOM     11  H2  <0> d           6.463  -4.622  -0.975  0.00  0.00     0.027 H 
ATOM     12  H3  <0> d           7.807  -3.856  -0.093  0.00  0.00     0.027 H 
ATOM     13  H4  <0> d           6.480  -4.632   0.805  0.00  0.00     0.027 H 
ENDBRANCH   7  10
ENDBRANCH   4   7
ENDBRANCH   1   4
BRANCH   1  14
ATOM     14  S1  <0> d           1.921  -2.016  -0.027  0.00  0.00    -0.091 SA
BRANCH  14  15
ATOM     15  C5  <0> d           1.303  -0.366  -0.012  0.00  0.00     0.183 A 
ATOM     16  N3  <0> d           2.028   0.733  -0.013  0.00  0.00    -0.215 NA
ATOM     17  C6  <0> d           1.226   1.799   0.000  0.00  0.00     0.108 A 
ATOM     18  N2  <0> d          -0.017   1.400   0.010  0.00  0.00    -0.166 NA
ATOM     19  H11 <0> d           1.554   2.828   0.002  0.00  0.00     0.149 H 
ATOM     20  N1  <0> d           0.002  -0.004   0.002  0.00  0.00    -0.254 N 
ATOM     21  H1  <0> d          -0.766  -0.596   0.006  0.00  0.00     0.191 HD
ENDBRANCH  14  15
ENDBRANCH   1  14
TORSDOF 5
