REMARK  4 active torsions:
REMARK  status: ('A' for Active; 'I' for Inactive)
REMARK    1  A    between atoms: C1_1  and  C2_2 
REMARK    2  A    between atoms: C1_1  and  C4_6 
REMARK    3  A    between atoms: C2_2  and  C3_3 
REMARK       I    between atoms: C3_3  and  N1_5 
REMARK    4  A    between atoms: C4_6  and  O2_7 
ROOT
ATOM      1  C1  <0> d          -2.657   3.621   0.034  0.00  0.00    -0.038 C 
ATOM      2  H1  <0> d          -3.170   3.256  -0.855  0.00  0.00     0.036 H 
ATOM      3  H2  <0> d          -3.162   3.246   0.925  0.00  0.00     0.036 H 
ENDROOT
BRANCH   1   4
ATOM      4  C2  <0> d          -1.208   3.131   0.025  0.00  0.00     0.011 C 
ATOM      5  H3  <0> d          -0.695   3.496   0.914  0.00  0.00     0.047 H 
ATOM      6  H4  <0> d          -0.703   3.506  -0.866  0.00  0.00     0.047 H 
BRANCH   4   7
ATOM      7  C3  <0> d          -1.187   1.624   0.017  0.00  0.00     0.215 C 
ATOM      8  O1  <0> d          -2.229   1.003   0.018  0.00  0.00    -0.274 OA
ATOM      9  N1  <0> d          -0.011   0.966   0.007  0.00  0.00    -0.370 N 
ATOM     10  H5  <0> d           0.002  -0.004   0.002  0.00  0.00     0.159 HD
ATOM     11  H6  <0> d           0.822   1.462   0.002  0.00  0.00     0.159 HD
ENDBRANCH   4   7
ENDBRANCH   1   4
BRANCH   1  12
ATOM     12  C4  <0> d          -2.678   5.151   0.043  0.00  0.00     0.017 C 
ATOM     13  H7  <0> d          -2.165   5.516   0.932  0.00  0.00     0.073 H 
ATOM     14  H8  <0> d          -2.173   5.526  -0.848  0.00  0.00     0.073 H 
BRANCH  12  15
ATOM     15  O2  <0> d          -4.031   5.609   0.052  0.00  0.00    -0.401 OA
ATOM     16  H9  <0> d          -4.121   6.572   0.057  0.00  0.00     0.209 HD
ENDBRANCH  12  15
ENDBRANCH   1  12
TORSDOF 4
