REMARK  2 active torsions:
REMARK  status: ('A' for Active; 'I' for Inactive)
REMARK    1  A    between atoms: C1_1  and  O1_2 
REMARK    2  A    between atoms: O1_2  and  C2_3 
ROOT
ATOM      1  C2  <0> d           2.401   0.009  -0.021  0.00  0.00     0.092 A 
ATOM      2  C3  <0> d           1.203  -0.688  -0.013  0.00  0.00    -0.049 A 
ATOM      3  C4  <0> d           0.002  -0.004   0.002  0.00  0.00    -0.077 A 
ATOM      4  C5  <0> d          -0.017   1.380   0.010  0.00  0.00    -0.044 A 
ATOM      5  C6  <0> d           1.167   2.092   0.002  0.00  0.00     0.139 A 
ATOM      6  C7  <0> d           2.389   1.411  -0.013  0.00  0.00     0.116 A 
ATOM      7  C8  <0> d           3.621   2.142  -0.021  0.00  0.00     0.105 C 
ATOM      8  N1  <0> d           4.598   2.721  -0.027  0.00  0.00    -0.191 NA
ATOM      9  F1  <0> d           1.144   3.443   0.010  0.00  0.00    -0.204 F 
ATOM     10  H4  <0> d           1.208  -1.768  -0.019  0.00  0.00     0.087 H 
ATOM     11  H5  <0> d          -0.928  -0.553   0.008  0.00  0.00     0.083 H 
ATOM     12  H6  <0> d          -0.961   1.905   0.017  0.00  0.00     0.088 H 
ENDROOT
BRANCH   1  13
ATOM     13  O1  <0> d           3.580  -0.662  -0.035  0.00  0.00    -0.354 OA
BRANCH  13  14
ATOM     14  C1  <0> d           3.513  -2.090  -0.042  0.00  0.00     0.010 C 
ATOM     15  H1  <0> d           2.991  -2.433   0.851  0.00  0.00     0.066 H 
ATOM     16  H2  <0> d           2.974  -2.424  -0.929  0.00  0.00     0.066 H 
ATOM     17  H3  <0> d           4.522  -2.501  -0.053  0.00  0.00     0.066 H 
ENDBRANCH  13  14
ENDBRANCH   1  13
TORSDOF 2
