REMARK  2 active torsions:
REMARK  status: ('A' for Active; 'I' for Inactive)
REMARK    1  A    between atoms: C5_8  and  C6_9 
REMARK    2  A    between atoms: C6_9  and  O2_10 
ROOT
ATOM      1  C1  <0> d           2.291   3.873   0.001  0.00  0.00    -0.068 A 
ATOM      2  C2  <0> d           2.147   5.229   0.009  0.00  0.00    -0.017 A 
ATOM      3  C3  <0> d           0.855   5.784   0.024  0.00  0.00     0.245 A 
ATOM      4  O1  <0> d           0.712   6.996   0.031  0.00  0.00    -0.268 OA
ATOM      5  N1  <0> d          -0.224   4.978   0.029  0.00  0.00    -0.333 N 
ATOM      6  H1  <0> d          -1.234   5.413   0.044  0.00  0.00     0.168 HD
ATOM      7  C4  <0> d          -0.082   3.628   0.017  0.00  0.00    -0.012 A 
ATOM      8  C5  <0> d           1.147   3.062   0.008  0.00  0.00    -0.019 A 
ATOM      9  H2  <0> d           3.275   3.429  -0.010  0.00  0.00     0.084 H 
ATOM     10  H3  <0> d           3.016   5.871   0.004  0.00  0.00     0.092 H 
ATOM     11  H4  <0> d          -0.960   2.999   0.017  0.00  0.00     0.112 H 
ENDROOT
BRANCH   8  12
ATOM     12  C6  <0> d           1.286   1.562  -0.002  0.00  0.00     0.042 C 
ATOM     13  H5  <0> d           1.828   1.250  -0.907  0.00  0.00     0.081 H 
ATOM     14  H6  <0> d           1.845   1.240   0.889  0.00  0.00     0.081 H 
BRANCH  12  15
ATOM     15  O2  <0> d          -0.011   0.963   0.007  0.00  0.00    -0.396 OA
ATOM     16  H7  <0> d          -0.111  -0.133   0.002  0.00  0.00     0.209 HD
ENDBRANCH  12  15
ENDBRANCH   8  12
TORSDOF 2
