REMARK  0 active torsions:
REMARK  status: ('A' for Active; 'I' for Inactive)
ROOT
ATOM      1  C1  <0> d          -1.228   2.418   0.021  0.00  0.00    -0.019 A 
ATOM      2  C2  <0> d          -0.021   1.732   0.012  0.00  0.00     0.054 A 
ATOM      3  C3  <0> d           1.161   2.447   0.004  0.00  0.00     0.026 A 
ATOM      4  N1  <0> d           1.153   3.767   0.011  0.00  0.00    -0.229 NA
ATOM      5  C4  <0> d           0.027   4.454   0.025  0.00  0.00     0.248 A 
ATOM      6  C5  <0> d          -1.200   3.804   0.033  0.00  0.00     0.175 A 
ATOM      7  F1  <0> d          -2.350   4.513   0.048  0.00  0.00    -0.201 F 
ATOM      8  F2  <0> d           0.068   5.804   0.033  0.00  0.00    -0.181 F 
ATOM      9 Cl1  <0> d           0.002  -0.004   0.002  0.00  0.00    -0.083 Cl
ATOM     10  H1  <0> d          -2.167   1.884   0.022  0.00  0.00     0.091 H 
ATOM     11  H2  <0> d           2.103   1.919  -0.007  0.00  0.00     0.117 H 
ENDROOT
TORSDOF 0
