REMARK  9 active torsions:
REMARK  status: ('A' for Active; 'I' for Inactive)
REMARK    1  A    between atoms: C1_1  and  C2_2 
REMARK    2  A    between atoms: C2_2  and  C3_3 
REMARK    3  A    between atoms: C3_3  and  C4_4 
REMARK    4  A    between atoms: C4_4  and  O1_5 
REMARK    5  A    between atoms: C4_4  and  O2_8 
REMARK    6  A    between atoms: O1_5  and  C5_6 
REMARK    7  A    between atoms: C5_6  and  C6_7 
REMARK    8  A    between atoms: O2_8  and  C7_9 
REMARK    9  A    between atoms: C7_9  and  C8_10 
ROOT
ATOM      1  C4  <0> d           0.066   1.035   0.157  0.00  0.00     0.131 C 
ATOM      2  H8  <0> d           0.163  -0.003   0.474  0.00  0.00     0.129 H 
ENDROOT
BRANCH   1   3
ATOM      3  C3  <0> d          -0.913   1.762   1.080  0.00  0.00    -0.019 C 
ATOM      4  H6  <0> d          -0.943   2.820   0.819  0.00  0.00     0.040 H 
ATOM      5  H7  <0> d          -1.908   1.331   0.966  0.00  0.00     0.040 H 
BRANCH   3   6
ATOM      6  C2  <0> d          -0.455   1.608   2.532  0.00  0.00    -0.064 C 
ATOM      7  H4  <0> d          -0.425   0.550   2.793  0.00  0.00     0.032 H 
ATOM      8  H5  <0> d           0.540   2.038   2.647  0.00  0.00     0.032 H 
BRANCH   6   9
ATOM      9  C1  <0> d          -1.434   2.334   3.456  0.00  0.00    -0.076 C 
ATOM     10  H1  <0> d          -1.108   2.224   4.490  0.00  0.00     0.027 H 
ATOM     11  H2  <0> d          -1.464   3.392   3.195  0.00  0.00     0.027 H 
ATOM     12  H3  <0> d          -2.429   1.904   3.341  0.00  0.00     0.027 H 
ENDBRANCH   6   9
ENDBRANCH   3   6
ENDBRANCH   1   3
BRANCH   1  13
ATOM     13  O1  <0> d           1.343   1.673   0.220  0.00  0.00    -0.362 OA
BRANCH  13  14
ATOM     14  C5  <0> d           2.439   0.815  -0.106  0.00  0.00     0.019 C 
ATOM     15  H9  <0> d           2.396  -0.079   0.515  0.00  0.00     0.073 H 
ATOM     16  H10 <0> d           2.378   0.531  -1.156  0.00  0.00     0.073 H 
BRANCH  14  17
ATOM     17  C6  <0> d           3.756   1.551   0.149  0.00  0.00    -0.056 C 
ATOM     18  H11 <0> d           3.816   1.835   1.200  0.00  0.00     0.030 H 
ATOM     19  H12 <0> d           4.591   0.896  -0.099  0.00  0.00     0.030 H 
ATOM     20  H13 <0> d           3.798   2.446  -0.472  0.00  0.00     0.030 H 
ENDBRANCH  14  17
ENDBRANCH  13  14
ENDBRANCH   1  13
BRANCH   1  21
ATOM     21  O2  <0> d          -0.422   1.079  -1.185  0.00  0.00    -0.362 OA
BRANCH  21  22
ATOM     22  C7  <0> d           0.220   0.158  -2.069  0.00  0.00     0.019 C 
ATOM     23  H14 <0> d           1.262   0.448  -2.201  0.00  0.00     0.073 H 
ATOM     24  H15 <0> d           0.172  -0.845  -1.645  0.00  0.00     0.073 H 
BRANCH  22  25
ATOM     25  C8  <0> d          -0.489   0.172  -3.425  0.00  0.00    -0.056 C 
ATOM     26  H16 <0> d           0.001  -0.530  -4.098  0.00  0.00     0.030 H 
ATOM     27  H17 <0> d          -1.532  -0.117  -3.292  0.00  0.00     0.030 H 
ATOM     28  H18 <0> d          -0.442   1.175  -3.849  0.00  0.00     0.030 H 
ENDBRANCH  22  25
ENDBRANCH  21  22
ENDBRANCH   1  21
TORSDOF 9
