REMARK  3 active torsions:
REMARK  status: ('A' for Active; 'I' for Inactive)
REMARK    1  A    between atoms: C1_1  and  O1_2 
REMARK    2  A    between atoms: O1_2  and  C2_3 
REMARK    3  A    between atoms: C3_4  and  C7_9 
REMARK       I    between atoms: C7_9  and  N2_11 
ROOT
ATOM      1  C2  <0> d           0.054   3.808   0.021  0.00  0.00     0.179 A 
ATOM      2  C3  <0> d          -1.189   3.156   0.029  0.00  0.00     0.084 A 
ATOM      3  C4  <0> d          -1.217   1.757   0.017  0.00  0.00    -0.062 A 
ATOM      4  C5  <0> d          -0.013   1.076   0.008  0.00  0.00    -0.065 A 
ATOM      5  C6  <0> d           1.172   1.789   0.001  0.00  0.00     0.005 A 
ATOM      6  N1  <0> d           1.175   3.108   0.007  0.00  0.00    -0.236 NA
ATOM      7  H4  <0> d          -2.155   1.222   0.019  0.00  0.00     0.085 H 
ATOM      8  H5  <0> d           0.002  -0.004   0.002  0.00  0.00     0.085 H 
ATOM      9  H6  <0> d           2.112   1.257  -0.011  0.00  0.00     0.114 H 
ENDROOT
BRANCH   1  10
ATOM     10  O1  <0> d           0.104   5.161   0.027  0.00  0.00    -0.339 OA
BRANCH  10  11
ATOM     11  C1  <0> d           1.401   5.762   0.018  0.00  0.00     0.012 C 
ATOM     12  H1  <0> d           1.298   6.847   0.025  0.00  0.00     0.067 H 
ATOM     13  H2  <0> d           1.955   5.444   0.902  0.00  0.00     0.067 H 
ATOM     14  H3  <0> d           1.938   5.453  -0.878  0.00  0.00     0.067 H 
ENDBRANCH  10  11
ENDBRANCH   1  10
BRANCH   2  15
ATOM     15  C7  <0> d          -2.444   3.932   0.044  0.00  0.00     0.253 C 
ATOM     16  O2  <0> d          -2.407   5.148   0.049  0.00  0.00    -0.268 OA
ATOM     17  N2  <0> d          -3.631   3.294   0.051  0.00  0.00    -0.366 N 
ATOM     18  H7  <0> d          -3.660   2.325   0.047  0.00  0.00     0.159 HD
ATOM     19  H8  <0> d          -4.456   3.804   0.061  0.00  0.00     0.159 HD
ENDBRANCH   2  15
TORSDOF 3
