REMARK  4 active torsions:
REMARK  status: ('A' for Active; 'I' for Inactive)
REMARK    1  A    between atoms: C1_1  and  C2_2 
REMARK    2  A    between atoms: C4_4  and  C6_9 
REMARK    3  A    between atoms: C4_4  and  C7_10 
REMARK    4  A    between atoms: C5_6  and  N3_8 
ROOT
ATOM      1  C2  <0> d          -0.018   1.503   0.010  0.00  0.00     0.003 C 
ATOM      2  C3  <0> d          -1.166   2.148   0.019  0.00  0.00    -0.005 C 
ATOM      3  C4  <0> d          -1.219   3.648   0.039  0.00  0.00     0.070 C 
ATOM      4  N1  <0> d           0.062   4.230  -0.343  0.00  0.00    -0.097 NA
ATOM      5  C5  <0> d           1.165   3.548  -0.346  0.00  0.00     0.694 C 
ATOM      6  N2  <0> d           1.177   2.217   0.003  0.00  0.00    -0.198 N 
ATOM      7  H4  <0> d          -1.740   1.887  -0.882  0.00  0.00     0.045 H 
ATOM      8  H5  <0> d           2.118   1.718   0.274  0.00  0.00     0.183 HD
ATOM      9  H14 <0> d          -1.740   1.863   0.914  0.00  0.00     0.045 H 
ENDROOT
BRANCH   3  10
ATOM     10  C6  <0> d          -1.583   4.122   1.448  0.00  0.00    -0.050 C 
ATOM     11  H8  <0> d          -1.623   5.221   1.466  0.00  0.00     0.030 H 
ATOM     12  H9  <0> d          -0.823   3.770   2.161  0.00  0.00     0.030 H 
ATOM     13  H10 <0> d          -2.566   3.715   1.729  0.00  0.00     0.030 H 
ENDBRANCH   3  10
BRANCH   3  14
ATOM     14  C7  <0> d          -2.295   4.119  -0.941  0.00  0.00    -0.050 C 
ATOM     15  H11 <0> d          -2.341   5.218  -0.934  0.00  0.00     0.030 H 
ATOM     16  H12 <0> d          -3.270   3.709  -0.640  0.00  0.00     0.030 H 
ATOM     17  H13 <0> d          -2.047   3.770  -1.954  0.00  0.00     0.030 H 
ENDBRANCH   3  14
BRANCH   1  18
ATOM     18  C1  <0> d           0.002  -0.004   0.002  0.00  0.00    -0.040 C 
ATOM     19  H1  <0> d          -1.030  -0.385   0.010  0.00  0.00     0.035 H 
ATOM     20  H2  <0> d           0.534  -0.368   0.893  0.00  0.00     0.035 H 
ATOM     21  H3  <0> d           0.517  -0.359  -0.903  0.00  0.00     0.035 H 
ENDBRANCH   1  18
BRANCH   5  22
ATOM     22  N3  <0> d           2.341   4.165  -0.705  0.00  0.00    -0.233 N 
ATOM     23  H6  <0> d           3.281   3.594  -0.711  0.00  0.00     0.174 HD
ATOM     24  H7  <0> d           2.341   5.228  -0.986  0.00  0.00     0.174 HD
ENDBRANCH   5  22
TORSDOF 4
