REMARK  7 active torsions:
REMARK  status: ('A' for Active; 'I' for Inactive)
REMARK    1  A    between atoms: C1_1  and  C2_2 
REMARK    2  A    between atoms: C2_2  and  O1_3 
REMARK    3  A    between atoms: O1_3  and  C3_4 
REMARK       I    between atoms: C3_4  and  N1_6 
REMARK    4  A    between atoms: N1_6  and  C4_7 
REMARK    5  A    between atoms: C4_7  and  C5_8 
REMARK    6  A    between atoms: C6_9  and  C7_10 
REMARK    7  A    between atoms: C7_10  and  O3_11 
ROOT
ATOM      1  C3  <0> d          -4.984  -2.376  -2.368  0.00  0.00     0.360 C 
ATOM      2  O2  <0> d          -5.661  -2.805  -1.454  0.00  0.00    -0.239 OA
ATOM      3  N1  <0> d          -3.724  -1.959  -2.135  0.00  0.00    -0.333 N 
ATOM      4  H6  <0> d          -3.184  -1.617  -2.865  0.00  0.00     0.165 HD
ENDROOT
BRANCH   3   5
ATOM      5  C4  <0> d          -3.170  -2.022  -0.781  0.00  0.00     0.012 C 
ATOM      6  H7  <0> d          -3.173  -3.056  -0.435  0.00  0.00     0.070 H 
ATOM      7  H8  <0> d          -3.777  -1.413  -0.111  0.00  0.00     0.070 H 
BRANCH   5   8
ATOM      8  C5  <0> d          -1.756  -1.501  -0.791  0.00  0.00    -0.088 C 
ATOM      9  C6  <0> d          -1.412  -0.526   0.013  0.00  0.00    -0.083 C 
ATOM     10  H10 <0> d          -2.141  -0.096   0.683  0.00  0.00     0.079 H 
ATOM     11  H9  <0> d          -1.027  -1.931  -1.462  0.00  0.00     0.079 H 
BRANCH   9  12
ATOM     12  C7  <0> d           0.002  -0.004   0.002  0.00  0.00     0.032 C 
ATOM     13  H11 <0> d           0.512  -0.356  -0.895  0.00  0.00     0.080 H 
ATOM     14  H12 <0> d           0.529  -0.365   0.885  0.00  0.00     0.080 H 
BRANCH  12  15
ATOM     15  O3  <0> d          -0.017   1.425   0.010  0.00  0.00    -0.397 OA
ATOM     16  H13 <0> d           0.861   1.830   0.004  0.00  0.00     0.209 HD
ENDBRANCH  12  15
ENDBRANCH   9  12
ENDBRANCH   5   8
ENDBRANCH   3   5
BRANCH   1  17
ATOM     17  O1  <0> d          -5.494  -2.318  -3.613  0.00  0.00    -0.304 OA
BRANCH  17  18
ATOM     18  C2  <0> d          -6.857  -2.784  -3.790  0.00  0.00     0.027 C 
ATOM     19  H4  <0> d          -6.925  -3.831  -3.495  0.00  0.00     0.074 H 
ATOM     20  H5  <0> d          -7.528  -2.189  -3.171  0.00  0.00     0.074 H 
BRANCH  18  21
ATOM     21  C1  <0> d          -7.258  -2.642  -5.260  0.00  0.00    -0.056 C 
ATOM     22  H1  <0> d          -7.191  -1.595  -5.555  0.00  0.00     0.030 H 
ATOM     23  H2  <0> d          -6.588  -3.238  -5.879  0.00  0.00     0.030 H 
ATOM     24  H3  <0> d          -8.282  -2.992  -5.393  0.00  0.00     0.030 H 
ENDBRANCH  18  21
ENDBRANCH  17  18
ENDBRANCH   1  17
TORSDOF 7
