REMARK  1 active torsions:
REMARK  status: ('A' for Active; 'I' for Inactive)
REMARK    1  A    between atoms: C4_4  and  N4_11 
ROOT
ATOM      1  C1  <0> d          -0.017   1.383   0.010  0.00  0.00    -0.065 A 
ATOM      2  C2  <0> d           1.166   2.077   0.002  0.00  0.00    -0.064 A 
ATOM      3  C3  <0> d           2.359   1.349  -0.013  0.00  0.00     0.058 A 
ATOM      4  C4  <0> d           3.776   1.711  -0.025  0.00  0.00     0.155 A 
ATOM      5  N1  <0> d           4.465   0.601  -0.037  0.00  0.00    -0.154 NA
ATOM      6  N2  <0> d           3.603  -0.499  -0.035  0.00  0.00    -0.258 N 
ATOM      7  H1  <0> d           3.879  -1.429  -0.043  0.00  0.00     0.191 HD
ATOM      8  C5  <0> d           2.307  -0.060  -0.020  0.00  0.00     0.157 A 
ATOM      9  N3  <0> d           1.132  -0.678  -0.012  0.00  0.00    -0.241 NA
ATOM     10  C6  <0> d           0.002  -0.004   0.002  0.00  0.00     0.004 A 
ATOM     11  H2  <0> d          -0.958   1.913   0.026  0.00  0.00     0.085 H 
ATOM     12  H3  <0> d           1.175   3.157   0.007  0.00  0.00     0.085 H 
ATOM     13  H4  <0> d          -0.933  -0.544   0.008  0.00  0.00     0.114 H 
ENDROOT
BRANCH   4  14
ATOM     14  N4  <0> d           4.298   3.007  -0.023  0.00  0.00    -0.382 N 
ATOM     15  H5  <0> d           3.699   3.770  -0.014  0.00  0.00     0.157 HD
ATOM     16  H6  <0> d           5.258   3.143  -0.032  0.00  0.00     0.157 HD
ENDBRANCH   4  14
TORSDOF 1
