REMARK  7 active torsions:
REMARK  status: ('A' for Active; 'I' for Inactive)
REMARK    1  A    between atoms: C1_1  and  C2_2 
REMARK    2  A    between atoms: C2_2  and  C3_4 
REMARK    3  A    between atoms: C2_2  and  O2_10 
REMARK    4  A    between atoms: C3_4  and  C4_5 
REMARK    5  A    between atoms: C3_4  and  C5_6 
REMARK    6  A    between atoms: C5_6  and  C6_8 
REMARK    7  A    between atoms: C5_6  and  O1_9 
ROOT
ATOM      1  C3  <0> d          -1.467  -0.428  -0.048  0.00  0.00    -0.009 C 
ATOM      2  H6  <0> d          -1.940  -0.098  -0.972  0.00  0.00     0.047 H 
ENDROOT
BRANCH   1   3
ATOM      3  C2  <0> d          -0.009   0.036  -0.025  0.00  0.00     0.037 C 
ATOM      4  H1  <0> d           0.467  -0.305   0.894  0.00  0.00     0.083 H 
BRANCH   3   5
ATOM      5  C1  <0> d           0.731  -0.548  -1.230  0.00  0.00    -0.052 C 
ATOM      6  H3  <0> d           1.732  -0.122  -1.283  0.00  0.00     0.030 H 
ATOM      7  H4  <0> d           0.801  -1.631  -1.123  0.00  0.00     0.030 H 
ATOM      8  H5  <0> d           0.185  -0.308  -2.143  0.00  0.00     0.030 H 
ENDBRANCH   3   5
BRANCH   3   9
ATOM      9  O2  <0> d           0.036   1.463  -0.085  0.00  0.00    -0.396 OA
ATOM     10  H14 <0> d           0.932   1.829  -0.074  0.00  0.00     0.210 HD
ENDBRANCH   3   9
ENDBRANCH   1   3
BRANCH   1  11
ATOM     11  C4  <0> d          -1.517  -1.956   0.033  0.00  0.00    -0.068 C 
ATOM     12  H7  <0> d          -2.555  -2.287   0.017  0.00  0.00     0.028 H 
ATOM     13  H8  <0> d          -0.987  -2.382  -0.818  0.00  0.00     0.028 H 
ATOM     14  H9  <0> d          -1.044  -2.286   0.958  0.00  0.00     0.028 H 
ENDBRANCH   1  11
BRANCH   1  15
ATOM     15  C5  <0> d          -2.211   0.170   1.148  0.00  0.00     0.037 C 
ATOM     16  H2  <0> d          -1.707  -0.117   2.071  0.00  0.00     0.083 H 
BRANCH  15  17
ATOM     17  C6  <0> d          -3.649  -0.354   1.168  0.00  0.00    -0.052 C 
ATOM     18  H10 <0> d          -3.638  -1.441   1.254  0.00  0.00     0.030 H 
ATOM     19  H11 <0> d          -4.179   0.072   2.020  0.00  0.00     0.030 H 
ATOM     20  H12 <0> d          -4.153  -0.068   0.245  0.00  0.00     0.030 H 
ENDBRANCH  15  17
BRANCH  15  21
ATOM     21  O1  <0> d          -2.225   1.594   1.036  0.00  0.00    -0.396 OA
ATOM     22  H13 <0> d          -2.682   2.042   1.761  0.00  0.00     0.210 HD
ENDBRANCH  15  21
ENDBRANCH   1  15
TORSDOF 7
