REMARK  3 active torsions:
REMARK  status: ('A' for Active; 'I' for Inactive)
REMARK    1  A    between atoms: C1_1  and  C2_2 
REMARK    2  A    between atoms: C1_1  and  O1_6 
REMARK    3  A    between atoms: O1_6  and  C3_7 
ROOT
ATOM      1  C1  <0> d          -0.733   1.888   1.268  0.00  0.00     0.115 C 
ATOM      2  H1  <0> d          -0.748   2.978   1.274  0.00  0.00     0.088 H 
ATOM      3  H2  <0> d          -1.756   1.511   1.276  0.00  0.00     0.088 H 
ENDROOT
BRANCH   1   4
ATOM      4  C2  <0> d          -0.017   1.395   0.010  0.00  0.00     0.408 C 
ATOM      5  F1  <0> d           0.002  -0.004   0.002  0.00  0.00    -0.169 F 
ATOM      6  F2  <0> d           1.296   1.879  -0.000  0.00  0.00    -0.169 F 
ATOM      7  F3  <0> d          -0.694   1.858  -1.124  0.00  0.00    -0.169 F 
ENDBRANCH   1   4
BRANCH   1   8
ATOM      8  O1  <0> d          -0.042   1.415   2.426  0.00  0.00    -0.324 OA
BRANCH   8   9
ATOM      9  C3  <0> d          -0.632   1.822   3.662  0.00  0.00     0.306 C 
ATOM     10  F4  <0> d          -0.648   3.219   3.734  0.00  0.00    -0.185 F 
ATOM     11  F5  <0> d          -1.942   1.336   3.736  0.00  0.00    -0.185 F 
ATOM     12  H3  <0> d          -0.049   1.422   4.492  0.00  0.00     0.194 H 
ENDBRANCH   8   9
ENDBRANCH   1   8
TORSDOF 3
