REMARK  1 active torsions:
REMARK  status: ('A' for Active; 'I' for Inactive)
REMARK    1  A    between atoms: C4_5  and  N2_8 
ROOT
ATOM      1  C1  <0> d           1.231  -0.645  -0.013  0.00  0.00    -0.043 A 
ATOM      2  C2  <0> d           2.387   0.112  -0.020  0.00  0.00     0.004 A 
ATOM      3  N1  <0> d           2.335   1.430  -0.013  0.00  0.00    -0.271 NA
ATOM      4  C3  <0> d           1.188   2.080   0.002  0.00  0.00     0.029 A 
ATOM      5  C4  <0> d          -0.017   1.390   0.010  0.00  0.00     0.065 A 
ATOM      6  C5  <0> d           0.002  -0.004   0.002  0.00  0.00     0.063 A 
ATOM      7 Cl1  <0> d          -1.476  -0.914   0.011  0.00  0.00    -0.082 Cl
ATOM      8  H1  <0> d           1.284  -1.724  -0.019  0.00  0.00     0.088 H 
ATOM      9  H2  <0> d           3.348  -0.382  -0.032  0.00  0.00     0.114 H 
ATOM     10  H3  <0> d           1.185   3.160   0.008  0.00  0.00     0.118 H 
ENDROOT
BRANCH   5  11
ATOM     11  N2  <0> d          -1.231   2.083   0.019  0.00  0.00    -0.397 N 
ATOM     12  H4  <0> d          -2.068   1.594   0.021  0.00  0.00     0.156 HD
ATOM     13  H5  <0> d          -1.236   3.053   0.025  0.00  0.00     0.156 HD
ENDBRANCH   5  11
TORSDOF 1
