REMARK  6 active torsions:
REMARK  status: ('A' for Active; 'I' for Inactive)
REMARK    1  A    between atoms: C1_1  and  C2_2 
REMARK    2  A    between atoms: C2_2  and  C3_3 
REMARK    3  A    between atoms: C3_3  and  C4_4 
REMARK    4  A    between atoms: C4_4  and  O2_6 
REMARK    5  A    between atoms: O2_6  and  C5_7 
REMARK    6  A    between atoms: C5_7  and  C6_8 
ROOT
ATOM      1  C3  <0> d          -1.329   1.940   0.019  0.00  0.00     0.015 C 
ATOM      2  H6  <0> d          -1.391   2.561   0.913  0.00  0.00     0.048 H 
ATOM      3  H7  <0> d          -1.400   2.570  -0.867  0.00  0.00     0.048 H 
ENDROOT
BRANCH   1   4
ATOM      4  C2  <0> d          -2.479   0.930   0.019  0.00  0.00    -0.060 C 
ATOM      5  H4  <0> d          -2.417   0.309  -0.875  0.00  0.00     0.033 H 
ATOM      6  H5  <0> d          -2.408   0.299   0.905  0.00  0.00     0.033 H 
BRANCH   4   7
ATOM      7  C1  <0> d          -3.814   1.677   0.029  0.00  0.00    -0.076 C 
ATOM      8  H1  <0> d          -3.876   2.298   0.923  0.00  0.00     0.027 H 
ATOM      9  H2  <0> d          -3.885   2.307  -0.857  0.00  0.00     0.027 H 
ATOM     10  H3  <0> d          -4.633   0.957   0.029  0.00  0.00     0.027 H 
ENDBRANCH   4   7
ENDBRANCH   1   4
BRANCH   1  11
ATOM     11  C4  <0> d          -0.014   1.204   0.009  0.00  0.00     0.258 C 
ATOM     12  O1  <0> d           0.002  -0.004   0.002  0.00  0.00    -0.265 OA
BRANCH  11  13
ATOM     13  O2  <0> d           1.139   1.891   0.001  0.00  0.00    -0.322 OA
BRANCH  13  14
ATOM     14  C5  <0> d           2.367   1.117  -0.015  0.00  0.00     0.025 C 
ATOM     15  H8  <0> d           2.409   0.484   0.872  0.00  0.00     0.074 H 
ATOM     16  H9  <0> d           2.392   0.493  -0.908  0.00  0.00     0.074 H 
BRANCH  14  17
ATOM     17  C6  <0> d           3.568   2.065  -0.021  0.00  0.00    -0.056 C 
ATOM     18  H10 <0> d           3.526   2.698  -0.907  0.00  0.00     0.030 H 
ATOM     19  H11 <0> d           3.543   2.689   0.873  0.00  0.00     0.030 H 
ATOM     20  H12 <0> d           4.490   1.484  -0.033  0.00  0.00     0.030 H 
ENDBRANCH  14  17
ENDBRANCH  13  14
ENDBRANCH  11  13
ENDBRANCH   1  11
TORSDOF 6
