REMARK  3 active torsions:
REMARK  status: ('A' for Active; 'I' for Inactive)
REMARK    1  A    between atoms: C1_1  and  O1_2 
REMARK    2  A    between atoms: O1_2  and  C2_3 
REMARK    3  A    between atoms: C2_3  and  C3_5 
ROOT
ATOM      1  C2  <0> d          -0.017   1.395   0.010  0.00  0.00     0.264 C 
ATOM      2  H1  <0> d           1.006   1.772   0.002  0.00  0.00     0.151 H 
ATOM      3  F4  <0> d           0.002  -0.004   0.002  0.00  0.00    -0.210 F 
ENDROOT
BRANCH   1   4
ATOM      4  O1  <0> d          -0.708   1.868  -1.148  0.00  0.00    -0.355 OA
BRANCH   4   5
ATOM      5  C1  <0> d          -0.118   1.461  -2.384  0.00  0.00     0.008 C 
ATOM      6  H2  <0> d           0.903   1.840  -2.442  0.00  0.00     0.066 H 
ATOM      7  H3  <0> d          -0.105   0.373  -2.440  0.00  0.00     0.066 H 
ATOM      8  H4  <0> d          -0.701   1.861  -3.214  0.00  0.00     0.066 H 
ENDBRANCH   4   5
ENDBRANCH   1   4
BRANCH   1   9
ATOM      9  C3  <0> d          -0.733   1.888   1.268  0.00  0.00     0.442 C 
ATOM     10  F1  <0> d          -2.046   1.404   1.278  0.00  0.00    -0.166 F 
ATOM     11  F2  <0> d          -0.056   1.425   2.402  0.00  0.00    -0.166 F 
ATOM     12  F3  <0> d          -0.752   3.287   1.276  0.00  0.00    -0.166 F 
ENDBRANCH   1   9
TORSDOF 3
