REMARK  3 active torsions:
REMARK  status: ('A' for Active; 'I' for Inactive)
REMARK    1  A    between atoms: C3_3  and  C7_8 
REMARK    2  A    between atoms: C5_5  and  O1_7 
REMARK    3  A    between atoms: C7_8  and  C8_9 
REMARK       I    between atoms: C8_9  and  N1_11 
ROOT
ATOM      1  C1  <0> d          -0.017   1.377   0.010  0.00  0.00    -0.080 A 
ATOM      2  C2  <0> d           1.171   2.086   0.002  0.00  0.00    -0.076 A 
ATOM      3  C3  <0> d           2.379   1.415  -0.013  0.00  0.00    -0.047 A 
ATOM      4  C4  <0> d           2.403   0.033  -0.021  0.00  0.00    -0.044 A 
ATOM      5  C5  <0> d           1.214  -0.680  -0.013  0.00  0.00     0.066 A 
ATOM      6  C6  <0> d           0.002  -0.004   0.002  0.00  0.00    -0.051 A 
ATOM      7  H1  <0> d          -0.959   1.904   0.026  0.00  0.00     0.083 H 
ATOM      8  H2  <0> d           1.154   3.166   0.008  0.00  0.00     0.084 H 
ATOM      9  H3  <0> d           3.348  -0.491  -0.034  0.00  0.00     0.088 H 
ATOM     10  H4  <0> d          -0.925  -0.557   0.008  0.00  0.00     0.087 H 
ENDROOT
BRANCH   3  11
ATOM     11  C7  <0> d           3.671   2.190  -0.021  0.00  0.00     0.033 C 
ATOM     12  H6  <0> d           4.436   1.617  -0.545  0.00  0.00     0.054 H 
ATOM     13  H7  <0> d           3.520   3.143  -0.528  0.00  0.00     0.054 H 
BRANCH  11  14
ATOM     14  C8  <0> d           4.115   2.441   1.397  0.00  0.00     0.219 C 
ATOM     15  O2  <0> d           3.449   2.030   2.323  0.00  0.00    -0.273 OA
ATOM     16  N1  <0> d           5.254   3.122   1.636  0.00  0.00    -0.370 N 
ATOM     17  H8  <0> d           5.787   3.450   0.895  0.00  0.00     0.159 HD
ATOM     18  H9  <0> d           5.540   3.283   2.549  0.00  0.00     0.159 HD
ENDBRANCH  11  14
ENDBRANCH   3  11
BRANCH   5  19
ATOM     19  O1  <0> d           1.235  -2.039  -0.021  0.00  0.00    -0.361 OA
ATOM     20  H5  <0> d           1.249  -2.437   0.860  0.00  0.00     0.217 HD
ENDBRANCH   5  19
TORSDOF 3
