REMARK  5 active torsions:
REMARK  status: ('A' for Active; 'I' for Inactive)
REMARK    1  A    between atoms: C1_1  and  C2_2 
REMARK    2  A    between atoms: C2_2  and  C3_3 
REMARK    3  A    between atoms: C4_4  and  O1_5 
REMARK    4  A    between atoms: O1_5  and  C5_6 
REMARK    5  A    between atoms: C5_6  and  C6_7 
ROOT
ATOM      1  C3  <0> d          -0.013   1.076   0.008  0.00  0.00    -0.082 C 
ATOM      2  C4  <0> d           1.119   1.750   0.001  0.00  0.00     0.009 C 
ATOM      3  H6  <0> d           0.002  -0.004   0.002  0.00  0.00     0.079 H 
ATOM      4  H7  <0> d           1.104   2.830   0.007  0.00  0.00     0.122 H 
ENDROOT
BRANCH   2   5
ATOM      5  O1  <0> d           2.303   1.087  -0.014  0.00  0.00    -0.364 OA
BRANCH   5   6
ATOM      6  C5  <0> d           3.491   1.882  -0.021  0.00  0.00     0.022 C 
ATOM      7  H8  <0> d           3.498   2.516  -0.908  0.00  0.00     0.074 H 
ATOM      8  H9  <0> d           3.515   2.506   0.872  0.00  0.00     0.074 H 
BRANCH   6   9
ATOM      9  C6  <0> d           4.716   0.967  -0.038  0.00  0.00    -0.056 C 
ATOM     10  H10 <0> d           4.709   0.333   0.849  0.00  0.00     0.030 H 
ATOM     11  H11 <0> d           4.692   0.342  -0.931  0.00  0.00     0.030 H 
ATOM     12  H12 <0> d           5.622   1.573  -0.043  0.00  0.00     0.030 H 
ENDBRANCH   6   9
ENDBRANCH   5   6
ENDBRANCH   2   5
BRANCH   1  13
ATOM     13  C2  <0> d          -1.328   1.812   0.018  0.00  0.00    -0.051 C 
ATOM     14  H4  <0> d          -1.853   1.605   0.951  0.00  0.00     0.038 H 
ATOM     15  H5  <0> d          -1.145   2.883  -0.066  0.00  0.00     0.038 H 
BRANCH  13  16
ATOM     16  C1  <0> d          -2.182   1.345  -1.162  0.00  0.00    -0.073 C 
ATOM     17  H1  <0> d          -1.658   1.552  -2.095  0.00  0.00     0.027 H 
ATOM     18  H2  <0> d          -2.365   0.274  -1.077  0.00  0.00     0.027 H 
ATOM     19  H3  <0> d          -3.134   1.877  -1.155  0.00  0.00     0.027 H 
ENDBRANCH  13  16
ENDBRANCH   1  13
TORSDOF 5
