REMARK  2 active torsions:
REMARK  status: ('A' for Active; 'I' for Inactive)
REMARK    1  A    between atoms: C3_3  and  O1_10 
REMARK    2  A    between atoms: C6_6  and  N1_7 
ROOT
ATOM      1  C1  <0> d          -1.250   3.039   0.030  0.00  0.00    -0.055 A 
ATOM      2  C2  <0> d          -2.450   3.722   0.034  0.00  0.00    -0.047 A 
ATOM      3  C3  <0> d          -3.648   3.025   0.036  0.00  0.00     0.086 A 
ATOM      4  C4  <0> d          -3.639   1.623   0.028  0.00  0.00     0.079 A 
ATOM      5  C5  <0> d          -2.421   0.939   0.019  0.00  0.00    -0.035 A 
ATOM      6  C6  <0> d          -1.232   1.649   0.017  0.00  0.00     0.027 A 
ATOM      7  C7  <0> d          -4.873   0.896   0.030  0.00  0.00     0.102 C 
ATOM      8  N2  <0> d          -5.851   0.319   0.031  0.00  0.00    -0.191 NA
ATOM      9  H1  <0> d          -0.320   3.588   0.034  0.00  0.00     0.087 H 
ATOM     10  H2  <0> d          -2.456   4.802   0.040  0.00  0.00     0.087 H 
ATOM     11  H3  <0> d          -2.407  -0.141   0.013  0.00  0.00     0.089 H 
ENDROOT
BRANCH   3  12
ATOM     12  O1  <0> d          -4.827   3.698   0.045  0.00  0.00    -0.359 OA
ATOM     13  H6  <0> d          -5.165   3.888   0.930  0.00  0.00     0.217 HD
ENDBRANCH   3  12
BRANCH   6  14
ATOM     14  N1  <0> d          -0.011   0.966   0.007  0.00  0.00    -0.399 N 
ATOM     15  H4  <0> d           0.002  -0.004   0.002  0.00  0.00     0.156 HD
ATOM     16  H5  <0> d           0.822   1.462   0.002  0.00  0.00     0.156 HD
ENDBRANCH   6  14
TORSDOF 2
