REMARK  8 active torsions:
REMARK  status: ('A' for Active; 'I' for Inactive)
REMARK    1  A    between atoms: C1_1  and  C2_2 
REMARK    2  A    between atoms: C2_2  and  C3_3 
REMARK    3  A    between atoms: C3_3  and  C4_4 
REMARK    4  A    between atoms: C3_3  and  C6_6 
REMARK    5  A    between atoms: C4_4  and  C5_5 
REMARK    6  A    between atoms: C6_6  and  O1_7 
REMARK    7  A    between atoms: O1_7  and  C7_8 
REMARK    8  A    between atoms: C7_8  and  C8_10 
ROOT
ATOM      1  C3  <0> d          -0.278   0.884  -0.009  0.00  0.00    -0.034 C 
ATOM      2  H6  <0> d          -0.581  -0.158  -0.111  0.00  0.00     0.043 H 
ENDROOT
BRANCH   1   3
ATOM      3  C2  <0> d          -0.566   1.628  -1.315  0.00  0.00    -0.063 C 
ATOM      4  H4  <0> d          -1.643   1.678  -1.475  0.00  0.00     0.033 H 
ATOM      5  H5  <0> d          -0.161   2.638  -1.254  0.00  0.00     0.033 H 
BRANCH   3   6
ATOM      6  C1  <0> d           0.089   0.885  -2.481  0.00  0.00    -0.076 C 
ATOM      7  H1  <0> d           1.174   0.963  -2.398  0.00  0.00     0.027 H 
ATOM      8  H2  <0> d          -0.202  -0.165  -2.452  0.00  0.00     0.027 H 
ATOM      9  H3  <0> d          -0.236   1.327  -3.422  0.00  0.00     0.027 H 
ENDBRANCH   3   6
ENDBRANCH   1   3
BRANCH   1  10
ATOM     10  C4  <0> d          -1.063   1.534   1.132  0.00  0.00    -0.063 C 
ATOM     11  H7  <0> d          -0.791   1.061   2.076  0.00  0.00     0.033 H 
ATOM     12  H8  <0> d          -0.826   2.597   1.176  0.00  0.00     0.033 H 
BRANCH  10  13
ATOM     13  C5  <0> d          -2.562   1.355   0.886  0.00  0.00    -0.076 C 
ATOM     14  H9  <0> d          -2.835   1.828  -0.058  0.00  0.00     0.027 H 
ATOM     15  H10 <0> d          -2.799   0.292   0.842  0.00  0.00     0.027 H 
ATOM     16  H11 <0> d          -3.122   1.818   1.699  0.00  0.00     0.027 H 
ENDBRANCH  10  13
ENDBRANCH   1  10
BRANCH   1  17
ATOM     17  C6  <0> d           1.219   0.953   0.298  0.00  0.00     0.032 C 
ATOM     18  H12 <0> d           1.545   1.993   0.286  0.00  0.00     0.075 H 
ATOM     19  H13 <0> d           1.409   0.524   1.282  0.00  0.00     0.075 H 
BRANCH  17  20
ATOM     20  O1  <0> d           1.954   0.204  -0.706  0.00  0.00    -0.321 OA
BRANCH  20  21
ATOM     21  C7  <0> d           3.290   0.165  -0.580  0.00  0.00     0.254 C 
ATOM     22  O2  <0> d           3.827   0.737   0.338  0.00  0.00    -0.266 OA
BRANCH  21  23
ATOM     23  C8  <0> d           4.119  -0.594  -1.584  0.00  0.00     0.004 C 
ATOM     24  H14 <0> d           3.465  -1.041  -2.333  0.00  0.00     0.041 H 
ATOM     25  H15 <0> d           4.815   0.089  -2.071  0.00  0.00     0.041 H 
ATOM     26  H16 <0> d           4.678  -1.379  -1.075  0.00  0.00     0.041 H 
ENDBRANCH  21  23
ENDBRANCH  20  21
ENDBRANCH  17  20
ENDBRANCH   1  17
TORSDOF 8
