REMARK  8 active torsions:
REMARK  status: ('A' for Active; 'I' for Inactive)
REMARK    1  A    between atoms: C1_1  and  C2_2 
REMARK    2  A    between atoms: C2_2  and  C3_3 
REMARK    3  A    between atoms: C3_3  and  C4_5 
REMARK    4  A    between atoms: C3_3  and  O2_10 
REMARK    5  A    between atoms: C4_5  and  C5_6 
REMARK    6  A    between atoms: C5_6  and  O1_7 
REMARK    7  A    between atoms: O1_7  and  C6_8 
REMARK    8  A    between atoms: C6_8  and  C7_9 
ROOT
ATOM      1  C4  <0> d           0.079   1.179   2.503  0.00  0.00    -0.021 C 
ATOM      2  H7  <0> d           0.097   0.092   2.589  0.00  0.00     0.040 H 
ATOM      3  H8  <0> d           1.098   1.553   2.408  0.00  0.00     0.040 H 
ENDROOT
BRANCH   1   4
ATOM      4  C3  <0> d          -0.729   1.579   1.267  0.00  0.00     0.037 C 
ATOM      5  H1  <0> d          -0.822   2.665   1.230  0.00  0.00     0.083 H 
BRANCH   4   6
ATOM      6  C2  <0> d          -0.013   1.086   0.008  0.00  0.00    -0.044 C 
ATOM      7  H5  <0> d           0.002  -0.004   0.002  0.00  0.00     0.036 H 
ATOM      8  H6  <0> d           1.010   1.463   0.000  0.00  0.00     0.036 H 
BRANCH   6   9
ATOM      9  C1  <0> d          -0.753   1.593  -1.232  0.00  0.00    -0.074 C 
ATOM     10  H2  <0> d          -0.767   2.683  -1.226  0.00  0.00     0.027 H 
ATOM     11  H3  <0> d          -0.242   1.241  -2.128  0.00  0.00     0.027 H 
ATOM     12  H4  <0> d          -1.775   1.215  -1.224  0.00  0.00     0.027 H 
ENDBRANCH   6   9
ENDBRANCH   4   6
BRANCH   4  13
ATOM     13  O2  <0> d          -2.030   0.991   1.336  0.00  0.00    -0.396 OA
ATOM     14  H16 <0> d          -2.023   0.025   1.372  0.00  0.00     0.210 HD
ENDBRANCH   4  13
ENDBRANCH   1   4
BRANCH   1  15
ATOM     15  C5  <0> d          -0.570   1.778   3.752  0.00  0.00     0.022 C 
ATOM     16  H9  <0> d          -0.588   2.864   3.667  0.00  0.00     0.074 H 
ATOM     17  H10 <0> d          -1.590   1.404   3.847  0.00  0.00     0.074 H 
BRANCH  15  18
ATOM     18  O1  <0> d           0.184   1.404   4.907  0.00  0.00    -0.391 OA
BRANCH  18  19
ATOM     19  C6  <0> d          -0.340   1.915   6.134  0.00  0.00     0.016 C 
ATOM     20  H11 <0> d          -0.354   3.004   6.098  0.00  0.00     0.073 H 
ATOM     21  H12 <0> d          -1.355   1.544   6.279  0.00  0.00     0.073 H 
BRANCH  19  22
ATOM     22  C7  <0> d           0.542   1.454   7.297  0.00  0.00    -0.056 C 
ATOM     23  H13 <0> d           0.555   0.365   7.333  0.00  0.00     0.030 H 
ATOM     24  H14 <0> d           1.556   1.825   7.152  0.00  0.00     0.030 H 
ATOM     25  H15 <0> d           0.142   1.844   8.233  0.00  0.00     0.030 H 
ENDBRANCH  19  22
ENDBRANCH  18  19
ENDBRANCH  15  18
ENDBRANCH   1  15
TORSDOF 8
