REMARK  4 active torsions:
REMARK  status: ('A' for Active; 'I' for Inactive)
REMARK    1  A    between atoms: C1_1  and  C2_2 
REMARK    2  A    between atoms: C2_2  and  C3_4 
REMARK    3  A    between atoms: C2_2  and  C5_7 
REMARK    4  A    between atoms: C3_4  and  C4_5 
ROOT
ATOM      1  C5  <0> d          -1.587   2.797   0.638  0.00  0.00     0.042 C 
ATOM      2  H2  <0> d          -0.959   3.686   0.572  0.00  0.00     0.083 H 
ATOM      3  C6  <0> d          -0.788   1.610   1.241  0.00  0.00    -0.039 C 
ATOM      4  C7  <0> d          -0.013   1.086   0.008  0.00  0.00    -0.043 C 
ATOM      5  C8  <0> d          -0.808   1.621  -1.198  0.00  0.00     0.020 C 
ATOM      6  O2  <0> d          -1.946   2.329  -0.680  0.00  0.00    -0.385 OA
ATOM      7  H8  <0> d          -1.462   0.847   1.631  0.00  0.00     0.036 H 
ATOM      8  H9  <0> d          -0.102   1.954   2.015  0.00  0.00     0.036 H 
ATOM      9  H10 <0> d           0.002  -0.004   0.002  0.00  0.00     0.036 H 
ATOM     10  H11 <0> d           1.003   1.480   0.000  0.00  0.00     0.036 H 
ATOM     11  H12 <0> d          -0.185   2.299  -1.782  0.00  0.00     0.074 H 
ATOM     12  H13 <0> d          -1.140   0.791  -1.821  0.00  0.00     0.074 H 
ENDROOT
BRANCH   1  13
ATOM     13  C2  <0> d          -2.840   3.082   1.469  0.00  0.00    -0.023 C 
ATOM     14  H1  <0> d          -3.439   2.174   1.545  0.00  0.00     0.044 H 
BRANCH  13  15
ATOM     15  C1  <0> d          -2.429   3.541   2.870  0.00  0.00    -0.070 C 
ATOM     16  H3  <0> d          -1.830   4.448   2.794  0.00  0.00     0.028 H 
ATOM     17  H4  <0> d          -3.322   3.743   3.462  0.00  0.00     0.028 H 
ATOM     18  H5  <0> d          -1.844   2.758   3.352  0.00  0.00     0.028 H 
ENDBRANCH  13  15
BRANCH  13  19
ATOM     19  C3  <0> d          -3.662   4.181   0.793  0.00  0.00     0.021 C 
ATOM     20  H6  <0> d          -3.096   5.112   0.796  0.00  0.00     0.049 H 
ATOM     21  H7  <0> d          -3.879   3.891  -0.236  0.00  0.00     0.049 H 
BRANCH  19  22
ATOM     22  C4  <0> d          -4.954   4.375   1.543  0.00  0.00     0.172 C 
ATOM     23  O1  <0> d          -5.193   3.704   2.519  0.00  0.00    -0.648 OA
ATOM     24  O3  <0> d          -5.840   5.294   1.127  0.00  0.00    -0.648 OA
ENDBRANCH  19  22
ENDBRANCH  13  19
ENDBRANCH   1  13
TORSDOF 4
