REMARK  3 active torsions:
REMARK  status: ('A' for Active; 'I' for Inactive)
REMARK    1  A    between atoms: C1_1  and  C2_2 
REMARK       I    between atoms: C2_2  and  N1_4 
REMARK    2  A    between atoms: N1_4  and  C3_5 
REMARK    3  A    between atoms: C3_5  and  C4_6 
ROOT
ATOM      1  C2  <0> d          -0.014   1.209   0.009  0.00  0.00     0.214 C 
ATOM      2  O1  <0> d           0.002  -0.004   0.002  0.00  0.00    -0.274 OA
ATOM      3  N1  <0> d           1.143   1.898   0.001  0.00  0.00    -0.351 N 
ATOM      4  H4  <0> d           1.130   2.868   0.007  0.00  0.00     0.163 HD
ENDROOT
BRANCH   3   5
ATOM      5  C3  <0> d           2.422   1.183  -0.015  0.00  0.00     0.075 C 
ATOM      6  H5  <0> d           2.497   0.553   0.871  0.00  0.00     0.080 H 
ATOM      7  H6  <0> d           2.480   0.562  -0.909  0.00  0.00     0.080 H 
BRANCH   5   8
ATOM      8  C4  <0> d           3.554   2.178  -0.020  0.00  0.00     0.191 C 
ATOM      9  O2  <0> d           3.317   3.363  -0.012  0.00  0.00    -0.647 OA
ATOM     10  O3  <0> d           4.825   1.748  -0.035  0.00  0.00    -0.647 OA
ENDBRANCH   5   8
ENDBRANCH   3   5
BRANCH   1  11
ATOM     11  C1  <0> d          -1.330   1.944   0.019  0.00  0.00    -0.003 C 
ATOM     12  H1  <0> d          -1.642   2.116   1.049  0.00  0.00     0.040 H 
ATOM     13  H2  <0> d          -1.215   2.901  -0.490  0.00  0.00     0.040 H 
ATOM     14  H3  <0> d          -2.084   1.348  -0.495  0.00  0.00     0.040 H 
ENDBRANCH   1  11
TORSDOF 3
