REMARK  4 active torsions:
REMARK  status: ('A' for Active; 'I' for Inactive)
REMARK    1  A    between atoms: C1_1  and  C2_2 
REMARK    2  A    between atoms: C2_2  and  C3_3 
REMARK    3  A    between atoms: C2_2  and  C4_4 
REMARK    4  A    between atoms: C2_2  and  C5_5 
ROOT
ATOM      1  C5  <0> d          -0.760   1.596   1.257  0.00  0.00    -0.041 C 
ATOM      2  H1  <0> d          -1.453   0.839   1.625  0.00  0.00     0.041 H 
ATOM      3  C6  <0> d          -1.535   2.837   0.741  0.00  0.00    -0.054 C 
ATOM      4  C7  <0> d          -1.956   2.396  -0.683  0.00  0.00    -0.009 C 
ATOM      5  C8  <0> d          -0.770   1.600  -1.199  0.00  0.00     0.127 C 
ATOM      6  O1  <0> d          -0.484   1.412  -2.357  0.00  0.00    -0.298 OA
ATOM      7  C9  <0> d          -0.013   1.086   0.008  0.00  0.00    -0.006 C 
ATOM      8  H11 <0> d          -0.883   3.710   0.700  0.00  0.00     0.034 H 
ATOM      9  H12 <0> d          -2.410   3.036   1.360  0.00  0.00     0.034 H 
ATOM     10  H13 <0> d          -2.145   3.204  -1.240  0.00  0.00     0.044 H 
ATOM     11  H14 <0> d          -2.846   1.768  -0.639  0.00  0.00     0.044 H 
ATOM     12  H15 <0> d           0.010   0.086   0.018  0.00  0.00     0.044 H 
ATOM     13  H16 <0> d           1.007   1.472   0.000  0.00  0.00     0.044 H 
ENDROOT
BRANCH   1  14
ATOM     14  C2  <0> d           0.231   1.997   2.351  0.00  0.00    -0.047 C 
BRANCH  14  15
ATOM     15  C1  <0> d           1.167   3.084   1.818  0.00  0.00    -0.069 C 
ATOM     16  H2  <0> d           0.581   3.954   1.522  0.00  0.00     0.028 H 
ATOM     17  H3  <0> d           1.873   3.370   2.597  0.00  0.00     0.028 H 
ATOM     18  H4  <0> d           1.712   2.703   0.955  0.00  0.00     0.028 H 
ENDBRANCH  14  15
BRANCH  14  19
ATOM     19  C3  <0> d          -0.535   2.532   3.563  0.00  0.00    -0.069 C 
ATOM     20  H5  <0> d          -1.201   1.758   3.942  0.00  0.00     0.028 H 
ATOM     21  H6  <0> d           0.172   2.818   4.342  0.00  0.00     0.028 H 
ATOM     22  H7  <0> d          -1.120   3.403   3.267  0.00  0.00     0.028 H 
ENDBRANCH  14  19
BRANCH  14  23
ATOM     23  C4  <0> d           1.054   0.775   2.767  0.00  0.00    -0.069 C 
ATOM     24  H8  <0> d           1.599   0.394   1.903  0.00  0.00     0.028 H 
ATOM     25  H9  <0> d           1.760   1.061   3.546  0.00  0.00     0.028 H 
ATOM     26  H10 <0> d           0.387   0.001   3.146  0.00  0.00     0.028 H 
ENDBRANCH  14  23
ENDBRANCH   1  14
TORSDOF 4
