REMARK  5 active torsions:
REMARK  status: ('A' for Active; 'I' for Inactive)
REMARK    1  A    between atoms: C1_1  and  C2_2 
REMARK    2  A    between atoms: C2_2  and  C3_3 
REMARK    3  A    between atoms: C3_3  and  C4_4 
REMARK    4  A    between atoms: C5_5  and  C6_6 
REMARK    5  A    between atoms: C6_6  and  O1_7 
ROOT
ATOM      1  C3  <0> d          -3.170  -2.022  -0.781  0.00  0.00    -0.050 C 
ATOM      2  H6  <0> d          -3.173  -3.056  -0.435  0.00  0.00     0.038 H 
ATOM      3  H7  <0> d          -3.777  -1.413  -0.111  0.00  0.00     0.038 H 
ENDROOT
BRANCH   1   4
ATOM      4  C2  <0> d          -3.749  -1.956  -2.196  0.00  0.00    -0.066 C 
ATOM      5  H4  <0> d          -3.745  -0.923  -2.542  0.00  0.00     0.032 H 
ATOM      6  H5  <0> d          -3.142  -2.566  -2.865  0.00  0.00     0.032 H 
BRANCH   4   7
ATOM      7  C1  <0> d          -5.184  -2.486  -2.185  0.00  0.00    -0.076 C 
ATOM      8  H1  <0> d          -5.596  -2.439  -3.193  0.00  0.00     0.027 H 
ATOM      9  H2  <0> d          -5.188  -3.519  -1.839  0.00  0.00     0.027 H 
ATOM     10  H3  <0> d          -5.791  -1.877  -1.515  0.00  0.00     0.027 H 
ENDBRANCH   4   7
ENDBRANCH   1   4
BRANCH   1  11
ATOM     11  C4  <0> d          -1.756  -1.501  -0.791  0.00  0.00    -0.105 C 
ATOM     12  C5  <0> d          -1.412  -0.526   0.013  0.00  0.00    -0.084 C 
ATOM     13  H9  <0> d          -2.141  -0.096   0.683  0.00  0.00     0.079 H 
ATOM     14  H8  <0> d          -1.027  -1.931  -1.462  0.00  0.00     0.076 H 
BRANCH  12  15
ATOM     15  C6  <0> d           0.002  -0.004   0.002  0.00  0.00     0.032 C 
ATOM     16  H10 <0> d           0.512  -0.356  -0.895  0.00  0.00     0.080 H 
ATOM     17  H11 <0> d           0.529  -0.365   0.885  0.00  0.00     0.080 H 
BRANCH  15  18
ATOM     18  O1  <0> d          -0.017   1.425   0.010  0.00  0.00    -0.397 OA
ATOM     19  H12 <0> d           0.861   1.830   0.004  0.00  0.00     0.209 HD
ENDBRANCH  15  18
ENDBRANCH  12  15
ENDBRANCH   1  11
TORSDOF 5
