REMARK  3 active torsions:
REMARK  status: ('A' for Active; 'I' for Inactive)
REMARK    1  A    between atoms: C1_1  and  C2_2 
REMARK    2  A    between atoms: C2_2  and  C3_4 
REMARK    3  A    between atoms: C5_6  and  C6_9 
ROOT
ATOM      1  C3  <0> d           1.054   1.937   0.002  0.00  0.00     0.149 A 
ATOM      2  C4  <0> d          -0.013   1.076   0.008  0.00  0.00    -0.008 A 
ATOM      3  C5  <0> d          -1.142   1.938   0.017  0.00  0.00     0.163 A 
ATOM      4  N1  <0> d          -0.673   3.161   0.025  0.00  0.00    -0.121 NA
ATOM      5  O2  <0> d           0.535   3.180   0.014  0.00  0.00    -0.209 OA
ATOM      6  H4  <0> d           0.002  -0.004   0.002  0.00  0.00     0.092 H 
ENDROOT
BRANCH   1   7
ATOM      7  C2  <0> d           2.476   1.576  -0.014  0.00  0.00     0.181 C 
ATOM      8  O1  <0> d           2.805   0.409  -0.024  0.00  0.00    -0.291 OA
BRANCH   7   9
ATOM      9  C1  <0> d           3.527   2.656  -0.018  0.00  0.00    -0.015 C 
ATOM     10  H1  <0> d           3.769   2.889   0.924  0.00  0.00     0.038 H 
ATOM     11  H2  <0> d           4.413   2.298  -0.543  0.00  0.00     0.038 H 
ATOM     12  H3  <0> d           3.138   3.540  -0.523  0.00  0.00     0.038 H 
ENDBRANCH   7   9
ENDBRANCH   1   7
BRANCH   3  13
ATOM     13  C6  <0> d          -2.568   1.534   0.020  0.00  0.00     0.231 C 
ATOM     14  O3  <0> d          -2.866   0.356   0.014  0.00  0.00    -0.643 OA
ATOM     15  O4  <0> d          -3.534   2.472   0.029  0.00  0.00    -0.643 OA
ENDBRANCH   3  13
TORSDOF 3
