REMARK  0 active torsions:
REMARK  status: ('A' for Active; 'I' for Inactive)
ROOT
ATOM      1  C1  <0> d           2.420   0.042  -0.020  0.00  0.00    -0.052 A 
ATOM      2  C2  <0> d           2.386   1.420  -0.012  0.00  0.00    -0.040 A 
ATOM      3  C3  <0> d           1.172   2.095   0.002  0.00  0.00     0.157 A 
ATOM      4  C4  <0> d          -0.017   1.395   0.010  0.00  0.00     0.185 A 
ATOM      5  C5  <0> d           0.002  -0.004   0.002  0.00  0.00     0.126 A 
ATOM      6  C6  <0> d           1.234  -0.679  -0.013  0.00  0.00     0.065 A 
ATOM      7  N1  <0> d           0.929  -2.027  -0.018  0.00  0.00    -0.349 N 
ATOM      8  H1  <0> d           1.584  -2.782  -0.029  0.00  0.00     0.167 HD
ATOM      9  C7  <0> d          -0.427  -2.135  -0.006  0.00  0.00     0.065 A 
ATOM     10  N2  <0> d          -0.970  -0.953   0.006  0.00  0.00    -0.239 NA
ATOM     11  F1  <0> d          -1.194   2.057   0.019  0.00  0.00    -0.200 F 
ATOM     12  F2  <0> d           1.155   3.446   0.009  0.00  0.00    -0.203 F 
ATOM     13  H2  <0> d           3.368  -0.476  -0.032  0.00  0.00     0.087 H 
ATOM     14  H3  <0> d           3.311   1.979  -0.018  0.00  0.00     0.088 H 
ATOM     15  H4  <0> d          -0.973  -3.067  -0.006  0.00  0.00     0.143 H 
ENDROOT
TORSDOF 0
