REMARK  1 active torsions:
REMARK  status: ('A' for Active; 'I' for Inactive)
REMARK    1  A    between atoms: C1_1  and  C2_2 
ROOT
ATOM      1  C2  <0> d           0.002  -0.004   0.002  0.00  0.00     0.080 A 
ATOM      2  C3  <0> d           0.008  -0.812  -1.152  0.00  0.00     0.056 A 
ATOM      3  N1  <0> d           0.027  -2.063  -0.803  0.00  0.00    -0.116 NA
ATOM      4  O1  <0> d           0.035  -2.108   0.615  0.00  0.00    -0.107 OA
ATOM      5  N2  <0> d           0.023  -0.761   1.058  0.00  0.00    -0.109 NA
ATOM      6  H4  <0> d          -0.003  -0.448  -2.169  0.00  0.00     0.121 H 
ENDROOT
BRANCH   1   7
ATOM      7  C1  <0> d          -0.018   1.503   0.010  0.00  0.00    -0.032 C 
ATOM      8  H1  <0> d           1.004   1.880   0.003  0.00  0.00     0.035 H 
ATOM      9  H2  <0> d          -0.545   1.864  -0.873  0.00  0.00     0.035 H 
ATOM     10  H3  <0> d          -0.529   1.854   0.907  0.00  0.00     0.035 H 
ENDBRANCH   1   7
TORSDOF 1
