REMARK  6 active torsions:
REMARK  status: ('A' for Active; 'I' for Inactive)
REMARK    1  A    between atoms: C1_1  and  C2_2 
REMARK    2  A    between atoms: C2_2  and  C3_3 
REMARK    3  A    between atoms: C3_3  and  C4_5 
REMARK    4  A    between atoms: C3_3  and  C5_6 
REMARK    5  A    between atoms: C5_6  and  C6_7 
REMARK    6  A    between atoms: C6_7  and  O1_8 
ROOT
ATOM      1  C3  <0> d           2.534   3.726  -0.002  0.00  0.00    -0.056 C 
ATOM      2  H1  <0> d           3.119   3.339   0.832  0.00  0.00     0.039 H 
ENDROOT
BRANCH   1   3
ATOM      3  C2  <0> d           2.396   5.244   0.133  0.00  0.00    -0.065 C 
ATOM      4  H5  <0> d           1.888   5.643  -0.745  0.00  0.00     0.033 H 
ATOM      5  H6  <0> d           1.816   5.478   1.026  0.00  0.00     0.033 H 
BRANCH   3   6
ATOM      6  C1  <0> d           3.785   5.874   0.249  0.00  0.00    -0.076 C 
ATOM      7  H2  <0> d           4.293   5.476   1.127  0.00  0.00     0.027 H 
ATOM      8  H3  <0> d           4.366   5.640  -0.644  0.00  0.00     0.027 H 
ATOM      9  H4  <0> d           3.687   6.956   0.345  0.00  0.00     0.027 H 
ENDBRANCH   3   6
ENDBRANCH   1   3
BRANCH   1  10
ATOM     10  C4  <0> d           3.240   3.394  -1.318  0.00  0.00    -0.073 C 
ATOM     11  H7  <0> d           2.655   3.781  -2.152  0.00  0.00     0.028 H 
ATOM     12  H8  <0> d           4.230   3.851  -1.325  0.00  0.00     0.028 H 
ATOM     13  H9  <0> d           3.338   2.312  -1.414  0.00  0.00     0.028 H 
ENDBRANCH   1  10
BRANCH   1  14
ATOM     14  C5  <0> d           1.145   3.085   0.008  0.00  0.00    -0.042 C 
ATOM     15  H10 <0> d           0.591   3.404  -0.875  0.00  0.00     0.036 H 
ATOM     16  H11 <0> d           0.608   3.395   0.904  0.00  0.00     0.036 H 
BRANCH  14  17
ATOM     17  C6  <0> d           1.286   1.562  -0.002  0.00  0.00     0.017 C 
ATOM     18  H12 <0> d           1.840   1.243   0.881  0.00  0.00     0.073 H 
ATOM     19  H13 <0> d           1.823   1.252  -0.899  0.00  0.00     0.073 H 
BRANCH  17  20
ATOM     20  O1  <0> d          -0.011   0.963   0.007  0.00  0.00    -0.401 OA
ATOM     21  H14 <0> d           0.002  -0.004   0.002  0.00  0.00     0.209 HD
ENDBRANCH  17  20
ENDBRANCH  14  17
ENDBRANCH   1  14
TORSDOF 6
