REMARK  4 active torsions:
REMARK  status: ('A' for Active; 'I' for Inactive)
REMARK    1  A    between atoms: C1_1  and  O1_2 
REMARK    2  A    between atoms: O1_2  and  C2_3 
REMARK    3  A    between atoms: C2_3  and  C3_4 
REMARK    4  A    between atoms: C3_4  and  C8_9 
REMARK       I    between atoms: C8_9  and  N1_11 
ROOT
ATOM      1  C3  <0> d           0.633  -2.108   1.011  0.00  0.00     0.062 C 
ATOM      2  C4  <0> d          -0.828  -2.602   1.059  0.00  0.00    -0.048 C 
ATOM      3  C5  <0> d          -0.755  -3.923   1.866  0.00  0.00    -0.064 C 
ATOM      4  C6  <0> d           0.304  -3.603   2.949  0.00  0.00    -0.064 C 
ATOM      5  C7  <0> d           1.353  -2.744   2.212  0.00  0.00    -0.048 C 
ATOM      6  H6  <0> d          -1.459  -1.877   1.572  0.00  0.00     0.035 H 
ATOM      7  H7  <0> d          -1.200  -2.790   0.052  0.00  0.00     0.035 H 
ATOM      8  H8  <0> d          -1.718  -4.150   2.322  0.00  0.00     0.033 H 
ATOM      9  H9  <0> d          -0.423  -4.745   1.231  0.00  0.00     0.033 H 
ATOM     10  H10 <0> d          -0.144  -3.040   3.767  0.00  0.00     0.033 H 
ATOM     11  H11 <0> d           0.758  -4.522   3.322  0.00  0.00     0.033 H 
ATOM     12  H12 <0> d           2.174  -3.372   1.866  0.00  0.00     0.035 H 
ATOM     13  H13 <0> d           1.731  -1.966   2.876  0.00  0.00     0.035 H 
ENDROOT
BRANCH   1  14
ATOM     14  C2  <0> d           0.673  -0.582   1.123  0.00  0.00     0.034 C 
ATOM     15  H4  <0> d           1.710  -0.247   1.139  0.00  0.00     0.076 H 
ATOM     16  H5  <0> d           0.177  -0.273   2.043  0.00  0.00     0.076 H 
BRANCH  14  17
ATOM     17  O1  <0> d           0.002  -0.004   0.002  0.00  0.00    -0.395 OA
BRANCH  17  18
ATOM     18  C1  <0> d          -0.017   1.425   0.010  0.00  0.00     0.004 C 
ATOM     19  H1  <0> d           1.005   1.802   0.002  0.00  0.00     0.066 H 
ATOM     20  H2  <0> d          -0.544   1.786  -0.873  0.00  0.00     0.066 H 
ATOM     21  H3  <0> d          -0.527   1.776   0.907  0.00  0.00     0.066 H 
ENDBRANCH  17  18
ENDBRANCH  14  17
ENDBRANCH   1  14
BRANCH   1  22
ATOM     22  C8  <0> d           1.285  -2.548  -0.274  0.00  0.00     0.226 C 
ATOM     23  O2  <0> d           2.245  -3.289  -0.244  0.00  0.00    -0.273 OA
ATOM     24  N1  <0> d           0.803  -2.118  -1.457  0.00  0.00    -0.369 N 
ATOM     25  H14 <0> d           0.036  -1.525  -1.481  0.00  0.00     0.159 HD
ATOM     26  H15 <0> d           1.223  -2.401  -2.284  0.00  0.00     0.159 HD
ENDBRANCH   1  22
TORSDOF 4
