REMARK  2 active torsions:
REMARK  status: ('A' for Active; 'I' for Inactive)
REMARK    1  A    between atoms: C8_8  and  C10_10 
REMARK    2  A    between atoms: C10_10  and  O1_11 
ROOT
ATOM      1  C1  <0> d           1.937   5.034  -1.787  0.00  0.00    -0.082 A 
ATOM      2  C2  <0> d           0.777   5.022  -2.540  0.00  0.00    -0.082 A 
ATOM      3  C3  <0> d          -0.097   3.957  -2.443  0.00  0.00    -0.076 A 
ATOM      4  C4  <0> d           0.185   2.900  -1.594  0.00  0.00    -0.051 A 
ATOM      5  C5  <0> d           1.344   2.911  -0.842  0.00  0.00    -0.051 A 
ATOM      6  C6  <0> d           2.219   3.981  -0.940  0.00  0.00    -0.076 A 
ATOM      7  C7  <0> d           1.422   1.654  -0.003  0.00  0.00    -0.035 C 
ATOM      8  C8  <0> d          -0.013   1.086   0.008  0.00  0.00    -0.026 C 
ATOM      9  C9  <0> d          -0.596   1.634  -1.312  0.00  0.00    -0.035 C 
ATOM     10  H1  <0> d           2.621   5.866  -1.863  0.00  0.00     0.083 H 
ATOM     11  H2  <0> d           0.554   5.846  -3.203  0.00  0.00     0.083 H 
ATOM     12  H3  <0> d          -1.003   3.949  -3.031  0.00  0.00     0.084 H 
ATOM     13  H4  <0> d           3.125   3.990  -0.353  0.00  0.00     0.084 H 
ATOM     14  H5  <0> d           1.741   1.895   1.011  0.00  0.00     0.040 H 
ATOM     15  H6  <0> d           2.109   0.939  -0.456  0.00  0.00     0.040 H 
ATOM     16  H7  <0> d           0.002  -0.004   0.002  0.00  0.00     0.044 H 
ATOM     17  H8  <0> d          -0.452   0.913  -2.117  0.00  0.00     0.040 H 
ATOM     18  H9  <0> d          -1.655   1.862  -1.192  0.00  0.00     0.040 H 
ENDROOT
BRANCH   8  19
ATOM     19  C10 <0> d          -0.796   1.610   1.213  0.00  0.00     0.021 C 
ATOM     20  H10 <0> d          -0.272   1.345   2.131  0.00  0.00     0.074 H 
ATOM     21  H11 <0> d          -0.885   2.694   1.145  0.00  0.00     0.074 H 
BRANCH  19  22
ATOM     22  O1  <0> d          -2.100   1.026   1.224  0.00  0.00    -0.400 OA
ATOM     23  H12 <0> d          -2.654   1.314   1.963  0.00  0.00     0.209 HD
ENDBRANCH  19  22
ENDBRANCH   8  19
TORSDOF 2
