REMARK  5 active torsions:
REMARK  status: ('A' for Active; 'I' for Inactive)
REMARK    1  A    between atoms: C1_1  and  C2_2 
REMARK    2  A    between atoms: C2_2  and  C3_3 
REMARK    3  A    between atoms: C3_3  and  N1_4 
REMARK    4  A    between atoms: C5_6  and  C9_13 
REMARK    5  A    between atoms: C6_9  and  C8_12 
ROOT
ATOM      1  N1  <0> d           0.738  -1.966  -1.265  0.00  0.00     0.093 N 
ATOM      2  C4  <0> d           1.569  -2.488  -0.170  0.00  0.00     0.137 C 
ATOM      3  C5  <0> d           1.514  -4.018  -0.179  0.00  0.00     0.061 C 
ATOM      4  H1  <0> d           2.212  -4.449   0.553  0.00  0.00     0.085 H 
ATOM      5  O1  <0> d           1.939  -4.498  -1.458  0.00  0.00    -0.378 OA
ATOM      6  C6  <0> d           1.151  -4.010  -2.547  0.00  0.00     0.061 C 
ATOM      7  H2  <0> d           0.129  -4.375  -2.369  0.00  0.00     0.085 H 
ATOM      8  C7  <0> d           1.202  -2.480  -2.562  0.00  0.00     0.137 C 
ATOM      9  H10 <0> d           2.609  -2.156  -0.309  0.00  0.00     0.083 H 
ATOM     10  H11 <0> d           1.189  -2.111   0.791  0.00  0.00     0.083 H 
ATOM     11  H12 <0> d           0.552  -2.097  -3.362  0.00  0.00     0.083 H 
ATOM     12  H13 <0> d           2.236  -2.147  -2.739  0.00  0.00     0.083 H 
ENDROOT
BRANCH   1  13
ATOM     13  C3  <0> d           0.718  -0.497  -1.257  0.00  0.00     0.113 C 
ATOM     14  H8  <0> d           0.186  -0.133  -2.148  0.00  0.00     0.079 H 
ATOM     15  H9  <0> d           1.750  -0.117  -1.265  0.00  0.00     0.079 H 
BRANCH  13  16
ATOM     16  C2  <0> d           0.002  -0.004   0.002  0.00  0.00    -0.043 C 
ATOM     17  H6  <0> d           0.534  -0.368   0.893  0.00  0.00     0.035 H 
ATOM     18  H7  <0> d          -1.030  -0.385   0.010  0.00  0.00     0.035 H 
BRANCH  16  19
ATOM     19  C1  <0> d          -0.019   1.526   0.010  0.00  0.00    -0.075 C 
ATOM     20  H3  <0> d          -0.534   1.881   0.915  0.00  0.00     0.027 H 
ATOM     21  H4  <0> d          -0.551   1.890  -0.881  0.00  0.00     0.027 H 
ATOM     22  H5  <0> d           1.013   1.907   0.003  0.00  0.00     0.027 H 
ENDBRANCH  16  19
ENDBRANCH  13  16
ENDBRANCH   1  13
BRANCH   6  23
ATOM     23  C8  <0> d           1.708  -4.553  -3.864  0.00  0.00    -0.051 C 
ATOM     24  H14 <0> d           1.101  -4.177  -4.702  0.00  0.00     0.030 H 
ATOM     25  H15 <0> d           1.674  -5.652  -3.851  0.00  0.00     0.030 H 
ATOM     26  H16 <0> d           2.749  -4.219  -3.987  0.00  0.00     0.030 H 
ENDBRANCH   6  23
BRANCH   3  27
ATOM     27  C9  <0> d           0.081  -4.480   0.089  0.00  0.00    -0.051 C 
ATOM     28  H17 <0> d           0.042  -5.579   0.082  0.00  0.00     0.030 H 
ATOM     29  H18 <0> d          -0.584  -4.085  -0.693  0.00  0.00     0.030 H 
ATOM     30  H19 <0> d          -0.247  -4.108   1.071  0.00  0.00     0.030 H 
ENDBRANCH   3  27
TORSDOF 5
