REMARK  4 active torsions:
REMARK  status: ('A' for Active; 'I' for Inactive)
REMARK    1  A    between atoms: C1_1  and  C2_2 
REMARK    2  A    between atoms: C2_2  and  C3_3 
REMARK    3  A    between atoms: C4_4  and  C7_10 
REMARK    4  A    between atoms: C5_5  and  C6_9 
ROOT
ATOM      1  C3  <0> d          -1.412  -0.526   0.013  0.00  0.00     0.046 A 
ATOM      2  C4  <0> d          -2.222  -0.717  -1.091  0.00  0.00     0.090 A 
ATOM      3  C5  <0> d          -3.458  -1.218  -0.618  0.00  0.00     0.070 A 
ATOM      4  N1  <0> d          -3.382  -1.316   0.680  0.00  0.00    -0.179 NA
ATOM      5  N2  <0> d          -2.114  -0.895   1.094  0.00  0.00    -0.281 N 
ATOM      6  H1  <0> d          -1.796  -0.873   2.010  0.00  0.00     0.189 HD
ENDROOT
BRANCH   1   7
ATOM      7  C2  <0> d           0.002  -0.004   0.002  0.00  0.00    -0.028 C 
ATOM      8  H5  <0> d           0.512  -0.356  -0.895  0.00  0.00     0.041 H 
ATOM      9  H6  <0> d           0.529  -0.365   0.885  0.00  0.00     0.041 H 
BRANCH   7  10
ATOM     10  C1  <0> d          -0.019   1.526   0.010  0.00  0.00    -0.071 C 
ATOM     11  H2  <0> d           1.004   1.903   0.003  0.00  0.00     0.028 H 
ATOM     12  H3  <0> d          -0.546   1.887  -0.873  0.00  0.00     0.028 H 
ATOM     13  H4  <0> d          -0.529   1.877   0.907  0.00  0.00     0.028 H 
ENDBRANCH   7  10
ENDBRANCH   1   7
BRANCH   2  14
ATOM     14  C7  <0> d          -1.867  -0.450  -2.493  0.00  0.00     0.213 C 
ATOM     15  O1  <0> d          -0.758  -0.014  -2.770  0.00  0.00    -0.644 OA
ATOM     16  O2  <0> d          -2.680  -0.663  -3.381  0.00  0.00    -0.644 OA
ENDBRANCH   2  14
BRANCH   3  17
ATOM     17  C6  <0> d          -4.652  -1.575  -1.466  0.00  0.00    -0.033 C 
ATOM     18  H7  <0> d          -4.586  -2.622  -1.763  0.00  0.00     0.035 H 
ATOM     19  H8  <0> d          -5.565  -1.417  -0.892  0.00  0.00     0.035 H 
ATOM     20  H9  <0> d          -4.668  -0.945  -2.355  0.00  0.00     0.035 H 
ENDBRANCH   3  17
TORSDOF 4
