REMARK  3 active torsions:
REMARK  status: ('A' for Active; 'I' for Inactive)
REMARK    1  A    between atoms: C4_4  and  C7_7 
REMARK    2  A    between atoms: C7_7  and  C8_8 
REMARK    3  A    between atoms: C8_8  and  C9_9 
ROOT
ATOM      1  C9  <0> d          -0.112   7.395  -1.400  0.00  0.00     0.015 C 
ATOM      2  C10 <0> d          -0.132   7.893  -2.785  0.00  0.00     0.059 C 
ATOM      3  N1  <0> d          -0.147   8.277  -3.854  0.00  0.00    -0.197 NA
ATOM      4  H10 <0> d          -1.002   7.743  -0.876  0.00  0.00     0.054 H 
ATOM      5  H11 <0> d           0.778   7.767  -0.893  0.00  0.00     0.054 H 
ENDROOT
BRANCH   1   6
ATOM      6  C8  <0> d          -0.091   5.865  -1.409  0.00  0.00    -0.050 C 
ATOM      7  H8  <0> d           0.799   5.516  -1.933  0.00  0.00     0.034 H 
ATOM      8  H9  <0> d          -0.981   5.492  -1.916  0.00  0.00     0.034 H 
BRANCH   6   9
ATOM      9  C7  <0> d          -0.070   5.347   0.031  0.00  0.00    -0.040 C 
ATOM     10  H6  <0> d          -0.960   5.696   0.555  0.00  0.00     0.040 H 
ATOM     11  H7  <0> d           0.819   5.720   0.538  0.00  0.00     0.040 H 
BRANCH   9  12
ATOM     12  C4  <0> d          -0.050   3.840   0.023  0.00  0.00    -0.058 A 
ATOM     13  C3  <0> d          -1.238   3.133   0.030  0.00  0.00    -0.077 A 
ATOM     14  C2  <0> d          -1.219   1.751   0.017  0.00  0.00    -0.082 A 
ATOM     15  H3  <0> d          -2.180   3.660   0.041  0.00  0.00     0.084 H 
ATOM     16  C1  <0> d          -0.013   1.076   0.008  0.00  0.00    -0.083 A 
ATOM     17  H2  <0> d          -2.147   1.198   0.019  0.00  0.00     0.083 H 
ATOM     18  C6  <0> d           1.175   1.783   0.000  0.00  0.00    -0.082 A 
ATOM     19  H1  <0> d           0.002  -0.004   0.002  0.00  0.00     0.083 H 
ATOM     20  C5  <0> d           1.156   3.165   0.008  0.00  0.00    -0.077 A 
ATOM     21  H5  <0> d           2.118   1.256  -0.011  0.00  0.00     0.083 H 
ATOM     22  H4  <0> d           2.084   3.718   0.002  0.00  0.00     0.084 H 
ENDBRANCH   9  12
ENDBRANCH   6   9
ENDBRANCH   1   6
TORSDOF 3
