REMARK  1 active torsions:
REMARK  status: ('A' for Active; 'I' for Inactive)
REMARK    1  A    between atoms: C3_3  and  N1_4 
ROOT
ATOM      1  N1  <0> d          -0.392  -0.681  -1.241  0.00  0.00     0.097 N 
ATOM      2  C4  <0> d          -1.738  -0.266  -1.663  0.00  0.00     0.133 C 
ATOM      3  C5  <0> d          -2.084  -0.947  -2.989  0.00  0.00     0.044 C 
ATOM      4  O1  <0> d          -1.979  -2.365  -2.833  0.00  0.00    -0.388 OA
ATOM      5  C6  <0> d          -0.681  -2.804  -2.423  0.00  0.00     0.044 C 
ATOM      6  C7  <0> d          -0.321  -2.142  -1.091  0.00  0.00     0.133 C 
ATOM      7  H6  <0> d          -2.463  -0.557  -0.904  0.00  0.00     0.083 H 
ATOM      8  H7  <0> d          -1.761   0.816  -1.793  0.00  0.00     0.083 H 
ATOM      9  H8  <0> d          -3.102  -0.687  -3.277  0.00  0.00     0.077 H 
ATOM     10  H9  <0> d          -1.390  -0.614  -3.761  0.00  0.00     0.077 H 
ATOM     11  H10 <0> d          -0.685  -3.888  -2.301  0.00  0.00     0.077 H 
ATOM     12  H11 <0> d           0.053  -2.525  -3.178  0.00  0.00     0.077 H 
ATOM     13  H12 <0> d           0.691  -2.429  -0.803  0.00  0.00     0.083 H 
ATOM     14  H13 <0> d          -1.024  -2.463  -0.322  0.00  0.00     0.083 H 
ENDROOT
BRANCH   1  15
ATOM     15  C3  <0> d           0.002  -0.004   0.002  0.00  0.00     0.135 A 
ATOM     16  C1  <0> d          -0.019   1.526   0.010  0.00  0.00    -0.034 A 
ATOM     17  C2  <0> d           1.317   0.779  -0.006  0.00  0.00    -0.034 A 
ATOM     18  H1  <0> d          -0.307   2.020   0.938  0.00  0.00     0.036 H 
ATOM     19  H2  <0> d          -0.325   2.030  -0.906  0.00  0.00     0.036 H 
ATOM     20  H3  <0> d           1.889   0.792  -0.934  0.00  0.00     0.036 H 
ATOM     21  H4  <0> d           1.906   0.782   0.910  0.00  0.00     0.036 H 
ATOM     22  H5  <0> d          -0.273  -0.516   0.924  0.00  0.00     0.088 H 
ENDBRANCH   1  15
TORSDOF 1
