REMARK  0 active torsions:
REMARK  status: ('A' for Active; 'I' for Inactive)
ROOT
ATOM      1  C1  <0> d           2.133   1.365  -1.127  0.00  0.00     0.040 C 
ATOM      2  C2  <0> d           1.297   1.980   0.000  0.00  0.00     0.049 C 
ATOM      3  O1  <0> d          -0.016   1.348   0.009  0.00  0.00    -0.318 OA
ATOM      4  C3  <0> d           0.002  -0.004   0.002  0.00  0.00     0.282 C 
ATOM      5  O2  <0> d          -0.679  -0.643   0.769  0.00  0.00    -0.263 OA
ATOM      6  C4  <0> d           0.905  -0.688  -1.001  0.00  0.00     0.099 C 
ATOM      7  O3  <0> d           2.190  -0.054  -0.956  0.00  0.00    -0.379 OA
ATOM      8  H1  <0> d           3.142   1.776  -1.096  0.00  0.00     0.077 H 
ATOM      9  H2  <0> d           1.675   1.598  -2.088  0.00  0.00     0.077 H 
ATOM     10  H3  <0> d           1.186   3.050  -0.169  0.00  0.00     0.078 H 
ATOM     11  H4  <0> d           1.791   1.808   0.957  0.00  0.00     0.078 H 
ATOM     12  H5  <0> d           1.007  -1.743  -0.745  0.00  0.00     0.089 H 
ATOM     13  H6  <0> d           0.483  -0.591  -2.002  0.00  0.00     0.089 H 
ENDROOT
TORSDOF 0
