REMARK  1 active torsions:
REMARK  status: ('A' for Active; 'I' for Inactive)
REMARK    1  A    between atoms: C1_1  and  C2_2 
ROOT
ATOM      1  C2  <0> d          -0.109   4.105   0.024  0.00  0.00     0.048 A 
ATOM      2  C3  <0> d           1.102   3.429   0.009  0.00  0.00     0.027 A 
ATOM      3  N1  <0> d           1.125   2.111   0.003  0.00  0.00    -0.246 NA
ATOM      4  C4  <0> d          -0.017   1.428   0.010  0.00  0.00     0.153 A 
ATOM      5  C5  <0> d          -1.234   2.111   0.019  0.00  0.00     0.041 A 
ATOM      6  N2  <0> d          -1.246   3.432   0.031  0.00  0.00    -0.261 NA
ATOM      7  C6  <0> d           0.002  -0.004   0.002  0.00  0.00     0.121 C 
ATOM      8  N3  <0> d           0.018  -1.140  -0.004  0.00  0.00    -0.190 NA
ATOM      9  H4  <0> d           2.029   3.984   0.003  0.00  0.00     0.117 H 
ATOM     10  H5  <0> d          -2.164   1.562   0.021  0.00  0.00     0.119 H 
ENDROOT
BRANCH   1  11
ATOM     11  C1  <0> d          -0.128   5.612   0.032  0.00  0.00    -0.034 C 
ATOM     12  H1  <0> d          -0.142   5.980  -0.994  0.00  0.00     0.035 H 
ATOM     13  H2  <0> d          -1.018   5.961   0.555  0.00  0.00     0.035 H 
ATOM     14  H3  <0> d           0.762   5.984   0.539  0.00  0.00     0.035 H 
ENDBRANCH   1  11
TORSDOF 1
