REMARK  2 active torsions:
REMARK  status: ('A' for Active; 'I' for Inactive)
REMARK    1  A    between atoms: C2_2  and  C3_3 
REMARK    2  A    between atoms: C3_3  and  C4_4 
ROOT
ATOM      1  C3  <0> d          -1.293  -0.775   0.010  0.00  0.00     0.356 C 
ATOM      2  F4  <0> d          -1.345  -1.587   1.149  0.00  0.00    -0.192 F 
ATOM      3  F5  <0> d          -2.368   0.119   0.025  0.00  0.00    -0.192 F 
ENDROOT
BRANCH   1   4
ATOM      4  C2  <0> d           0.002  -0.004   0.002  0.00  0.00    -0.035 C 
ATOM      5  C1  <0> d          -0.016   1.306   0.009  0.00  0.00    -0.119 C 
ATOM      6  H1  <0> d           0.912   1.859   0.003  0.00  0.00     0.066 H 
ATOM      7  H2  <0> d          -0.958   1.833   0.017  0.00  0.00     0.066 H 
ATOM      8  H3  <0> d           0.945  -0.531  -0.010  0.00  0.00     0.085 H 
ENDBRANCH   1   4
BRANCH   1   9
ATOM      9  C4  <0> d          -1.374  -1.649  -1.243  0.00  0.00     0.458 C 
ATOM     10  F1  <0> d          -0.298  -2.544  -1.258  0.00  0.00    -0.165 F 
ATOM     11  F2  <0> d          -2.576  -2.365  -1.235  0.00  0.00    -0.165 F 
ATOM     12  F3  <0> d          -1.321  -0.838  -2.381  0.00  0.00    -0.165 F 
ENDBRANCH   1   9
TORSDOF 2
