REMARK  2 active torsions:
REMARK  status: ('A' for Active; 'I' for Inactive)
REMARK    1  A    between atoms: C4_4  and  N1_10 
REMARK    2  A    between atoms: C5_5  and  C7_7 
ROOT
ATOM      1  C1  <0> d           1.150   3.593   0.010  0.00  0.00    -0.082 A 
ATOM      2  C2  <0> d          -0.055   4.272   0.025  0.00  0.00    -0.081 A 
ATOM      3  C3  <0> d          -1.244   3.571   0.032  0.00  0.00    -0.057 A 
ATOM      4  C4  <0> d          -1.230   2.182   0.020  0.00  0.00     0.032 A 
ATOM      5  C5  <0> d          -0.018   1.503   0.010  0.00  0.00    -0.028 A 
ATOM      6  C6  <0> d           1.168   2.210   0.003  0.00  0.00    -0.074 A 
ATOM      7  H1  <0> d           2.079   4.144   0.005  0.00  0.00     0.083 H 
ATOM      8  H2  <0> d          -0.065   5.352   0.030  0.00  0.00     0.083 H 
ATOM      9  H3  <0> d          -2.185   4.102   0.043  0.00  0.00     0.086 H 
ATOM     10  H4  <0> d           2.110   1.683  -0.009  0.00  0.00     0.084 H 
ENDROOT
BRANCH   5  11
ATOM     11  C7  <0> d           0.002  -0.004   0.002  0.00  0.00    -0.026 A 
ATOM     12  C9  <0> d           0.679  -0.695  -1.183  0.00  0.00    -0.057 A 
ATOM     13  C8  <0> d           1.355  -0.693   0.189  0.00  0.00    -0.057 A 
ATOM     14  H8  <0> d           0.249  -1.634  -1.532  0.00  0.00     0.034 H 
ATOM     15  H9  <0> d           1.109  -0.059  -1.958  0.00  0.00     0.034 H 
ATOM     16  H6  <0> d           2.231  -0.057   0.318  0.00  0.00     0.034 H 
ATOM     17  H7  <0> d           1.370  -1.631   0.744  0.00  0.00     0.034 H 
ATOM     18  H5  <0> d          -0.874  -0.488   0.434  0.00  0.00     0.047 H 
ENDBRANCH   5  11
BRANCH   4  19
ATOM     19  N1  <0> d          -2.431   1.469   0.022  0.00  0.00    -0.399 N 
ATOM     20  H10 <0> d          -2.420   0.499   0.017  0.00  0.00     0.156 HD
ATOM     21  H11 <0> d          -3.277   1.944   0.029  0.00  0.00     0.156 HD
ENDBRANCH   4  19
TORSDOF 2
