REMARK  2 active torsions:
REMARK  status: ('A' for Active; 'I' for Inactive)
REMARK    1  A    between atoms: C1_1  and  C2_2 
REMARK    2  A    between atoms: C4_4  and  C6_10 
ROOT
ATOM      1  C2  <0> d           0.002  -0.004   0.002  0.00  0.00     0.011 A 
ATOM      2  C3  <0> d           0.023  -0.699   1.171  0.00  0.00    -0.038 A 
ATOM      3  C4  <0> d           0.041  -2.096   1.131  0.00  0.00     0.038 A 
ATOM      4  N1  <0> d           0.039  -2.719  -0.030  0.00  0.00    -0.199 NA
ATOM      5  C5  <0> d           0.019  -2.031  -1.174  0.00  0.00     0.346 A 
ATOM      6  O1  <0> d           0.017  -2.632  -2.236  0.00  0.00    -0.245 OA
ATOM      7  N2  <0> d          -0.005  -0.685  -1.173  0.00  0.00    -0.311 N 
ATOM      8  H1  <0> d          -0.024  -0.201  -2.014  0.00  0.00     0.170 HD
ATOM      9  H5  <0> d           0.024  -0.178   2.118  0.00  0.00     0.089 H 
ENDROOT
BRANCH   1  10
ATOM     10  C1  <0> d          -0.018   1.503   0.010  0.00  0.00    -0.037 C 
ATOM     11  H2  <0> d           1.004   1.880   0.003  0.00  0.00     0.035 H 
ATOM     12  H3  <0> d          -0.545   1.864  -0.873  0.00  0.00     0.035 H 
ATOM     13  H4  <0> d          -0.529   1.854   0.907  0.00  0.00     0.035 H 
ENDBRANCH   1  10
BRANCH   3  14
ATOM     14  C6  <0> d           0.065  -2.888   2.413  0.00  0.00    -0.035 C 
ATOM     15  H6  <0> d          -0.957  -3.093   2.732  0.00  0.00     0.035 H 
ATOM     16  H7  <0> d           0.590  -3.829   2.249  0.00  0.00     0.035 H 
ATOM     17  H8  <0> d           0.578  -2.315   3.185  0.00  0.00     0.035 H 
ENDBRANCH   3  14
TORSDOF 2
