REMARK  8 active torsions:
REMARK  status: ('A' for Active; 'I' for Inactive)
REMARK    1  A    between atoms: C1_1  and  C2_2 
REMARK    2  A    between atoms: C2_2  and  C3_3 
REMARK    3  A    between atoms: C3_3  and  C4_4 
REMARK    4  A    between atoms: C4_4  and  C5_5 
REMARK    5  A    between atoms: C5_5  and  C6_7 
REMARK    6  A    between atoms: C6_7  and  C7_8 
REMARK    7  A    between atoms: C7_8  and  C8_9 
REMARK    8  A    between atoms: C8_9  and  C9_10 
ROOT
ATOM      1  C5  <0> d          -0.014   1.203   0.009  0.00  0.00     0.127 C 
ATOM      2  O1  <0> d           0.002  -0.004   0.002  0.00  0.00    -0.298 OA
ENDROOT
BRANCH   1   3
ATOM      3  C4  <0> d           1.280   1.975   0.000  0.00  0.00    -0.010 C 
ATOM      4  H8  <0> d           1.318   2.554  -0.813  0.00  0.00     0.044 H 
ATOM      5  H9  <0> d           1.338   2.597   0.893  0.00  0.00     0.044 H 
BRANCH   3   6
ATOM      6  C3  <0> d           2.457   0.996  -0.016  0.00  0.00    -0.059 C 
ATOM      7  H6  <0> d           2.416   0.364   0.871  0.00  0.00     0.033 H 
ATOM      8  H7  <0> d           2.399   0.374  -0.909  0.00  0.00     0.033 H 
BRANCH   6   9
ATOM      9  C2  <0> d           3.771   1.779  -0.024  0.00  0.00    -0.068 C 
ATOM     10  H4  <0> d           3.812   2.411  -0.911  0.00  0.00     0.032 H 
ATOM     11  H5  <0> d           3.829   2.402   0.868  0.00  0.00     0.032 H 
BRANCH   9  12
ATOM     12  C1  <0> d           4.947   0.801  -0.041  0.00  0.00    -0.077 C 
ATOM     13  H1  <0> d           4.907   0.169   0.846  0.00  0.00     0.027 H 
ATOM     14  H2  <0> d           4.890   0.178  -0.934  0.00  0.00     0.027 H 
ATOM     15  H3  <0> d           5.884   1.359  -0.047  0.00  0.00     0.027 H 
ENDBRANCH   9  12
ENDBRANCH   6   9
ENDBRANCH   3   6
ENDBRANCH   1   3
BRANCH   1  16
ATOM     16  C6  <0> d          -1.329   1.939   0.019  0.00  0.00    -0.010 C 
ATOM     17  H10 <0> d          -1.386   2.509   0.839  0.00  0.00     0.044 H 
ATOM     18  H11 <0> d          -1.400   2.570  -0.867  0.00  0.00     0.044 H 
BRANCH  16  19
ATOM     19  C7  <0> d          -2.479   0.929   0.019  0.00  0.00    -0.059 C 
ATOM     20  H12 <0> d          -2.417   0.308  -0.875  0.00  0.00     0.033 H 
ATOM     21  H13 <0> d          -2.408   0.298   0.905  0.00  0.00     0.033 H 
BRANCH  19  22
ATOM     22  C8  <0> d          -3.814   1.676   0.029  0.00  0.00    -0.068 C 
ATOM     23  H14 <0> d          -3.876   2.297   0.923  0.00  0.00     0.032 H 
ATOM     24  H15 <0> d          -3.885   2.307  -0.857  0.00  0.00     0.032 H 
BRANCH  22  25
ATOM     25  C9  <0> d          -4.963   0.666   0.029  0.00  0.00    -0.077 C 
ATOM     26  H16 <0> d          -4.901   0.045  -0.865  0.00  0.00     0.027 H 
ATOM     27  H17 <0> d          -4.893   0.035   0.915  0.00  0.00     0.027 H 
ATOM     28  H18 <0> d          -5.915   1.198   0.037  0.00  0.00     0.027 H 
ENDBRANCH  22  25
ENDBRANCH  19  22
ENDBRANCH  16  19
ENDBRANCH   1  16
TORSDOF 8
