REMARK  1 active torsions:
REMARK  status: ('A' for Active; 'I' for Inactive)
REMARK    1  A    between atoms: C4_4  and  N2_7 
ROOT
ATOM      1  C1  <0> d          -0.013   1.076   0.008  0.00  0.00    -0.064 A 
ATOM      2  C2  <0> d          -1.221   1.761   0.017  0.00  0.00    -0.057 A 
ATOM      3  C3  <0> d          -1.195   3.144   0.029  0.00  0.00     0.079 A 
ATOM      4  C4  <0> d           0.034   3.799   0.021  0.00  0.00     0.142 A 
ATOM      5  N1  <0> d           1.164   3.109   0.007  0.00  0.00    -0.242 NA
ATOM      6  C5  <0> d           1.169   1.789   0.001  0.00  0.00     0.004 A 
ATOM      7 Cl1  <0> d          -2.675   4.052   0.047  0.00  0.00    -0.080 Cl
ATOM      8  H1  <0> d           0.002  -0.004   0.002  0.00  0.00     0.085 H 
ATOM      9  H2  <0> d          -2.159   1.226   0.019  0.00  0.00     0.086 H 
ATOM     10  H3  <0> d           2.111   1.260  -0.011  0.00  0.00     0.114 H 
ENDROOT
BRANCH   4  11
ATOM     11  N2  <0> d           0.075   5.189   0.027  0.00  0.00    -0.383 N 
ATOM     12  H4  <0> d           1.044   5.710   0.021  0.00  0.00     0.157 HD
ATOM     13  H5  <0> d          -0.861   5.766   0.038  0.00  0.00     0.157 HD
ENDBRANCH   4  11
TORSDOF 1
