REMARK  5 active torsions:
REMARK  status: ('A' for Active; 'I' for Inactive)
REMARK    1  A    between atoms: C1_1  and  C2_2 
REMARK    2  A    between atoms: C2_2  and  C3_3 
REMARK    3  A    between atoms: C7_7  and  C9_10 
REMARK    4  A    between atoms: C8_8  and  O1_9 
REMARK    5  A    between atoms: C9_10  and  C10_11 
ROOT
ATOM      1  C3  <0> d          -2.143   1.058   1.278  0.00  0.00    -0.025 A 
ATOM      2  C4  <0> d          -3.172   1.840   0.791  0.00  0.00    -0.074 A 
ATOM      3  C5  <0> d          -4.469   1.360   0.796  0.00  0.00    -0.082 A 
ATOM      4  C6  <0> d          -4.740   0.100   1.297  0.00  0.00    -0.074 A 
ATOM      5  C7  <0> d          -3.715  -0.684   1.789  0.00  0.00    -0.025 A 
ATOM      6  C8  <0> d          -2.412  -0.207   1.781  0.00  0.00     0.078 A 
ATOM      7  H6  <0> d          -2.963   2.826   0.403  0.00  0.00     0.084 H 
ATOM      8  H7  <0> d          -5.271   1.972   0.412  0.00  0.00     0.083 H 
ATOM      9  H8  <0> d          -5.754  -0.271   1.303  0.00  0.00     0.084 H 
ENDROOT
BRANCH   1  10
ATOM     10  C2  <0> d          -0.729   1.579   1.267  0.00  0.00    -0.042 C 
ATOM     11  H4  <0> d          -0.202   1.218   2.150  0.00  0.00     0.039 H 
ATOM     12  H5  <0> d          -0.744   2.669   1.273  0.00  0.00     0.039 H 
BRANCH  10  13
ATOM     13  C1  <0> d          -0.013   1.086   0.008  0.00  0.00    -0.073 C 
ATOM     14  H1  <0> d           0.002  -0.004   0.002  0.00  0.00     0.028 H 
ATOM     15  H2  <0> d           1.010   1.463   0.000  0.00  0.00     0.028 H 
ATOM     16  H3  <0> d          -0.540   1.447  -0.875  0.00  0.00     0.028 H 
ENDBRANCH  10  13
ENDBRANCH   1  10
BRANCH   6  17
ATOM     17  O1  <0> d          -1.402  -0.977   2.265  0.00  0.00    -0.360 OA
ATOM     18  H9  <0> d          -1.231  -0.853   3.208  0.00  0.00     0.217 HD
ENDBRANCH   6  17
BRANCH   5  19
ATOM     19  C9  <0> d          -4.012  -2.057   2.336  0.00  0.00    -0.042 C 
ATOM     20  H10 <0> d          -4.927  -2.438   1.884  0.00  0.00     0.039 H 
ATOM     21  H11 <0> d          -3.185  -2.727   2.102  0.00  0.00     0.039 H 
BRANCH  19  22
ATOM     22  C10 <0> d          -4.188  -1.974   3.853  0.00  0.00    -0.073 C 
ATOM     23  H12 <0> d          -3.272  -1.593   4.306  0.00  0.00     0.028 H 
ATOM     24  H13 <0> d          -5.015  -1.304   4.087  0.00  0.00     0.028 H 
ATOM     25  H14 <0> d          -4.402  -2.967   4.249  0.00  0.00     0.028 H 
ENDBRANCH  19  22
ENDBRANCH   5  19
TORSDOF 5
