REMARK  1 active torsions:
REMARK  status: ('A' for Active; 'I' for Inactive)
REMARK    1  A    between atoms: C1_1  and  C2_2 
ROOT
ATOM      1  C2  <0> d          -0.718   1.572   1.248  0.00  0.00    -0.044 A 
ATOM      2  C3  <0> d          -0.010   1.810   2.413  0.00  0.00    -0.068 A 
ATOM      3  C4  <0> d          -0.697   2.258   3.537  0.00  0.00    -0.033 A 
ATOM      4  C5  <0> d          -2.057   2.457   3.457  0.00  0.00     0.040 A 
ATOM      5  N1  <0> d          -2.699   2.215   2.322  0.00  0.00    -0.264 NA
ATOM      6  C6  <0> d          -2.082   1.793   1.240  0.00  0.00     0.008 A 
ATOM      7  C7  <0> d          -2.869   2.951   4.627  0.00  0.00    -0.024 C 
ATOM      8  C8  <0> d          -2.102   2.757   5.933  0.00  0.00    -0.060 C 
ATOM      9  C9  <0> d          -0.705   3.368   5.769  0.00  0.00    -0.061 C 
ATOM     10  C10 <0> d           0.090   2.498   4.797  0.00  0.00    -0.039 C 
ATOM     11  H4  <0> d           1.058   1.650   2.450  0.00  0.00     0.085 H 
ATOM     12  H5  <0> d          -2.648   1.614   0.337  0.00  0.00     0.115 H 
ATOM     13  H6  <0> d          -3.087   4.010   4.491  0.00  0.00     0.042 H 
ATOM     14  H7  <0> d          -3.805   2.395   4.675  0.00  0.00     0.042 H 
ATOM     15  H8  <0> d          -2.628   3.259   6.745  0.00  0.00     0.033 H 
ATOM     16  H9  <0> d          -2.017   1.694   6.154  0.00  0.00     0.033 H 
ATOM     17  H10 <0> d          -0.790   4.379   5.372  0.00  0.00     0.033 H 
ATOM     18  H11 <0> d          -0.200   3.395   6.735  0.00  0.00     0.033 H 
ATOM     19  H12 <0> d           0.312   1.541   5.270  0.00  0.00     0.040 H 
ATOM     20  H13 <0> d           1.025   2.999   4.548  0.00  0.00     0.040 H 
ENDROOT
BRANCH   1  21
ATOM     21  C1  <0> d          -0.013   1.086   0.008  0.00  0.00    -0.050 C 
ATOM     22  H1  <0> d           0.002  -0.004   0.002  0.00  0.00     0.033 H 
ATOM     23  H2  <0> d           1.010   1.463   0.000  0.00  0.00     0.033 H 
ATOM     24  H3  <0> d          -0.540   1.447  -0.875  0.00  0.00     0.033 H 
ENDBRANCH   1  21
TORSDOF 1
