REMARK  2 active torsions:
REMARK  status: ('A' for Active; 'I' for Inactive)
REMARK    1  A    between atoms: C4_4  and  C7_7 
REMARK    2  A    between atoms: C9_10  and  O1_12 
ROOT
ATOM      1  C1  <0> d          -0.017   1.378   0.010  0.00  0.00    -0.083 A 
ATOM      2  C2  <0> d           1.171   2.086   0.002  0.00  0.00    -0.082 A 
ATOM      3  C3  <0> d           2.377   1.411  -0.013  0.00  0.00    -0.076 A 
ATOM      4  C4  <0> d           2.396   0.029  -0.020  0.00  0.00    -0.051 A 
ATOM      5  C5  <0> d           1.208  -0.679  -0.012  0.00  0.00    -0.076 A 
ATOM      6  C6  <0> d           0.002  -0.004   0.002  0.00  0.00    -0.082 A 
ATOM      7  H3  <0> d          -0.959   1.905   0.026  0.00  0.00     0.083 H 
ATOM      8  H4  <0> d           1.156   3.165   0.008  0.00  0.00     0.083 H 
ATOM      9  H5  <0> d           3.305   1.963  -0.020  0.00  0.00     0.084 H 
ATOM     10  H6  <0> d           1.223  -1.759  -0.018  0.00  0.00     0.084 H 
ATOM     11  H7  <0> d          -0.926  -0.557   0.008  0.00  0.00     0.083 H 
ENDROOT
BRANCH   4  12
ATOM     12  C7  <0> d           3.711  -0.707  -0.038  0.00  0.00    -0.001 A 
ATOM     13  H1  <0> d           4.559  -0.165   0.381  0.00  0.00     0.051 H 
ATOM     14  C9  <0> d           3.983  -1.640  -1.219  0.00  0.00     0.043 A 
ATOM     15  C8  <0> d           3.675  -2.224   0.162  0.00  0.00    -0.031 A 
ATOM     16  H2  <0> d           3.211  -1.722  -1.984  0.00  0.00     0.084 H 
ATOM     17  H8  <0> d           4.499  -2.679   0.711  0.00  0.00     0.037 H 
ATOM     18  H9  <0> d           2.700  -2.689   0.305  0.00  0.00     0.037 H 
BRANCH  14  19
ATOM     19  O1  <0> d           5.329  -1.734  -1.690  0.00  0.00    -0.395 OA
ATOM     20  H10 <0> d           5.444  -2.336  -2.437  0.00  0.00     0.210 HD
ENDBRANCH  14  19
ENDBRANCH   4  12
TORSDOF 2
