REMARK  4 active torsions:
REMARK  status: ('A' for Active; 'I' for Inactive)
REMARK    1  A    between atoms: C1_1  and  C2_2 
REMARK    2  A    between atoms: C2_2  and  O1_3 
REMARK    3  A    between atoms: O1_3  and  C3_4 
REMARK    4  A    between atoms: C3_4  and  C4_6 
ROOT
ATOM      1  C4  <0> d           1.448   1.915  -0.002  0.00  0.00     0.053 C 
ATOM      2  H1  <0> d           1.768   2.157  -1.015  0.00  0.00     0.059 H 
ATOM      3  C5  <0> d           2.211   0.674   0.537  0.00  0.00    -0.031 C 
ATOM      4  C6  <0> d           1.358  -0.476  -0.054  0.00  0.00     0.020 C 
ATOM      5  O3  <0> d           0.002  -0.004   0.002  0.00  0.00    -0.390 OA
ATOM      6  C7  <0> d          -0.017   1.428   0.010  0.00  0.00     0.031 C 
ATOM      7  H7  <0> d           2.202   0.650   1.627  0.00  0.00     0.037 H 
ATOM      8  H8  <0> d           3.231   0.643   0.154  0.00  0.00     0.037 H 
ATOM      9  H9  <0> d           1.469  -1.378   0.548  0.00  0.00     0.074 H 
ATOM     10  H10 <0> d           1.648  -0.672  -1.086  0.00  0.00     0.074 H 
ATOM     11  H11 <0> d          -0.536   1.796  -0.875  0.00  0.00     0.075 H 
ATOM     12  H12 <0> d          -0.519   1.786   0.909  0.00  0.00     0.075 H 
ENDROOT
BRANCH   1  13
ATOM     13  C3  <0> d           1.628   3.096   0.917  0.00  0.00     0.265 C 
ATOM     14  O2  <0> d           2.380   3.019   1.860  0.00  0.00    -0.265 OA
BRANCH  13  15
ATOM     15  O1  <0> d           0.953   4.233   0.688  0.00  0.00    -0.322 OA
BRANCH  15  16
ATOM     16  C2  <0> d           1.176   5.330   1.613  0.00  0.00     0.025 C 
ATOM     17  H5  <0> d           0.893   5.019   2.619  0.00  0.00     0.074 H 
ATOM     18  H6  <0> d           2.230   5.607   1.601  0.00  0.00     0.074 H 
BRANCH  16  19
ATOM     19  C1  <0> d           0.327   6.532   1.193  0.00  0.00    -0.056 C 
ATOM     20  H2  <0> d           0.610   6.842   0.187  0.00  0.00     0.030 H 
ATOM     21  H3  <0> d          -0.727   6.254   1.205  0.00  0.00     0.030 H 
ATOM     22  H4  <0> d           0.494   7.355   1.888  0.00  0.00     0.030 H 
ENDBRANCH  16  19
ENDBRANCH  15  16
ENDBRANCH  13  15
ENDBRANCH   1  13
TORSDOF 4
