REMARK  0 active torsions:
REMARK  status: ('A' for Active; 'I' for Inactive)
ROOT
ATOM      1  C1  <0> d           0.002  -0.004   0.002  0.00  0.00    -0.073 A 
ATOM      2  C2  <0> d           1.202  -0.656  -0.013  0.00  0.00    -0.017 A 
ATOM      3  C3  <0> d           2.391   0.089  -0.020  0.00  0.00     0.247 A 
ATOM      4  O1  <0> d           3.469  -0.483  -0.034  0.00  0.00    -0.268 OA
ATOM      5  N1  <0> d           2.344   1.435  -0.013  0.00  0.00    -0.300 N 
ATOM      6  H1  <0> d           3.276   2.018  -0.020  0.00  0.00     0.171 HD
ATOM      7  C4  <0> d           1.152   2.088   0.002  0.00  0.00     0.191 A 
ATOM      8  C5  <0> d          -0.017   1.394   0.010  0.00  0.00    -0.029 A 
ATOM      9  F1  <0> d           1.129   3.438   0.010  0.00  0.00    -0.186 F 
ATOM     10  H2  <0> d          -0.922  -0.562   0.008  0.00  0.00     0.083 H 
ATOM     11  H3  <0> d           1.236  -1.736  -0.019  0.00  0.00     0.092 H 
ATOM     12  H4  <0> d          -0.959   1.922   0.017  0.00  0.00     0.090 H 
ENDROOT
TORSDOF 0
