REMARK  3 active torsions:
REMARK  status: ('A' for Active; 'I' for Inactive)
REMARK    1  A    between atoms: C1_1  and  C2_2 
REMARK    2  A    between atoms: C2_2  and  C3_4 
REMARK    3  A    between atoms: C8_9  and  O2_10 
ROOT
ATOM      1  C3  <0> d           1.155   3.188   0.008  0.00  0.00     0.045 A 
ATOM      2  C4  <0> d          -0.074   3.858   0.023  0.00  0.00    -0.030 A 
ATOM      3  C5  <0> d          -1.249   3.136   0.030  0.00  0.00     0.117 A 
ATOM      4  C6  <0> d          -1.218   1.748   0.017  0.00  0.00    -0.043 A 
ATOM      5  C7  <0> d          -0.013   1.076   0.008  0.00  0.00    -0.047 A 
ATOM      6  C8  <0> d           1.180   1.784   0.000  0.00  0.00     0.079 A 
ATOM      7  F1  <0> d          -2.436   3.782   0.044  0.00  0.00    -0.206 F 
ATOM      8  H4  <0> d          -0.103   4.937   0.028  0.00  0.00     0.089 H 
ATOM      9  H5  <0> d          -2.143   1.191   0.019  0.00  0.00     0.088 H 
ATOM     10  H6  <0> d           0.002  -0.004   0.002  0.00  0.00     0.087 H 
ENDROOT
BRANCH   1  11
ATOM     11  C2  <0> d           2.411   3.949   0.000  0.00  0.00     0.158 C 
ATOM     12  O1  <0> d           3.474   3.364  -0.012  0.00  0.00    -0.293 OA
BRANCH  11  13
ATOM     13  C1  <0> d           2.379   5.455   0.008  0.00  0.00    -0.017 C 
ATOM     14  H1  <0> d           1.429   5.769   0.018  0.00  0.00     0.038 H 
ATOM     15  H2  <0> d           2.893   5.825   0.895  0.00  0.00     0.038 H 
ATOM     16  H3  <0> d           2.877   5.834  -0.884  0.00  0.00     0.038 H 
ENDBRANCH  11  13
ENDBRANCH   1  11
BRANCH   6  17
ATOM     17  O2  <0> d           2.364   1.123  -0.015  0.00  0.00    -0.360 OA
ATOM     18  H7  <0> d           2.699   0.937  -0.902  0.00  0.00     0.217 HD
ENDBRANCH   6  17
TORSDOF 3
