REMARK  5 active torsions:
REMARK  status: ('A' for Active; 'I' for Inactive)
REMARK    1  A    between atoms: C1_1  and  C2_2 
REMARK    2  A    between atoms: C2_2  and  C3_3 
REMARK    3  A    between atoms: C2_2  and  C4_4 
REMARK    4  A    between atoms: C2_2  and  C5_5 
REMARK    5  A    between atoms: C9_9  and  N1_11 
ROOT
ATOM      1  C5  <0> d          -0.049   3.845   0.021  0.00  0.00    -0.048 A 
ATOM      2  C6  <0> d           1.156   3.166   0.007  0.00  0.00    -0.076 A 
ATOM      3  C7  <0> d           1.174   1.783   0.000  0.00  0.00    -0.080 A 
ATOM      4  C8  <0> d          -0.013   1.076   0.008  0.00  0.00    -0.058 A 
ATOM      5  C9  <0> d          -1.224   1.755   0.017  0.00  0.00     0.026 A 
ATOM      6  C10 <0> d          -1.238   3.144   0.029  0.00  0.00    -0.051 A 
ATOM      7  H10 <0> d           2.085   3.717   0.001  0.00  0.00     0.084 H 
ATOM      8  H11 <0> d           2.116   1.256  -0.011  0.00  0.00     0.083 H 
ATOM      9  H12 <0> d           0.002  -0.004   0.002  0.00  0.00     0.086 H 
ATOM     10  H13 <0> d          -2.179   3.675   0.040  0.00  0.00     0.087 H 
ENDROOT
BRANCH   1  11
ATOM     11  C2  <0> d          -0.064   5.352   0.028  0.00  0.00    -0.024 C 
BRANCH  11  12
ATOM     12  C1  <0> d           1.374   5.876   0.016  0.00  0.00    -0.066 C 
ATOM     13  H1  <0> d           1.883   5.521  -0.880  0.00  0.00     0.028 H 
ATOM     14  H2  <0> d           1.363   6.966   0.020  0.00  0.00     0.028 H 
ATOM     15  H3  <0> d           1.900   5.514   0.899  0.00  0.00     0.028 H 
ENDBRANCH  11  12
BRANCH  11  16
ATOM     16  C3  <0> d          -0.802   5.860  -1.213  0.00  0.00    -0.066 C 
ATOM     17  H4  <0> d          -1.826   5.487  -1.204  0.00  0.00     0.028 H 
ATOM     18  H5  <0> d          -0.812   6.950  -1.208  0.00  0.00     0.028 H 
ATOM     19  H6  <0> d          -0.293   5.505  -2.109  0.00  0.00     0.028 H 
ENDBRANCH  11  16
BRANCH  11  20
ATOM     20  C4  <0> d          -0.778   5.850   1.286  0.00  0.00    -0.066 C 
ATOM     21  H7  <0> d          -0.252   5.488   2.169  0.00  0.00     0.028 H 
ATOM     22  H8  <0> d          -0.788   6.940   1.290  0.00  0.00     0.028 H 
ATOM     23  H9  <0> d          -1.802   5.477   1.294  0.00  0.00     0.028 H 
ENDBRANCH  11  20
ENDBRANCH   1  11
BRANCH   5  24
ATOM     24  N1  <0> d          -2.426   1.042   0.020  0.00  0.00    -0.399 N 
ATOM     25  H14 <0> d          -2.414   0.072   0.015  0.00  0.00     0.156 HD
ATOM     26  H15 <0> d          -3.271   1.517   0.026  0.00  0.00     0.156 HD
ENDBRANCH   5  24
TORSDOF 5
