REMARK  0 active torsions:
REMARK  status: ('A' for Active; 'I' for Inactive)
ROOT
ATOM      1  C1  <0> d           1.172   1.783   0.000  0.00  0.00    -0.043 A 
ATOM      2  C2  <0> d          -0.013   1.076   0.008  0.00  0.00    -0.045 A 
ATOM      3  C3  <0> d          -1.222   1.754   0.017  0.00  0.00     0.105 A 
ATOM      4  C4  <0> d          -1.236   3.157   0.031  0.00  0.00     0.095 A 
ATOM      5  C5  <0> d          -0.032   3.861   0.023  0.00  0.00    -0.015 A 
ATOM      6  C6  <0> d           1.163   3.171   0.008  0.00  0.00     0.118 A 
ATOM      7  F1  <0> d           2.331   3.851  -0.001  0.00  0.00    -0.206 F 
ATOM      8  N1  <0> d          -2.545   3.530   0.045  0.00  0.00    -0.234 NA
ATOM      9  C7  <0> d          -3.285   2.462   0.031  0.00  0.00     0.104 A 
ATOM     10  O1  <0> d          -2.516   1.363   0.021  0.00  0.00    -0.302 OA
ATOM     11  H1  <0> d           2.113   1.252  -0.011  0.00  0.00     0.088 H 
ATOM     12  H2  <0> d           0.002  -0.004   0.002  0.00  0.00     0.088 H 
ATOM     13  H3  <0> d          -0.034   4.941   0.028  0.00  0.00     0.091 H 
ATOM     14  H4  <0> d          -4.365   2.460   0.036  0.00  0.00     0.155 H 
ENDROOT
TORSDOF 0
