REMARK  2 active torsions:
REMARK  status: ('A' for Active; 'I' for Inactive)
REMARK    1  A    between atoms: C3_3  and  C8_11 
REMARK    2  A    between atoms: C8_11  and  O3_12 
ROOT
ATOM      1  C1  <0> d           1.718   1.918  -1.498  0.00  0.00    -0.060 C 
ATOM      2  C2  <0> d           1.430   1.635  -0.003  0.00  0.00    -0.055 C 
ATOM      3  C3  <0> d          -0.013   1.086   0.008  0.00  0.00     0.021 C 
ATOM      4  H1  <0> d           0.002  -0.004   0.002  0.00  0.00     0.051 H 
ATOM      5  C4  <0> d          -0.688   1.610  -1.267  0.00  0.00     0.169 C 
ATOM      6  C5  <0> d           0.359   2.457  -2.013  0.00  0.00    -0.012 C 
ATOM      7  O1  <0> d          -1.821   2.420  -0.930  0.00  0.00    -0.352 OA
ATOM      8  C6  <0> d          -2.783   2.164  -1.982  0.00  0.00     0.043 C 
ATOM      9  C7  <0> d          -2.538   0.662  -2.275  0.00  0.00     0.043 C 
ATOM     10  O2  <0> d          -1.115   0.520  -2.089  0.00  0.00    -0.352 OA
ATOM     11  H2  <0> d           2.498   2.671  -1.606  0.00  0.00     0.033 H 
ATOM     12  H3  <0> d           1.994   1.001  -2.019  0.00  0.00     0.033 H 
ATOM     13  H4  <0> d           1.492   2.555   0.578  0.00  0.00     0.033 H 
ATOM     14  H5  <0> d           2.124   0.891   0.387  0.00  0.00     0.033 H 
ATOM     15  H6  <0> d           0.247   3.512  -1.761  0.00  0.00     0.041 H 
ATOM     16  H7  <0> d           0.274   2.312  -3.090  0.00  0.00     0.041 H 
ATOM     17  H8  <0> d          -2.571   2.772  -2.862  0.00  0.00     0.077 H 
ATOM     18  H9  <0> d          -3.801   2.332  -1.630  0.00  0.00     0.077 H 
ATOM     19  H10 <0> d          -2.819   0.419  -3.300  0.00  0.00     0.077 H 
ATOM     20  H11 <0> d          -3.084   0.038  -1.567  0.00  0.00     0.077 H 
ENDROOT
BRANCH   3  21
ATOM     21  C8  <0> d          -0.758   1.593   1.244  0.00  0.00     0.025 C 
ATOM     22  H12 <0> d          -0.680   2.679   1.295  0.00  0.00     0.074 H 
ATOM     23  H13 <0> d          -1.808   1.307   1.179  0.00  0.00     0.074 H 
BRANCH  21  24
ATOM     24  O3  <0> d          -0.180   1.019   2.418  0.00  0.00    -0.400 OA
ATOM     25  H14 <0> d          -0.603   1.297   3.242  0.00  0.00     0.209 HD
ENDBRANCH  21  24
ENDBRANCH   3  21
TORSDOF 2
