REMARK  2 active torsions:
REMARK  status: ('A' for Active; 'I' for Inactive)
REMARK    1  A    between atoms: C1_1  and  C2_2 
REMARK    2  A    between atoms: C2_2  and  C3_4 
ROOT
ATOM      1  C3  <0> d           1.006   1.435  -0.029  0.00  0.00     0.086 A 
ATOM      2  C4  <0> d           0.362   2.665   0.163  0.00  0.00     0.133 A 
ATOM      3  C5  <0> d          -1.018   2.727   0.147  0.00  0.00    -0.044 A 
ATOM      4  C6  <0> d          -1.764   1.581  -0.059  0.00  0.00    -0.077 A 
ATOM      5  C7  <0> d          -1.138   0.363  -0.254  0.00  0.00    -0.044 A 
ATOM      6  C8  <0> d           0.241   0.278  -0.236  0.00  0.00     0.133 A 
ATOM      7  F1  <0> d           0.850  -0.913  -0.423  0.00  0.00    -0.205 F 
ATOM      8  F2  <0> d           1.089   3.787   0.362  0.00  0.00    -0.205 F 
ATOM      9  H4  <0> d          -1.516   3.674   0.295  0.00  0.00     0.088 H 
ATOM     10  H5  <0> d          -2.842   1.638  -0.070  0.00  0.00     0.083 H 
ATOM     11  H6  <0> d          -1.730  -0.526  -0.418  0.00  0.00     0.088 H 
ENDROOT
BRANCH   1  12
ATOM     12  C2  <0> d           2.472   1.357  -0.015  0.00  0.00     0.161 C 
ATOM     13  O1  <0> d           3.098   1.512  -1.042  0.00  0.00    -0.293 OA
BRANCH  12  14
ATOM     14  C1  <0> d           3.200   1.086   1.277  0.00  0.00    -0.016 C 
ATOM     15  H1  <0> d           2.969   0.169   1.602  0.00  0.00     0.038 H 
ATOM     16  H2  <0> d           4.274   1.153   1.109  0.00  0.00     0.038 H 
ATOM     17  H3  <0> d           2.901   1.822   2.023  0.00  0.00     0.038 H 
ENDBRANCH  12  14
ENDBRANCH   1  12
TORSDOF 2
