REMARK  5 active torsions:
REMARK  status: ('A' for Active; 'I' for Inactive)
REMARK    1  A    between atoms: C1_1  and  C2_2 
REMARK    2  A    between atoms: C2_2  and  C3_3 
REMARK    3  A    between atoms: C3_3  and  C4_4 
REMARK    4  A    between atoms: C4_4  and  N1_5 
REMARK    5  A    between atoms: N1_5  and  C5_6 
ROOT
ATOM      1  C4  <0> d           4.770   0.089  -0.043  0.00  0.00     0.009 C 
ATOM      2  H8  <0> d           4.819   0.720  -0.930  0.00  0.00     0.064 H 
ATOM      3  H9  <0> d           4.836   0.711   0.850  0.00  0.00     0.064 H 
ENDROOT
BRANCH   1   4
ATOM      4  C3  <0> d           5.934  -0.904  -0.058  0.00  0.00    -0.050 C 
ATOM      5  H6  <0> d           5.885  -1.536   0.829  0.00  0.00     0.035 H 
ATOM      6  H7  <0> d           5.869  -1.526  -0.951  0.00  0.00     0.035 H 
BRANCH   4   7
ATOM      7  C2  <0> d           7.258  -0.138  -0.067  0.00  0.00    -0.067 C 
ATOM      8  H4  <0> d           7.307   0.493  -0.954  0.00  0.00     0.032 H 
ATOM      9  H5  <0> d           7.324   0.484   0.826  0.00  0.00     0.032 H 
BRANCH   7  10
ATOM     10  C1  <0> d           8.422  -1.131  -0.083  0.00  0.00    -0.076 C 
ATOM     11  H1  <0> d           8.373  -1.762   0.804  0.00  0.00     0.027 H 
ATOM     12  H2  <0> d           8.357  -1.753  -0.975  0.00  0.00     0.027 H 
ATOM     13  H3  <0> d           9.365  -0.585  -0.089  0.00  0.00     0.027 H 
ENDBRANCH   7  10
ENDBRANCH   4   7
ENDBRANCH   1   4
BRANCH   1  14
ATOM     14  N1  <0> d           3.502  -0.645  -0.034  0.00  0.00    -0.223 N 
ATOM     15  H10 <0> d           3.503  -1.615  -0.039  0.00  0.00     0.177 HD
BRANCH  14  16
ATOM     16  C5  <0> d           2.303   0.046  -0.020  0.00  0.00     0.721 A 
ATOM     17  N3  <0> d           2.320   1.371  -0.013  0.00  0.00    -0.075 NA
ATOM     18  C8  <0> d           1.192   2.061   0.002  0.00  0.00     0.022 A 
ATOM     19  C7  <0> d          -0.017   1.382   0.010  0.00  0.00    -0.048 A 
ATOM     20  H13 <0> d           1.212   3.141   0.007  0.00  0.00     0.115 H 
ATOM     21  C6  <0> d           0.002  -0.004   0.002  0.00  0.00     0.022 A 
ATOM     22  H12 <0> d          -0.953   1.921   0.017  0.00  0.00     0.087 H 
ATOM     23  N2  <0> d           1.165  -0.633  -0.013  0.00  0.00    -0.075 NA
ATOM     24  H11 <0> d          -0.922  -0.563   0.007  0.00  0.00     0.115 H 
ENDBRANCH  14  16
ENDBRANCH   1  14
TORSDOF 5
