REMARK  4 active torsions:
REMARK  status: ('A' for Active; 'I' for Inactive)
REMARK    1  A    between atoms: C1_1  and  C2_2 
REMARK    2  A    between atoms: C2_2  and  C3_4 
REMARK    3  A    between atoms: C8_9  and  O2_10 
REMARK    4  A    between atoms: O2_10  and  C9_11 
ROOT
ATOM      1  C3  <0> d          -2.693   1.579   2.480  0.00  0.00     0.043 A 
ATOM      2  C4  <0> d          -4.025   1.176   2.636  0.00  0.00    -0.067 A 
ATOM      3  C5  <0> d          -4.617   0.378   1.683  0.00  0.00    -0.082 A 
ATOM      4  C6  <0> d          -3.901  -0.028   0.567  0.00  0.00    -0.080 A 
ATOM      5  C7  <0> d          -2.589   0.365   0.396  0.00  0.00    -0.050 A 
ATOM      6  C8  <0> d          -1.972   1.164   1.348  0.00  0.00     0.082 A 
ATOM      7  H4  <0> d          -4.587   1.490   3.503  0.00  0.00     0.085 H 
ATOM      8  H5  <0> d          -5.644   0.068   1.804  0.00  0.00     0.083 H 
ATOM      9  H6  <0> d          -4.374  -0.654  -0.175  0.00  0.00     0.083 H 
ATOM     10  H7  <0> d          -2.040   0.048  -0.478  0.00  0.00     0.087 H 
ENDROOT
BRANCH   1  11
ATOM     11  C2  <0> d          -2.054   2.429   3.491  0.00  0.00     0.158 C 
ATOM     12  O1  <0> d          -0.901   2.776   3.351  0.00  0.00    -0.293 OA
BRANCH  11  13
ATOM     13  C1  <0> d          -2.833   2.872   4.704  0.00  0.00    -0.017 C 
ATOM     14  H1  <0> d          -2.717   2.201   5.436  0.00  0.00     0.038 H 
ATOM     15  H2  <0> d          -2.465   3.842   5.038  0.00  0.00     0.038 H 
ATOM     16  H3  <0> d          -3.889   2.952   4.448  0.00  0.00     0.038 H 
ENDBRANCH  11  13
ENDBRANCH   1  11
BRANCH   6  17
ATOM     17  O2  <0> d          -0.682   1.547   1.184  0.00  0.00    -0.355 OA
BRANCH  17  18
ATOM     18  C9  <0> d          -0.013   1.086   0.008  0.00  0.00     0.010 C 
ATOM     19  H8  <0> d           0.002  -0.004   0.002  0.00  0.00     0.066 H 
ATOM     20  H9  <0> d           1.010   1.463   0.000  0.00  0.00     0.066 H 
ATOM     21  H10 <0> d          -0.540   1.447  -0.875  0.00  0.00     0.066 H 
ENDBRANCH  17  18
ENDBRANCH   6  17
TORSDOF 4
