REMARK  1 active torsions:
REMARK  status: ('A' for Active; 'I' for Inactive)
REMARK    1  A    between atoms: C4_4  and  O1_8 
ROOT
ATOM      1  C1  <0> d          -1.220   1.750   0.017  0.00  0.00    -0.059 A 
ATOM      2  C2  <0> d          -0.013   1.076   0.008  0.00  0.00    -0.041 A 
ATOM      3  C3  <0> d           1.176   1.783   0.000  0.00  0.00     0.149 A 
ATOM      4  C4  <0> d           1.156   3.172   0.008  0.00  0.00     0.105 A 
ATOM      5  C5  <0> d          -0.056   3.846   0.023  0.00  0.00    -0.027 A 
ATOM      6  C6  <0> d          -1.242   3.134   0.031  0.00  0.00     0.036 A 
ATOM      7 Cl1  <0> d          -2.759   3.977   0.050  0.00  0.00    -0.084 Cl
ATOM      8  F1  <0> d           2.355   1.124  -0.015  0.00  0.00    -0.203 F 
ATOM      9  H1  <0> d          -2.147   1.197   0.018  0.00  0.00     0.086 H 
ATOM     10  H2  <0> d           0.002  -0.004   0.002  0.00  0.00     0.088 H 
ATOM     11  H3  <0> d          -0.074   4.926   0.029  0.00  0.00     0.090 H 
ENDROOT
BRANCH   4  12
ATOM     12  O1  <0> d           2.322   3.870   0.001  0.00  0.00    -0.358 OA
ATOM     13  H4  <0> d           2.652   4.077  -0.884  0.00  0.00     0.217 HD
ENDBRANCH   4  12
TORSDOF 1
