REMARK  2 active torsions:
REMARK  status: ('A' for Active; 'I' for Inactive)
REMARK    1  A    between atoms: C1_1  and  O1_2 
REMARK    2  A    between atoms: O1_2  and  C2_3 
ROOT
ATOM      1  C2  <0> d          -0.017   1.425   0.010  0.00  0.00     0.070 C 
ATOM      2  C3  <0> d          -0.721   1.909   1.246  0.00  0.00    -0.072 C 
ATOM      3  C4  <0> d          -1.958   1.538   1.531  0.00  0.00    -0.084 C 
ATOM      4  C5  <0> d          -2.723   0.628   0.696  0.00  0.00    -0.083 C 
ATOM      5  C6  <0> d          -2.735   0.636  -0.633  0.00  0.00    -0.083 C 
ATOM      6  C7  <0> d          -1.987   1.554  -1.472  0.00  0.00    -0.084 C 
ATOM      7  C8  <0> d          -0.744   1.923  -1.208  0.00  0.00    -0.072 C 
ATOM      8  H4  <0> d           1.005   1.802   0.002  0.00  0.00     0.096 H 
ATOM      9  H5  <0> d          -0.203   2.577   1.920  0.00  0.00     0.081 H 
ATOM     10  H6  <0> d          -2.420   1.929   2.425  0.00  0.00     0.083 H 
ATOM     11  H7  <0> d          -3.329  -0.113   1.195  0.00  0.00     0.083 H 
ATOM     12  H8  <0> d          -3.351  -0.101  -1.128  0.00  0.00     0.083 H 
ATOM     13  H9  <0> d          -2.467   1.955  -2.353  0.00  0.00     0.083 H 
ATOM     14  H10 <0> d          -0.239   2.598  -1.883  0.00  0.00     0.081 H 
ENDROOT
BRANCH   1  15
ATOM     15  O1  <0> d           0.002  -0.004   0.002  0.00  0.00    -0.383 OA
BRANCH  15  16
ATOM     16  C1  <0> d           1.147  -0.573   0.641  0.00  0.00     0.005 C 
ATOM     17  H1  <0> d           1.086  -1.661   0.593  0.00  0.00     0.066 H 
ATOM     18  H2  <0> d           2.051  -0.237   0.134  0.00  0.00     0.066 H 
ATOM     19  H3  <0> d           1.176  -0.257   1.683  0.00  0.00     0.066 H 
ENDBRANCH  15  16
ENDBRANCH   1  15
TORSDOF 2
