REMARK  2 active torsions:
REMARK  status: ('A' for Active; 'I' for Inactive)
REMARK    1  A    between atoms: C1_1  and  S1_2 
REMARK    2  A    between atoms: S1_2  and  C2_3 
ROOT
ATOM      1  C2  <0> d          -2.480   0.986   1.367  0.00  0.00     0.206 A 
ATOM      2  N1  <0> d          -3.464   1.139   2.228  0.00  0.00    -0.102 NA
ATOM      3  N2  <0> d          -4.550   0.417   1.705  0.00  0.00    -0.022 NA
ATOM      4  N3  <0> d          -4.156  -0.107   0.595  0.00  0.00    -0.046 NA
ATOM      5  N4  <0> d          -2.933   0.222   0.371  0.00  0.00    -0.234 N 
ATOM      6  H4  <0> d          -2.274  -0.032  -0.472  0.00  0.00     0.193 HD
ENDROOT
BRANCH   1   7
ATOM      7  S1  <0> d          -0.862   1.671   1.500  0.00  0.00    -0.093 SA
BRANCH   7   8
ATOM      8  C1  <0> d          -0.013   1.086   0.008  0.00  0.00    -0.027 C 
ATOM      9  H1  <0> d           1.019   1.466   0.000  0.00  0.00     0.042 H 
ATOM     10  H2  <0> d          -0.545   1.450  -0.883  0.00  0.00     0.042 H 
ATOM     11  H3  <0> d           0.002  -0.014   0.002  0.00  0.00     0.042 H 
ENDBRANCH   7   8
ENDBRANCH   1   7
TORSDOF 2
