REMARK  1 active torsions:
REMARK  status: ('A' for Active; 'I' for Inactive)
REMARK    1  A    between atoms: C3_4  and  S1_7 
ROOT
ATOM      1  C1  <0> d           1.105   3.073   0.008  0.00  0.00     0.019 A 
ATOM      2  C2  <0> d          -0.103   3.749   0.022  0.00  0.00     0.021 A 
ATOM      3  N1  <0> d          -1.238   3.072   0.029  0.00  0.00    -0.244 NA
ATOM      4  C3  <0> d          -1.220   1.751   0.017  0.00  0.00     0.190 A 
ATOM      5  C4  <0> d          -0.013   1.076   0.008  0.00  0.00     0.043 A 
ATOM      6  N2  <0> d           1.123   1.752   0.001  0.00  0.00    -0.269 NA
ATOM      7  H1  <0> d           2.033   3.626   0.001  0.00  0.00     0.117 H 
ATOM      8  H2  <0> d          -0.117   4.829   0.028  0.00  0.00     0.117 H 
ATOM      9  H3  <0> d           0.002  -0.004   0.002  0.00  0.00     0.119 H 
ENDROOT
BRANCH   4  10
ATOM     10  S1  <0> d          -2.734   0.849   0.020  0.00  0.00     0.158 S 
ATOM     11  O1  <0> d          -3.164   0.774  -1.333  0.00  0.00    -0.590 OA
ATOM     12  O2  <0> d          -2.516  -0.307   0.815  0.00  0.00    -0.590 OA
ATOM     13  O3  <0> d          -3.761   1.697   0.756  0.00  0.00    -0.590 OA
ENDBRANCH   4  10
TORSDOF 1
