REMARK  2 active torsions:
REMARK  status: ('A' for Active; 'I' for Inactive)
REMARK    1  A    between atoms: C1_1  and  C2_2 
REMARK    2  A    between atoms: C4_4  and  O1_9 
ROOT
ATOM      1  C2  <0> d           1.044   2.236   0.004  0.00  0.00    -0.085 C 
ATOM      2  C3  <0> d          -0.018   1.496   0.010  0.00  0.00    -0.074 C 
ATOM      3  C4  <0> d           0.002  -0.004   0.002  0.00  0.00     0.052 C 
ATOM      4  H1  <0> d          -0.216  -0.374   1.004  0.00  0.00     0.089 H 
ATOM      5  C5  <0> d           1.378  -0.510  -0.437  0.00  0.00    -0.038 C 
ATOM      6  C6  <0> d           2.448   0.221   0.383  0.00  0.00    -0.059 C 
ATOM      7  C7  <0> d           2.444   1.697  -0.022  0.00  0.00    -0.045 C 
ATOM      8  H5  <0> d          -0.979   1.990   0.017  0.00  0.00     0.081 H 
ATOM      9  H6  <0> d           1.448  -1.583  -0.257  0.00  0.00     0.037 H 
ATOM     10  H7  <0> d           1.523  -0.303  -1.497  0.00  0.00     0.037 H 
ATOM     11  H8  <0> d           2.220   0.132   1.445  0.00  0.00     0.033 H 
ATOM     12  H9  <0> d           3.427  -0.212   0.178  0.00  0.00     0.033 H 
ATOM     13  H10 <0> d           3.063   2.264   0.673  0.00  0.00     0.039 H 
ATOM     14  H11 <0> d           2.851   1.796  -1.029  0.00  0.00     0.039 H 
ENDROOT
BRANCH   1  15
ATOM     15  C1  <0> d           0.863   3.732   0.024  0.00  0.00    -0.055 C 
ATOM     16  H2  <0> d          -0.201   3.970   0.042  0.00  0.00     0.033 H 
ATOM     17  H3  <0> d           1.342   4.144   0.912  0.00  0.00     0.033 H 
ATOM     18  H4  <0> d           1.317   4.165  -0.867  0.00  0.00     0.033 H 
ENDBRANCH   1  15
BRANCH   3  19
ATOM     19  O1  <0> d          -0.992  -0.486  -0.905  0.00  0.00    -0.392 OA
ATOM     20  H12 <0> d          -1.892  -0.213  -0.683  0.00  0.00     0.210 HD
ENDBRANCH   3  19
TORSDOF 2
