REMARK  2 active torsions:
REMARK  status: ('A' for Active; 'I' for Inactive)
REMARK    1  A    between atoms: C1_1  and  C2_2 
REMARK    2  A    between atoms: C3_3  and  C9_12 
ROOT
ATOM      1  C2  <0> d          -0.718   1.572   1.248  0.00  0.00     0.055 A 
ATOM      2  C3  <0> d           0.016   1.806   2.414  0.00  0.00     0.055 A 
ATOM      3  N1  <0> d          -0.575   2.230   3.507  0.00  0.00    -0.248 NA
ATOM      4  C4  <0> d          -1.894   2.440   3.505  0.00  0.00     0.103 A 
ATOM      5  C5  <0> d          -2.577   2.894   4.647  0.00  0.00     0.032 A 
ATOM      6  N2  <0> d          -3.873   3.088   4.602  0.00  0.00    -0.271 NA
ATOM      7  C6  <0> d          -4.593   2.873   3.509  0.00  0.00     0.004 A 
ATOM      8  C7  <0> d          -4.027   2.433   2.351  0.00  0.00    -0.036 A 
ATOM      9  C8  <0> d          -2.639   2.202   2.321  0.00  0.00     0.088 A 
ATOM     10  N3  <0> d          -2.016   1.776   1.219  0.00  0.00    -0.249 NA
ATOM     11  H4  <0> d          -2.034   3.083   5.561  0.00  0.00     0.118 H 
ATOM     12  H5  <0> d          -5.657   3.052   3.538  0.00  0.00     0.114 H 
ATOM     13  H6  <0> d          -4.632   2.265   1.472  0.00  0.00     0.089 H 
ENDROOT
BRANCH   1  14
ATOM     14  C1  <0> d          -0.013   1.086   0.008  0.00  0.00    -0.034 C 
ATOM     15  H1  <0> d           0.002  -0.004   0.002  0.00  0.00     0.035 H 
ATOM     16  H2  <0> d           1.010   1.463   0.000  0.00  0.00     0.035 H 
ATOM     17  H3  <0> d          -0.540   1.447  -0.875  0.00  0.00     0.035 H 
ENDBRANCH   1  14
BRANCH   2  18
ATOM     18  C9  <0> d           1.504   1.569   2.417  0.00  0.00    -0.034 C 
ATOM     19  H7  <0> d           2.018   2.485   2.124  0.00  0.00     0.035 H 
ATOM     20  H8  <0> d           1.824   1.276   3.417  0.00  0.00     0.035 H 
ATOM     21  H9  <0> d           1.747   0.775   1.711  0.00  0.00     0.035 H 
ENDBRANCH   2  18
TORSDOF 2
