REMARK  2 active torsions:
REMARK  status: ('A' for Active; 'I' for Inactive)
REMARK    1  A    between atoms: C1_1  and  C2_2 
REMARK    2  A    between atoms: C4_4  and  O1_12 
ROOT
ATOM      1  C2  <0> d          -0.718   1.572   1.248  0.00  0.00     0.034 A 
ATOM      2  C3  <0> d          -2.088   1.785   1.209  0.00  0.00    -0.025 A 
ATOM      3  C4  <0> d          -2.743   2.227   2.349  0.00  0.00     0.098 A 
ATOM      4  C5  <0> d          -1.982   2.453   3.501  0.00  0.00     0.113 A 
ATOM      5  C6  <0> d          -0.597   2.220   3.465  0.00  0.00     0.107 A 
ATOM      6  N1  <0> d          -0.021   1.789   2.340  0.00  0.00    -0.250 NA
ATOM      7  C7  <0> d          -0.098   2.529   4.753  0.00  0.00     0.051 A 
ATOM      8  N2  <0> d          -1.088   2.914   5.505  0.00  0.00    -0.184 NA
ATOM      9  N3  <0> d          -2.279   2.883   4.769  0.00  0.00    -0.273 N 
ATOM     10  H1  <0> d          -3.187   3.130   5.109  0.00  0.00     0.189 HD
ATOM     11  H5  <0> d          -2.641   1.603   0.299  0.00  0.00     0.091 H 
ATOM     12  H6  <0> d           0.935   2.457   5.062  0.00  0.00     0.121 H 
ENDROOT
BRANCH   1  13
ATOM     13  C1  <0> d          -0.013   1.086   0.008  0.00  0.00    -0.035 C 
ATOM     14  H2  <0> d           0.002  -0.004   0.002  0.00  0.00     0.035 H 
ATOM     15  H3  <0> d           1.010   1.463   0.000  0.00  0.00     0.035 H 
ATOM     16  H4  <0> d          -0.540   1.447  -0.875  0.00  0.00     0.035 H 
ENDBRANCH   1  13
BRANCH   3  17
ATOM     17  O1  <0> d          -4.084   2.440   2.344  0.00  0.00    -0.358 OA
ATOM     18  H7  <0> d          -4.338   3.338   2.091  0.00  0.00     0.217 HD
ENDBRANCH   3  17
TORSDOF 2
