REMARK  1 active torsions:
REMARK  status: ('A' for Active; 'I' for Inactive)
REMARK    1  A    between atoms: C1_1  and  C2_2 
ROOT
ATOM      1  C2  <0> d          -1.239   3.138   0.030  0.00  0.00    -0.061 A 
ATOM      2  C3  <0> d          -1.199   1.745   0.017  0.00  0.00    -0.075 A 
ATOM      3  C4  <0> d          -0.013   1.076   0.008  0.00  0.00    -0.054 A 
ATOM      4  C5  <0> d           1.190   1.798   0.000  0.00  0.00     0.070 A 
ATOM      5  C6  <0> d           1.147   3.216   0.008  0.00  0.00     0.011 A 
ATOM      6  C7  <0> d          -0.092   3.873   0.023  0.00  0.00    -0.064 A 
ATOM      7  C8  <0> d           2.366   3.919  -0.000  0.00  0.00     0.016 A 
ATOM      8  N1  <0> d           3.487   3.226  -0.015  0.00  0.00    -0.253 NA
ATOM      9  C9  <0> d           3.485   1.901  -0.021  0.00  0.00     0.086 A 
ATOM     10  N2  <0> d           2.383   1.191  -0.014  0.00  0.00    -0.241 NA
ATOM     11  H4  <0> d          -2.123   1.187   0.018  0.00  0.00     0.084 H 
ATOM     12  H5  <0> d           0.002  -0.004   0.002  0.00  0.00     0.087 H 
ATOM     13  H6  <0> d          -0.137   4.952   0.028  0.00  0.00     0.085 H 
ATOM     14  H7  <0> d           2.382   4.999   0.004  0.00  0.00     0.116 H 
ATOM     15  H8  <0> d           4.433   1.384  -0.033  0.00  0.00     0.146 H 
ENDROOT
BRANCH   1  16
ATOM     16  C1  <0> d          -2.572   3.842   0.046  0.00  0.00    -0.051 C 
ATOM     17  H1  <0> d          -3.380   3.096   0.050  0.00  0.00     0.033 H 
ATOM     18  H2  <0> d          -2.662   4.476  -0.848  0.00  0.00     0.033 H 
ATOM     19  H3  <0> d          -2.645   4.467   0.948  0.00  0.00     0.033 H 
ENDBRANCH   1  16
TORSDOF 1
