REMARK  5 active torsions:
REMARK  status: ('A' for Active; 'I' for Inactive)
REMARK    1  A    between atoms: C1_1  and  C2_2 
REMARK    2  A    between atoms: C2_2  and  O1_3 
REMARK    3  A    between atoms: O1_3  and  C3_4 
REMARK    4  A    between atoms: C4_5  and  N3_11 
REMARK    5  A    between atoms: C6_7  and  N2_10 
ROOT
ATOM      1  C3  <0> d           0.777  -1.810  -1.336  0.00  0.00     0.191 A 
ATOM      2  C4  <0> d           1.425  -2.320  -2.462  0.00  0.00     0.081 A 
ATOM      3  C5  <0> d           1.526  -3.697  -2.615  0.00  0.00    -0.027 A 
ATOM      4  C6  <0> d           0.973  -4.515  -1.632  0.00  0.00     0.045 A 
ATOM      5  C7  <0> d           0.345  -3.933  -0.542  0.00  0.00     0.030 A 
ATOM      6  N1  <0> d           0.270  -2.620  -0.424  0.00  0.00    -0.233 NA
ATOM      7  H6  <0> d           2.021  -4.122  -3.476  0.00  0.00     0.090 H 
ATOM      8  H7  <0> d          -0.086  -4.562   0.223  0.00  0.00     0.118 H 
ENDROOT
BRANCH   1   9
ATOM      9  O1  <0> d           0.671  -0.465  -1.174  0.00  0.00    -0.333 OA
BRANCH   9  10
ATOM     10  C2  <0> d           0.002  -0.004   0.002  0.00  0.00     0.024 C 
ATOM     11  H4  <0> d           0.529  -0.365   0.885  0.00  0.00     0.074 H 
ATOM     12  H5  <0> d          -1.020  -0.381   0.010  0.00  0.00     0.074 H 
BRANCH  10  13
ATOM     13  C1  <0> d          -0.019   1.526   0.010  0.00  0.00    -0.056 C 
ATOM     14  H1  <0> d           1.004   1.903   0.003  0.00  0.00     0.030 H 
ATOM     15  H2  <0> d          -0.546   1.887  -0.873  0.00  0.00     0.030 H 
ATOM     16  H3  <0> d          -0.529   1.877   0.907  0.00  0.00     0.030 H 
ENDBRANCH  10  13
ENDBRANCH   9  10
ENDBRANCH   1   9
BRANCH   2  17
ATOM     17  N3  <0> d           1.964  -1.457  -3.422  0.00  0.00    -0.396 N 
ATOM     18  H10 <0> d           1.889  -0.497  -3.309  0.00  0.00     0.156 HD
ATOM     19  H11 <0> d           2.413  -1.820  -4.202  0.00  0.00     0.156 HD
ENDBRANCH   2  17
BRANCH   4  20
ATOM     20  N2  <0> d           1.051  -5.908  -1.744  0.00  0.00    -0.398 N 
ATOM     21  H8  <0> d           1.491  -6.309  -2.510  0.00  0.00     0.156 HD
ATOM     22  H9  <0> d           0.664  -6.472  -1.057  0.00  0.00     0.156 HD
ENDBRANCH   4  20
TORSDOF 5
