REMARK  3 active torsions:
REMARK  status: ('A' for Active; 'I' for Inactive)
REMARK    1  A    between atoms: C1_1  and  C4_9 
REMARK    2  A    between atoms: C2_3  and  N5_8 
REMARK    3  A    between atoms: C3_5  and  N4_7 
ROOT
ATOM      1  C1  <0> d           1.238   3.077   0.007  0.00  0.00     0.263 A 
ATOM      2  N1  <0> d           0.115   3.784   0.016  0.00  0.00    -0.035 NA
ATOM      3  C2  <0> d           0.165   5.114   0.027  0.00  0.00     0.738 A 
ATOM      4  N2  <0> d           1.341   5.733   0.019  0.00  0.00     0.129 NA
ATOM      5  C3  <0> d           2.464   5.024   0.005  0.00  0.00     0.738 A 
ATOM      6  N3  <0> d           2.412   3.695  -0.001  0.00  0.00    -0.035 NA
ENDROOT
BRANCH   1   7
ATOM      7  C4  <0> d           1.180   1.590  -0.001  0.00  0.00     0.250 C 
ATOM      8  O1  <0> d           2.206   0.943  -0.014  0.00  0.00    -0.642 OA
ATOM      9  O2  <0> d          -0.011   0.963   0.007  0.00  0.00    -0.642 OA
ENDBRANCH   1   7
BRANCH   5  10
ATOM     10  N4  <0> d           3.686   5.667  -0.004  0.00  0.00    -0.230 N 
ATOM     11  H1  <0> d           4.506   5.150  -0.014  0.00  0.00     0.174 HD
ATOM     12  H2  <0> d           3.724   6.636   0.001  0.00  0.00     0.174 HD
ENDBRANCH   5  10
BRANCH   3  13
ATOM     13  N5  <0> d          -1.002   5.849   0.042  0.00  0.00    -0.230 N 
ATOM     14  H3  <0> d          -0.965   6.818   0.047  0.00  0.00     0.174 HD
ATOM     15  H4  <0> d          -1.861   5.396   0.048  0.00  0.00     0.174 HD
ENDBRANCH   3  13
TORSDOF 3
