REMARK  1 active torsions:
REMARK  status: ('A' for Active; 'I' for Inactive)
REMARK    1  A    between atoms: C1_1  and  C2_2 
ROOT
ATOM      1  C2  <0> d          -0.779   3.180   0.037  0.00  0.00     0.021 C 
ATOM      2  H1  <0> d          -1.387   3.713   0.768  0.00  0.00     0.054 H 
ATOM      3  C3  <0> d           0.711   3.209   0.448  0.00  0.00    -0.039 C 
ATOM      4  C4  <0> d           1.189   1.810   0.000  0.00  0.00    -0.004 C 
ATOM      5  N1  <0> d          -0.011   0.966   0.007  0.00  0.00    -0.361 N 
ATOM      6  C5  <0> d          -1.131   1.709   0.016  0.00  0.00     0.221 C 
ATOM      7  O1  <0> d          -2.260   1.265   0.011  0.00  0.00    -0.273 OA
ATOM      8  H5  <0> d           0.816   3.331   1.526  0.00  0.00     0.036 H 
ATOM      9  H6  <0> d           1.248   3.994  -0.085  0.00  0.00     0.036 H 
ATOM     10  H7  <0> d           1.928   1.422   0.702  0.00  0.00     0.064 H 
ATOM     11  H8  <0> d           1.611   1.858  -1.004  0.00  0.00     0.064 H 
ATOM     12  H9  <0> d           0.002  -0.004   0.002  0.00  0.00     0.162 HD
ENDROOT
BRANCH   1  13
ATOM     13  C1  <0> d          -0.962   3.789  -1.355  0.00  0.00    -0.065 C 
ATOM     14  H2  <0> d          -0.383   3.217  -2.081  0.00  0.00     0.028 H 
ATOM     15  H3  <0> d          -2.017   3.760  -1.628  0.00  0.00     0.028 H 
ATOM     16  H4  <0> d          -0.617   4.822  -1.348  0.00  0.00     0.028 H 
ENDBRANCH   1  13
TORSDOF 1
