REMARK  3 active torsions:
REMARK  status: ('A' for Active; 'I' for Inactive)
REMARK    1  A    between atoms: C1_1  and  N1_2 
REMARK       I    between atoms: N1_2  and  C2_3 
REMARK    2  A    between atoms: C2_3  and  C3_5 
REMARK    3  A    between atoms: N2_10  and  C7_12 
ROOT
ATOM      1  C3  <0> d          -1.214   3.626   0.028  0.00  0.00     0.047 C 
ATOM      2  H1  <0> d          -0.743   4.015   0.930  0.00  0.00     0.057 H 
ATOM      3  C4  <0> d          -0.538   4.195  -1.241  0.00  0.00     0.022 C 
ATOM      4  C5  <0> d          -1.368   5.411  -1.589  0.00  0.00     0.220 C 
ATOM      5  O2  <0> d          -1.020   6.296  -2.342  0.00  0.00    -0.273 OA
ATOM      6  N2  <0> d          -2.545   5.368  -0.943  0.00  0.00    -0.356 N 
ATOM      7  C6  <0> d          -2.657   4.160  -0.118  0.00  0.00     0.009 C 
ATOM      8  H6  <0> d           0.491   4.484  -1.028  0.00  0.00     0.048 H 
ATOM      9  H7  <0> d          -0.569   3.465  -2.050  0.00  0.00     0.048 H 
ATOM     10  H8  <0> d          -3.285   3.420  -0.615  0.00  0.00     0.065 H 
ATOM     11  H9  <0> d          -3.067   4.408   0.861  0.00  0.00     0.065 H 
ENDROOT
BRANCH   1  12
ATOM     12  C2  <0> d          -1.194   2.119   0.019  0.00  0.00     0.223 C 
ATOM     13  N1  <0> d          -0.018   1.461   0.010  0.00  0.00    -0.365 N 
ATOM     14  H5  <0> d           0.816   1.957   0.005  0.00  0.00     0.161 HD
ATOM     15  O1  <0> d          -2.236   1.498   0.021  0.00  0.00    -0.273 OA
BRANCH  13  16
ATOM     16  C1  <0> d           0.002  -0.004   0.002  0.00  0.00    -0.018 C 
ATOM     17  H2  <0> d          -0.515  -0.370  -0.885  0.00  0.00     0.056 H 
ATOM     18  H3  <0> d           1.034  -0.353  -0.010  0.00  0.00     0.056 H 
ATOM     19  H4  <0> d          -0.498  -0.379   0.895  0.00  0.00     0.056 H 
ENDBRANCH  13  16
ENDBRANCH   1  12
BRANCH   6  20
ATOM     20  C7  <0> d          -3.585   6.395  -1.049  0.00  0.00    -0.016 C 
ATOM     21  H10 <0> d          -3.250   7.182  -1.725  0.00  0.00     0.056 H 
ATOM     22  H11 <0> d          -4.500   5.948  -1.437  0.00  0.00     0.056 H 
ATOM     23  H12 <0> d          -3.777   6.820  -0.064  0.00  0.00     0.056 H 
ENDBRANCH   6  20
TORSDOF 3
