REMARK  0 active torsions:
REMARK  status: ('A' for Active; 'I' for Inactive)
ROOT
ATOM      1  C1  <0> d          -0.017   1.380   0.010  0.00  0.00    -0.064 A 
ATOM      2  C2  <0> d           1.178   2.082   0.002  0.00  0.00    -0.053 A 
ATOM      3  C3  <0> d           2.367   1.361  -0.013  0.00  0.00     0.065 A 
ATOM      4  C4  <0> d           2.308  -0.043  -0.020  0.00  0.00     0.108 A 
ATOM      5  C5  <0> d           3.708  -0.506  -0.036  0.00  0.00     0.129 A 
ATOM      6  C6  <0> d           4.496   0.633  -0.038  0.00  0.00     0.202 A 
ATOM      7  N1  <0> d           3.698   1.733  -0.024  0.00  0.00    -0.331 N 
ATOM      8  H1  <0> d           4.017   2.649  -0.023  0.00  0.00     0.168 HD
ATOM      9  O1  <0> d           5.848   0.648  -0.051  0.00  0.00    -0.170 OA
ATOM     10  C7  <0> d           4.162  -1.864  -0.048  0.00  0.00     0.106 C 
ATOM     11  N2  <0> d           4.523  -2.941  -0.058  0.00  0.00    -0.191 NA
ATOM     12  N3  <0> d           1.138  -0.670  -0.012  0.00  0.00    -0.257 NA
ATOM     13  C8  <0> d           0.002  -0.004   0.002  0.00  0.00     0.003 A 
ATOM     14  H2  <0> d          -0.958   1.910   0.026  0.00  0.00     0.085 H 
ATOM     15  H3  <0> d           1.185   3.162   0.007  0.00  0.00     0.087 H 
ATOM     16  H4  <0> d          -0.931  -0.547   0.008  0.00  0.00     0.114 H 
ENDROOT
TORSDOF 0
