REMARK  0 active torsions:
REMARK  status: ('A' for Active; 'I' for Inactive)
ROOT
ATOM      1  C1  <0> d          -0.019   1.534   0.011  0.00  0.00    -0.047 C 
ATOM      2  C2  <0> d           1.453   1.995  -0.001  0.00  0.00    -0.047 C 
ATOM      3  C3  <0> d           2.232   0.792   0.586  0.00  0.00     0.047 C 
ATOM      4  H1  <0> d           3.272   0.808   0.259  0.00  0.00     0.065 H 
ATOM      5  C4  <0> d           1.486  -0.425  -0.014  0.00  0.00     0.061 C 
ATOM      6  C5  <0> d           0.002  -0.004   0.002  0.00  0.00     0.047 C 
ATOM      7  H2  <0> d          -0.502  -0.379  -0.888  0.00  0.00     0.065 H 
ATOM      8  C6  <0> d          -0.656  -0.524   1.212  0.00  0.00     0.065 C 
ATOM      9  N1  <0> d          -1.164  -0.925   2.145  0.00  0.00    -0.197 NA
ATOM     10  C7  <0> d           1.692  -1.619   0.821  0.00  0.00     0.066 C 
ATOM     11  N2  <0> d           1.852  -2.541   1.465  0.00  0.00    -0.197 NA
ATOM     12  C8  <0> d           2.151   0.786   2.056  0.00  0.00     0.065 C 
ATOM     13  N3  <0> d           2.088   0.780   3.190  0.00  0.00    -0.197 NA
ATOM     14  H3  <0> d          -0.516   1.896   0.910  0.00  0.00     0.035 H 
ATOM     15  H4  <0> d          -0.533   1.906  -0.876  0.00  0.00     0.035 H 
ATOM     16  H5  <0> d           1.781   2.201  -1.020  0.00  0.00     0.035 H 
ATOM     17  H6  <0> d           1.582   2.877   0.627  0.00  0.00     0.035 H 
ATOM     18  H7  <0> d           1.819  -0.610  -1.036  0.00  0.00     0.067 H 
ENDROOT
TORSDOF 0
