REMARK  0 active torsions:
REMARK  status: ('A' for Active; 'I' for Inactive)
ROOT
ATOM      1  C1  <0> d          -0.017   1.378   0.010  0.00  0.00    -0.066 A 
ATOM      2  C2  <0> d           1.187   2.062   0.002  0.00  0.00    -0.073 A 
ATOM      3  C3  <0> d           2.373   1.335  -0.011  0.00  0.00    -0.032 A 
ATOM      4  C4  <0> d           2.317  -0.041  -0.013  0.00  0.00     0.058 A 
ATOM      5  N1  <0> d           1.143  -0.658  -0.009  0.00  0.00    -0.264 NA
ATOM      6  C5  <0> d           0.002  -0.004   0.002  0.00  0.00     0.003 A 
ATOM      7  C6  <0> d           3.557  -0.898  -0.009  0.00  0.00     0.073 C 
ATOM      8  H1  <0> d           3.418  -1.734  -0.695  0.00  0.00     0.072 H 
ATOM      9  C7  <0> d           4.773  -0.084  -0.447  0.00  0.00    -0.044 C 
ATOM     10  C8  <0> d           4.829   1.197   0.394  0.00  0.00    -0.060 C 
ATOM     11  C9  <0> d           3.670   2.099  -0.027  0.00  0.00    -0.039 C 
ATOM     12  C10 <0> d           3.784  -1.416   1.350  0.00  0.00     0.070 C 
ATOM     13  N2  <0> d           3.960  -1.817   2.398  0.00  0.00    -0.197 NA
ATOM     14  H2  <0> d          -0.954   1.914   0.026  0.00  0.00     0.085 H 
ATOM     15  H3  <0> d           1.205   3.142   0.005  0.00  0.00     0.084 H 
ATOM     16  H4  <0> d          -0.929  -0.552   0.005  0.00  0.00     0.114 H 
ATOM     17  H5  <0> d           5.680  -0.667  -0.287  0.00  0.00     0.035 H 
ATOM     18  H6  <0> d           4.681   0.173  -1.502  0.00  0.00     0.035 H 
ATOM     19  H7  <0> d           4.735   0.947   1.450  0.00  0.00     0.033 H 
ATOM     20  H8  <0> d           5.775   1.709   0.219  0.00  0.00     0.033 H 
ATOM     21  H9  <0> d           3.853   2.475  -1.033  0.00  0.00     0.040 H 
ATOM     22  H10 <0> d           3.600   2.940   0.663  0.00  0.00     0.040 H 
ENDROOT
TORSDOF 0
