REMARK  4 active torsions:
REMARK  status: ('A' for Active; 'I' for Inactive)
REMARK    1  A    between atoms: C1_1  and  C2_2 
REMARK    2  A    between atoms: C2_2  and  C3_4 
REMARK    3  A    between atoms: C2_2  and  O3_8 
REMARK    4  A    between atoms: C3_4  and  C4_5 
ROOT
ATOM      1  C2  <0> d           0.002  -0.004   0.002  0.00  0.00     0.041 C 
ATOM      2  H1  <0> d           0.512  -0.356  -0.895  0.00  0.00     0.083 H 
ENDROOT
BRANCH   1   3
ATOM      3  C1  <0> d          -0.019   1.526   0.010  0.00  0.00    -0.052 C 
ATOM      4  H2  <0> d           1.004   1.903   0.003  0.00  0.00     0.030 H 
ATOM      5  H3  <0> d          -0.546   1.887  -0.873  0.00  0.00     0.030 H 
ATOM      6  H4  <0> d          -0.529   1.877   0.907  0.00  0.00     0.030 H 
ENDBRANCH   1   3
BRANCH   1   7
ATOM      7  C3  <0> d           0.742  -0.511   1.242  0.00  0.00     0.039 C 
ATOM      8  H5  <0> d           1.735  -0.063   1.280  0.00  0.00     0.052 H 
ATOM      9  H6  <0> d           0.184  -0.235   2.136  0.00  0.00     0.052 H 
BRANCH   7  10
ATOM     10  C4  <0> d           0.870  -2.011   1.172  0.00  0.00     0.175 C 
ATOM     11  O1  <0> d           0.412  -2.618   0.219  0.00  0.00    -0.648 OA
ATOM     12  O2  <0> d           1.432  -2.617   2.068  0.00  0.00    -0.648 OA
ENDBRANCH   7  10
ENDBRANCH   1   7
BRANCH   1  13
ATOM     13  O3  <0> d          -1.339  -0.499   0.012  0.00  0.00    -0.395 OA
ATOM     14  H7  <0> d          -1.868  -0.216  -0.746  0.00  0.00     0.210 HD
ENDBRANCH   1  13
TORSDOF 4
