REMARK  1 active torsions:
REMARK  status: ('A' for Active; 'I' for Inactive)
REMARK    1  A    between atoms: C1_1  and  C2_2 
ROOT
ATOM      1  C2  <0> d           0.002  -0.004   0.002  0.00  0.00     0.047 A 
ATOM      2  C3  <0> d           0.008  -0.796  -1.096  0.00  0.00     0.076 A 
ATOM      3  C4  <0> d           0.028  -2.128  -0.665  0.00  0.00     0.044 A 
ATOM      4  N1  <0> d           0.034  -2.134   0.643  0.00  0.00    -0.185 NA
ATOM      5  N2  <0> d           0.024  -0.806   1.088  0.00  0.00    -0.281 N 
ATOM      6  H1  <0> d           0.029  -0.514   2.013  0.00  0.00     0.189 HD
ATOM      7 Cl1  <0> d          -0.008  -0.256  -2.745  0.00  0.00    -0.081 Cl
ATOM      8  H5  <0> d           0.036  -2.999  -1.303  0.00  0.00     0.120 H 
ENDROOT
BRANCH   1   9
ATOM      9  C1  <0> d          -0.018   1.503   0.010  0.00  0.00    -0.034 C 
ATOM     10  H2  <0> d           1.004   1.880   0.003  0.00  0.00     0.035 H 
ATOM     11  H3  <0> d          -0.545   1.864  -0.873  0.00  0.00     0.035 H 
ATOM     12  H4  <0> d          -0.529   1.854   0.907  0.00  0.00     0.035 H 
ENDBRANCH   1   9
TORSDOF 1
