REMARK  7 active torsions:
REMARK  status: ('A' for Active; 'I' for Inactive)
REMARK    1  A    between atoms: C1_1  and  C2_2 
REMARK    2  A    between atoms: C2_2  and  C3_4 
REMARK    3  A    between atoms: C2_2  and  C5_7 
REMARK    4  A    between atoms: C3_4  and  C4_5 
REMARK    5  A    between atoms: C5_7  and  C6_8 
REMARK    6  A    between atoms: C6_8  and  O3_10 
REMARK    7  A    between atoms: O3_10  and  C7_11 
ROOT
ATOM      1  C2  <0> d          -0.993  -2.276  -0.001  0.00  0.00    -0.040 C 
ATOM      2  H1  <0> d          -0.351  -2.512  -0.850  0.00  0.00     0.041 H 
ENDROOT
BRANCH   1   3
ATOM      3  C1  <0> d          -0.282  -2.663   1.298  0.00  0.00    -0.072 C 
ATOM      4  H2  <0> d          -0.924  -2.427   2.147  0.00  0.00     0.028 H 
ATOM      5  H3  <0> d          -0.069  -3.732   1.290  0.00  0.00     0.028 H 
ATOM      6  H4  <0> d           0.651  -2.107   1.381  0.00  0.00     0.028 H 
ENDBRANCH   1   3
BRANCH   1   7
ATOM      7  C3  <0> d          -2.303  -3.057  -0.118  0.00  0.00     0.019 C 
ATOM      8  H5  <0> d          -2.907  -2.890   0.774  0.00  0.00     0.049 H 
ATOM      9  H6  <0> d          -2.851  -2.717  -0.997  0.00  0.00     0.049 H 
BRANCH   7  10
ATOM     10  C4  <0> d          -2.001  -4.527  -0.252  0.00  0.00     0.172 C 
ATOM     11  O1  <0> d          -0.855  -4.911  -0.254  0.00  0.00    -0.648 OA
ATOM     12  O4  <0> d          -3.005  -5.410  -0.370  0.00  0.00    -0.648 OA
ENDBRANCH   7  10
ENDBRANCH   1   7
BRANCH   1  13
ATOM     13  C5  <0> d          -1.293  -0.775   0.010  0.00  0.00     0.019 C 
ATOM     14  H7  <0> d          -1.859  -0.524   0.907  0.00  0.00     0.048 H 
ATOM     15  H8  <0> d          -1.876  -0.515  -0.873  0.00  0.00     0.048 H 
BRANCH  13  16
ATOM     16  C6  <0> d           0.002  -0.004   0.002  0.00  0.00     0.258 C 
ATOM     17  O2  <0> d           1.056  -0.594  -0.011  0.00  0.00    -0.265 OA
BRANCH  16  18
ATOM     18  O3  <0> d          -0.016   1.338   0.009  0.00  0.00    -0.326 OA
BRANCH  18  19
ATOM     19  C7  <0> d           1.268   2.015   0.001  0.00  0.00     0.013 C 
ATOM     20  H9  <0> d           1.111   3.093   0.008  0.00  0.00     0.067 H 
ATOM     21  H10 <0> d           1.838   1.725   0.884  0.00  0.00     0.067 H 
ATOM     22  H11 <0> d           1.821   1.734  -0.896  0.00  0.00     0.067 H 
ENDBRANCH  18  19
ENDBRANCH  16  18
ENDBRANCH  13  16
ENDBRANCH   1  13
TORSDOF 7
