REMARK  4 active torsions:
REMARK  status: ('A' for Active; 'I' for Inactive)
REMARK    1  A    between atoms: C1_1  and  C2_2 
REMARK    2  A    between atoms: C2_2  and  C3_3 
REMARK    3  A    between atoms: C3_3  and  C4_5 
REMARK    4  A    between atoms: C3_3  and  C5_6 
ROOT
ATOM      1  C5  <0> d          -0.630   1.667   3.762  0.00  0.00     0.007 C 
ATOM      2  H2  <0> d          -1.589   1.389   3.810  0.00  0.00     0.052 H 
ATOM      3  C6  <0> d          -0.537   3.196   3.713  0.00  0.00    -0.055 C 
ATOM      4  C7  <0> d          -1.046   3.778   5.033  0.00  0.00    -0.064 C 
ATOM      5  C8  <0> d          -0.149   3.324   6.185  0.00  0.00    -0.059 C 
ATOM      6  C9  <0> d          -0.232   1.800   6.325  0.00  0.00    -0.009 C 
ATOM      7  C10 <0> d           0.105   1.175   4.989  0.00  0.00     0.131 C 
ATOM      8  O1  <0> d           0.940   0.307   4.905  0.00  0.00    -0.298 OA
ATOM      9  H11 <0> d           0.502   3.492   3.564  0.00  0.00     0.034 H 
ATOM     10  H12 <0> d          -1.143   3.571   2.888  0.00  0.00     0.034 H 
ATOM     11  H13 <0> d          -2.065   3.433   5.209  0.00  0.00     0.033 H 
ATOM     12  H14 <0> d          -1.038   4.866   4.974  0.00  0.00     0.033 H 
ATOM     13  H15 <0> d          -0.482   3.792   7.112  0.00  0.00     0.033 H 
ATOM     14  H16 <0> d           0.881   3.614   5.981  0.00  0.00     0.033 H 
ATOM     15  H17 <0> d          -1.158   1.540   6.601  0.00  0.00     0.044 H 
ATOM     16  H18 <0> d           0.480   1.462   7.077  0.00  0.00     0.044 H 
ENDROOT
BRANCH   1  17
ATOM     17  C3  <0> d           0.011   1.072   2.506  0.00  0.00    -0.048 C 
ATOM     18  H1  <0> d           1.057   1.375   2.454  0.00  0.00     0.040 H 
BRANCH  17  19
ATOM     19  C2  <0> d          -0.729   1.579   1.267  0.00  0.00    -0.065 C 
ATOM     20  H6  <0> d          -0.744   2.669   1.273  0.00  0.00     0.033 H 
ATOM     21  H7  <0> d          -1.751   1.202   1.275  0.00  0.00     0.033 H 
BRANCH  19  22
ATOM     22  C1  <0> d          -0.013   1.086   0.008  0.00  0.00    -0.076 C 
ATOM     23  H3  <0> d           0.002  -0.004   0.002  0.00  0.00     0.027 H 
ATOM     24  H4  <0> d           1.010   1.463   0.000  0.00  0.00     0.027 H 
ATOM     25  H5  <0> d          -0.540   1.447  -0.875  0.00  0.00     0.027 H 
ENDBRANCH  19  22
ENDBRANCH  17  19
BRANCH  17  26
ATOM     26  C4  <0> d          -0.075  -0.454   2.563  0.00  0.00    -0.072 C 
ATOM     27  H8  <0> d           0.381  -0.878   1.669  0.00  0.00     0.028 H 
ATOM     28  H9  <0> d           0.452  -0.815   3.446  0.00  0.00     0.028 H 
ATOM     29  H10 <0> d          -1.121  -0.757   2.615  0.00  0.00     0.028 H 
ENDBRANCH  17  26
ENDBRANCH   1  17
TORSDOF 4
