REMARK  3 active torsions:
REMARK  status: ('A' for Active; 'I' for Inactive)
REMARK    1  A    between atoms: C1_1  and  C2_2 
REMARK    2  A    between atoms: C4_4  and  O1_10 
REMARK    3  A    between atoms: O1_10  and  C7_11 
ROOT
ATOM      1  C2  <0> d           0.002  -0.004   0.002  0.00  0.00     0.038 A 
ATOM      2  C3  <0> d           0.006  -0.697  -1.196  0.00  0.00    -0.009 A 
ATOM      3  C4  <0> d           0.026  -2.092  -1.158  0.00  0.00     0.168 A 
ATOM      4  N1  <0> d           0.040  -2.704   0.018  0.00  0.00    -0.195 NA
ATOM      5  C5  <0> d           0.035  -2.005   1.144  0.00  0.00     0.234 A 
ATOM      6  N2  <0> d           0.022  -0.679   1.139  0.00  0.00    -0.225 NA
ATOM      7  C6  <0> d           0.051  -2.698   2.397  0.00  0.00     0.141 C 
ATOM      8  N3  <0> d           0.064  -3.248   3.391  0.00  0.00    -0.188 NA
ATOM      9  H4  <0> d          -0.006  -0.171  -2.139  0.00  0.00     0.093 H 
ENDROOT
BRANCH   3  10
ATOM     10  O1  <0> d           0.030  -2.811  -2.307  0.00  0.00    -0.339 OA
BRANCH  10  11
ATOM     11  C7  <0> d           0.050  -4.234  -2.182  0.00  0.00     0.012 C 
ATOM     12  H5  <0> d           0.947  -4.538  -1.643  0.00  0.00     0.067 H 
ATOM     13  H6  <0> d          -0.833  -4.563  -1.634  0.00  0.00     0.067 H 
ATOM     14  H7  <0> d           0.051  -4.686  -3.174  0.00  0.00     0.067 H 
ENDBRANCH  10  11
ENDBRANCH   3  10
BRANCH   1  15
ATOM     15  C1  <0> d          -0.018   1.503   0.010  0.00  0.00    -0.035 C 
ATOM     16  H1  <0> d           1.004   1.880   0.003  0.00  0.00     0.035 H 
ATOM     17  H2  <0> d          -0.545   1.864  -0.873  0.00  0.00     0.035 H 
ATOM     18  H3  <0> d          -0.529   1.854   0.907  0.00  0.00     0.035 H 
ENDBRANCH   1  15
TORSDOF 3
