REMARK  0 active torsions:
REMARK  status: ('A' for Active; 'I' for Inactive)
ROOT
ATOM      1  C1  <0> d           0.002  -0.004   0.002  0.00  0.00    -0.065 A 
ATOM      2  C2  <0> d          -0.017   1.362   0.009  0.00  0.00    -0.069 A 
ATOM      3  C3  <0> d           1.215   2.043   0.001  0.00  0.00    -0.007 A 
ATOM      4  C4  <0> d           1.274   3.446   0.008  0.00  0.00    -0.068 A 
ATOM      5  C5  <0> d           2.484   4.069   0.001  0.00  0.00    -0.045 A 
ATOM      6  C6  <0> d           3.669   3.331  -0.013  0.00  0.00     0.118 A 
ATOM      7  C7  <0> d           3.647   1.968  -0.021  0.00  0.00    -0.017 A 
ATOM      8  C8  <0> d           2.416   1.291  -0.014  0.00  0.00     0.069 A 
ATOM      9  N1  <0> d           2.364  -0.045  -0.020  0.00  0.00    -0.260 NA
ATOM     10  C9  <0> d           1.218  -0.683  -0.013  0.00  0.00     0.003 A 
ATOM     11  F1  <0> d           4.855   3.977  -0.020  0.00  0.00    -0.206 F 
ATOM     12  H1  <0> d          -0.925  -0.557   0.008  0.00  0.00     0.085 H 
ATOM     13  H2  <0> d          -0.950   1.904   0.017  0.00  0.00     0.085 H 
ATOM     14  H3  <0> d           0.364   4.028   0.019  0.00  0.00     0.085 H 
ATOM     15  H4  <0> d           2.528   5.148   0.007  0.00  0.00     0.088 H 
ATOM     16  H5  <0> d           4.572   1.411  -0.032  0.00  0.00     0.091 H 
ATOM     17  H6  <0> d           1.217  -1.763  -0.019  0.00  0.00     0.114 H 
ENDROOT
TORSDOF 0
