REMARK  3 active torsions:
REMARK  status: ('A' for Active; 'I' for Inactive)
REMARK    1  A    between atoms: C1_1  and  C2_2 
REMARK    2  A    between atoms: C2_2  and  C3_3 
REMARK    3  A    between atoms: C7_8  and  O1_11 
ROOT
ATOM      1  C3  <0> d          -0.013   1.086   0.008  0.00  0.00    -0.052 C 
ATOM      2  H1  <0> d           0.002  -0.004   0.002  0.00  0.00     0.040 H 
ATOM      3  C4  <0> d          -0.729   1.579   1.267  0.00  0.00    -0.061 C 
ATOM      4  C5  <0> d           0.011   1.072   2.506  0.00  0.00    -0.062 C 
ATOM      5  C6  <0> d           1.446   1.602   2.495  0.00  0.00    -0.041 C 
ATOM      6  C7  <0> d           2.163   1.109   1.237  0.00  0.00     0.036 C 
ATOM      7  H2  <0> d           2.178   0.019   1.231  0.00  0.00     0.082 H 
ATOM      8  C8  <0> d           1.423   1.615  -0.003  0.00  0.00    -0.038 C 
ATOM      9  H8  <0> d          -0.744   2.669   1.273  0.00  0.00     0.033 H 
ATOM     10  H9  <0> d          -1.751   1.202   1.275  0.00  0.00     0.033 H 
ATOM     11  H10 <0> d           0.026  -0.018   2.500  0.00  0.00     0.033 H 
ATOM     12  H11 <0> d          -0.499   1.424   3.403  0.00  0.00     0.033 H 
ATOM     13  H12 <0> d           1.974   1.241   3.378  0.00  0.00     0.036 H 
ATOM     14  H13 <0> d           1.432   2.692   2.502  0.00  0.00     0.036 H 
ATOM     15  H14 <0> d           1.933   1.264  -0.900  0.00  0.00     0.037 H 
ATOM     16  H15 <0> d           1.408   2.705   0.003  0.00  0.00     0.037 H 
ENDROOT
BRANCH   1  17
ATOM     17  C2  <0> d          -0.753   1.593  -1.232  0.00  0.00    -0.065 C 
ATOM     18  H6  <0> d          -0.845   2.678  -1.181  0.00  0.00     0.033 H 
ATOM     19  H7  <0> d          -0.194   1.317  -2.126  0.00  0.00     0.033 H 
BRANCH  17  20
ATOM     20  C1  <0> d          -2.147   0.964  -1.286  0.00  0.00    -0.076 C 
ATOM     21  H3  <0> d          -2.705   1.240  -0.391  0.00  0.00     0.027 H 
ATOM     22  H4  <0> d          -2.674   1.325  -2.169  0.00  0.00     0.027 H 
ATOM     23  H5  <0> d          -2.054  -0.121  -1.336  0.00  0.00     0.027 H 
ENDBRANCH  17  20
ENDBRANCH   1  17
BRANCH   6  24
ATOM     24  O1  <0> d           3.503   1.603   1.226  0.00  0.00    -0.396 OA
ATOM     25  H16 <0> d           4.032   1.321   1.985  0.00  0.00     0.210 HD
ENDBRANCH   6  24
TORSDOF 3
