REMARK  1 active torsions:
REMARK  status: ('A' for Active; 'I' for Inactive)
REMARK    1  A    between atoms: C8_8  and  N2_11 
ROOT
ATOM      1  C1  <0> d           4.071  -0.732  -0.039  0.00  0.00    -0.082 A 
ATOM      2  C2  <0> d           3.252  -1.853  -0.038  0.00  0.00    -0.081 A 
ATOM      3  C3  <0> d           1.880  -1.721  -0.025  0.00  0.00    -0.056 A 
ATOM      4  C4  <0> d           1.307  -0.455  -0.013  0.00  0.00     0.044 A 
ATOM      5  C5  <0> d           2.141   0.679  -0.015  0.00  0.00    -0.006 A 
ATOM      6  C6  <0> d           3.529   0.523  -0.028  0.00  0.00    -0.071 A 
ATOM      7  C7  <0> d           1.250   1.840   0.000  0.00  0.00    -0.029 A 
ATOM      8  C8  <0> d          -0.017   1.366   0.010  0.00  0.00     0.100 A 
ATOM      9  N1  <0> d           0.002  -0.004   0.002  0.00  0.00    -0.342 N 
ATOM     10  H1  <0> d          -0.784  -0.572   0.006  0.00  0.00     0.167 HD
ATOM     11  H2  <0> d           5.144  -0.852  -0.049  0.00  0.00     0.083 H 
ATOM     12  H3  <0> d           3.695  -2.838  -0.047  0.00  0.00     0.083 H 
ATOM     13  H4  <0> d           1.251  -2.599  -0.024  0.00  0.00     0.086 H 
ATOM     14  H5  <0> d           4.172   1.391  -0.030  0.00  0.00     0.084 H 
ATOM     15  H6  <0> d           1.547   2.878   0.003  0.00  0.00     0.090 H 
ENDROOT
BRANCH   8  16
ATOM     16  N2  <0> d          -1.164   2.150   0.019  0.00  0.00    -0.385 N 
ATOM     17  H7  <0> d          -2.038   1.730   0.021  0.00  0.00     0.157 HD
ATOM     18  H8  <0> d          -1.091   3.117   0.024  0.00  0.00     0.157 HD
ENDBRANCH   8  16
TORSDOF 1
