REMARK  1 active torsions:
REMARK  status: ('A' for Active; 'I' for Inactive)
REMARK    1  A    between atoms: C1_1  and  C2_2 
REMARK       I    between atoms: C2_2  and  N1_4 
ROOT
ATOM      1  C2  <0> d           0.002  -0.004   0.002  0.00  0.00     0.215 C 
ATOM      2  O1  <0> d           1.060  -0.596  -0.011  0.00  0.00    -0.274 OA
ATOM      3  N1  <0> d          -1.156  -0.694   0.009  0.00  0.00    -0.352 N 
ATOM      4  C3  <0> d          -1.186  -2.113   0.008  0.00  0.00    -0.002 C 
ATOM      5  C4  <0> d          -0.980  -2.739  -1.410  0.00  0.00    -0.044 C 
ATOM      6  C5  <0> d          -1.720  -1.819  -2.437  0.00  0.00    -0.008 C 
ATOM      7  C6  <0> d          -3.001  -1.265  -1.991  0.00  0.00     0.128 C 
ATOM      8  O2  <0> d          -4.030  -1.880  -2.134  0.00  0.00    -0.298 OA
ATOM      9  C7  <0> d          -2.990   0.124  -1.335  0.00  0.00     0.005 C 
ATOM     10  C8  <0> d          -2.470  -0.017   0.025  0.00  0.00     0.004 C 
ATOM     11  H4  <0> d          -0.400  -2.480   0.669  0.00  0.00     0.064 H 
ATOM     12  H5  <0> d          -2.148  -2.443   0.399  0.00  0.00     0.064 H 
ATOM     13  H6  <0> d           0.083  -2.779  -1.646  0.00  0.00     0.035 H 
ATOM     14  H7  <0> d          -1.405  -3.742  -1.437  0.00  0.00     0.035 H 
ATOM     15  H8  <0> d          -1.059  -0.990  -2.689  0.00  0.00     0.044 H 
ATOM     16  H9  <0> d          -1.896  -2.396  -3.345  0.00  0.00     0.044 H 
ATOM     17  H10 <0> d          -2.350   0.796  -1.907  0.00  0.00     0.046 H 
ATOM     18  H11 <0> d          -4.004   0.522  -1.300  0.00  0.00     0.046 H 
ATOM     19  H12 <0> d          -3.169  -0.606   0.619  0.00  0.00     0.065 H 
ATOM     20  H13 <0> d          -2.360   0.969   0.477  0.00  0.00     0.065 H 
ENDROOT
BRANCH   1  21
ATOM     21  C1  <0> d          -0.018   1.503   0.010  0.00  0.00    -0.003 C 
ATOM     22  H1  <0> d           1.004   1.880   0.003  0.00  0.00     0.040 H 
ATOM     23  H2  <0> d          -0.545   1.864  -0.873  0.00  0.00     0.040 H 
ATOM     24  H3  <0> d          -0.529   1.854   0.907  0.00  0.00     0.040 H 
ENDBRANCH   1  21
TORSDOF 1
