REMARK  3 active torsions:
REMARK  status: ('A' for Active; 'I' for Inactive)
REMARK    1  A    between atoms: C1_1  and  N1_2 
REMARK    2  A    between atoms: N1_2  and  C2_3 
REMARK    3  A    between atoms: N1_2  and  N2_4 
ROOT
ATOM      1  N2  <0> d          -1.266  -0.511   0.011  0.00  0.00    -0.298 N 
ATOM      2  C3  <0> d          -2.415   0.223   0.032  0.00  0.00    -0.004 A 
ATOM      3  C4  <0> d          -3.460  -0.629   0.032  0.00  0.00    -0.065 A 
ATOM      4  C5  <0> d          -2.938  -1.937   0.020  0.00  0.00    -0.065 A 
ATOM      5  C6  <0> d          -1.593  -1.835   0.007  0.00  0.00    -0.004 A 
ATOM      6  H7  <0> d          -2.477   1.301   0.045  0.00  0.00     0.114 H 
ATOM      7  H8  <0> d          -4.506  -0.358   0.043  0.00  0.00     0.085 H 
ATOM      8  H9  <0> d          -3.509  -2.854   0.020  0.00  0.00     0.085 H 
ATOM      9  H10 <0> d          -0.895  -2.659  -0.004  0.00  0.00     0.114 H 
ENDROOT
BRANCH   1  10
ATOM     10  N1  <0> d           0.002  -0.004   0.002  0.00  0.00    -0.234 NA
BRANCH  10  11
ATOM     11  C1  <0> d          -0.018   1.465   0.010  0.00  0.00    -0.016 C 
ATOM     12  H1  <0> d           1.005   1.842   0.002  0.00  0.00     0.051 H 
ATOM     13  H2  <0> d          -0.545   1.826  -0.873  0.00  0.00     0.051 H 
ATOM     14  H3  <0> d          -0.528   1.816   0.907  0.00  0.00     0.051 H 
ENDBRANCH  10  11
BRANCH  10  15
ATOM     15  C2  <0> d           0.786  -0.526   1.129  0.00  0.00    -0.016 C 
ATOM     16  H4  <0> d           0.344  -0.188   2.067  0.00  0.00     0.051 H 
ATOM     17  H5  <0> d           0.784  -1.616   1.099  0.00  0.00     0.051 H 
ATOM     18  H6  <0> d           1.811  -0.162   1.059  0.00  0.00     0.051 H 
ENDBRANCH  10  15
ENDBRANCH   1  10
TORSDOF 3
