REMARK  3 active torsions:
REMARK  status: ('A' for Active; 'I' for Inactive)
REMARK    1  A    between atoms: C1_1  and  C2_2 
REMARK    2  A    between atoms: C6_6  and  C10_11 
REMARK    3  A    between atoms: C7_7  and  C8_8 
ROOT
ATOM      1  C8  <0> d           0.002  -0.004   0.002  0.00  0.00     0.039 C 
ATOM      2  C9  <0> d           0.022  -0.502   1.387  0.00  0.00     0.063 C 
ATOM      3  N1  <0> d           0.037  -0.886   2.456  0.00  0.00    -0.197 NA
ATOM      4  H7  <0> d          -0.888  -0.377  -0.505  0.00  0.00     0.062 H 
ATOM      5  H8  <0> d           0.892  -0.352  -0.522  0.00  0.00     0.062 H 
ENDROOT
BRANCH   1   6
ATOM      6  C7  <0> d          -0.018   1.503   0.010  0.00  0.00    -0.033 A 
ATOM      7  C2  <0> d          -1.225   2.178   0.020  0.00  0.00    -0.054 A 
ATOM      8  C3  <0> d          -1.244   3.560   0.031  0.00  0.00    -0.077 A 
ATOM      9  C4  <0> d          -0.056   4.267   0.025  0.00  0.00    -0.082 A 
ATOM     10  H4  <0> d          -2.186   4.087   0.042  0.00  0.00     0.084 H 
ATOM     11  C5  <0> d           1.151   3.592   0.010  0.00  0.00    -0.077 A 
ATOM     12  H5  <0> d          -0.070   5.347   0.032  0.00  0.00     0.083 H 
ATOM     13  C6  <0> d           1.169   2.210   0.003  0.00  0.00    -0.054 A 
ATOM     14  H6  <0> d           2.078   4.145   0.005  0.00  0.00     0.084 H 
BRANCH   7  15
ATOM     15  C1  <0> d          -2.519   1.406   0.022  0.00  0.00    -0.051 C 
ATOM     16  H1  <0> d          -2.827   1.215   1.050  0.00  0.00     0.033 H 
ATOM     17  H2  <0> d          -3.289   1.988  -0.485  0.00  0.00     0.033 H 
ATOM     18  H3  <0> d          -2.379   0.459  -0.498  0.00  0.00     0.033 H 
ENDBRANCH   7  15
BRANCH  13  19
ATOM     19  C10 <0> d           2.484   1.474  -0.013  0.00  0.00    -0.051 C 
ATOM     20  H9  <0> d           2.792   1.302  -1.045  0.00  0.00     0.033 H 
ATOM     21  H10 <0> d           3.241   2.071   0.496  0.00  0.00     0.033 H 
ATOM     22  H11 <0> d           2.372   0.518   0.497  0.00  0.00     0.033 H 
ENDBRANCH  13  19
ENDBRANCH   1   6
TORSDOF 3
