REMARK  1 active torsions:
REMARK  status: ('A' for Active; 'I' for Inactive)
REMARK    1  A    between atoms: C6_7  and  N3_10 
ROOT
ATOM      1  C1  <0> d          -0.016   1.357   0.009  0.00  0.00    -0.079 A 
ATOM      2  C2  <0> d           1.196   2.069   0.002  0.00  0.00    -0.066 A 
ATOM      3  C3  <0> d           2.374   1.413  -0.013  0.00  0.00     0.004 A 
ATOM      4  N1  <0> d           2.411   0.046  -0.021  0.00  0.00    -0.243 N 
ATOM      5  C4  <0> d           1.239  -0.675  -0.013  0.00  0.00     0.085 A 
ATOM      6  C5  <0> d           0.002  -0.004   0.002  0.00  0.00    -0.053 A 
ATOM      7  C6  <0> d           1.589  -2.022  -0.024  0.00  0.00     0.074 A 
ATOM      8  C7  <0> d           2.976  -2.093  -0.038  0.00  0.00     0.050 A 
ATOM      9  N2  <0> d           3.468  -0.872  -0.036  0.00  0.00    -0.178 NA
ATOM     10  H1  <0> d          -0.957   1.886   0.026  0.00  0.00     0.083 H 
ATOM     11  H2  <0> d           1.183   3.149   0.007  0.00  0.00     0.085 H 
ATOM     12  H3  <0> d           3.298   1.973  -0.019  0.00  0.00     0.114 H 
ATOM     13  H4  <0> d          -0.922  -0.563   0.008  0.00  0.00     0.087 H 
ATOM     14  H5  <0> d           3.557  -3.003  -0.049  0.00  0.00     0.121 H 
ENDROOT
BRANCH   7  15
ATOM     15  N3  <0> d           0.699  -3.114  -0.021  0.00  0.00    -0.396 N 
ATOM     16  H6  <0> d          -0.259  -2.960  -0.011  0.00  0.00     0.156 HD
ATOM     17  H7  <0> d           1.044  -4.021  -0.030  0.00  0.00     0.156 HD
ENDBRANCH   7  15
TORSDOF 1
