REMARK  2 active torsions:
REMARK  status: ('A' for Active; 'I' for Inactive)
REMARK    1  A    between atoms: C4_5  and  O2_14 
REMARK    2  A    between atoms: C7_10  and  C8_12 
ROOT
ATOM      1  C1  <0> d           1.141   5.191   1.188  0.00  0.00    -0.060 C 
ATOM      2  C2  <0> d           2.448   5.144   0.364  0.00  0.00    -0.058 C 
ATOM      3  C3  <0> d           2.707   3.626   0.122  0.00  0.00    -0.016 C 
ATOM      4  H1  <0> d           3.377   3.371  -0.699  0.00  0.00     0.045 H 
ATOM      5  C4  <0> d           3.105   3.070   1.524  0.00  0.00     0.040 C 
ATOM      6  H2  <0> d           3.866   3.702   1.982  0.00  0.00     0.083 H 
ATOM      7  C5  <0> d           1.798   3.116   2.348  0.00  0.00    -0.036 C 
ATOM      8  C6  <0> d           0.734   3.696   1.367  0.00  0.00    -0.038 C 
ATOM      9  H3  <0> d          -0.307   3.502   1.625  0.00  0.00     0.041 H 
ATOM     10  C7  <0> d           1.235   3.094   0.007  0.00  0.00     0.040 C 
ATOM     11  H4  <0> d           0.712   3.522  -0.848  0.00  0.00     0.058 H 
ATOM     12  H5  <0> d           0.367   5.732   0.644  0.00  0.00     0.033 H 
ATOM     13  H6  <0> d           1.319   5.654   2.158  0.00  0.00     0.033 H 
ATOM     14  H7  <0> d           3.269   5.585   0.929  0.00  0.00     0.033 H 
ATOM     15  H8  <0> d           2.317   5.663  -0.585  0.00  0.00     0.033 H 
ATOM     16  H9  <0> d           1.514   2.114   2.667  0.00  0.00     0.037 H 
ATOM     17  H10 <0> d           1.916   3.772   3.211  0.00  0.00     0.037 H 
ENDROOT
BRANCH  10  18
ATOM     18  C8  <0> d           1.177   1.588  -0.001  0.00  0.00     0.177 C 
ATOM     19  O1  <0> d           0.576   1.003   0.869  0.00  0.00    -0.648 OA
ATOM     20  O3  <0> d           1.792   0.898  -0.974  0.00  0.00    -0.648 OA
ENDBRANCH  10  18
BRANCH   5  21
ATOM     21  O2  <0> d           3.575   1.725   1.411  0.00  0.00    -0.395 OA
ATOM     22  H11 <0> d           3.837   1.328   2.253  0.00  0.00     0.210 HD
ENDBRANCH   5  21
TORSDOF 2
