REMARK  4 active torsions:
REMARK  status: ('A' for Active; 'I' for Inactive)
REMARK    1  A    between atoms: C1_1  and  C2_2 
REMARK    2  A    between atoms: C2_2  and  C3_3 
REMARK    3  A    between atoms: C3_3  and  C4_5 
REMARK    4  A    between atoms: C3_3  and  C5_6 
ROOT
ATOM      1  C3  <0> d          -1.157  -0.967   0.007  0.00  0.00    -0.009 C 
ATOM      2  H1  <0> d          -2.093  -0.408   0.019  0.00  0.00     0.050 H 
ENDROOT
BRANCH   1   3
ATOM      3  C2  <0> d          -1.078  -1.854   1.251  0.00  0.00    -0.060 C 
ATOM      4  H5  <0> d          -0.186  -2.478   1.196  0.00  0.00     0.033 H 
ATOM      5  H6  <0> d          -1.029  -1.228   2.142  0.00  0.00     0.033 H 
BRANCH   3   6
ATOM      6  C1  <0> d          -2.319  -2.745   1.322  0.00  0.00    -0.076 C 
ATOM      7  H2  <0> d          -2.369  -3.372   0.432  0.00  0.00     0.027 H 
ATOM      8  H3  <0> d          -2.263  -3.377   2.208  0.00  0.00     0.027 H 
ATOM      9  H4  <0> d          -3.212  -2.122   1.378  0.00  0.00     0.027 H 
ENDBRANCH   3   6
ENDBRANCH   1   3
BRANCH   1  10
ATOM     10  C4  <0> d          -1.101  -1.841  -1.247  0.00  0.00    -0.067 C 
ATOM     11  H7  <0> d          -1.157  -1.208  -2.133  0.00  0.00     0.028 H 
ATOM     12  H8  <0> d          -0.165  -2.399  -1.259  0.00  0.00     0.028 H 
ATOM     13  H9  <0> d          -1.939  -2.537  -1.243  0.00  0.00     0.028 H 
ENDBRANCH   1  10
BRANCH   1  14
ATOM     14  C5  <0> d           0.002  -0.004   0.002  0.00  0.00     0.078 A 
ATOM     15  S1  <0> d          -0.021   1.732   0.012  0.00  0.00    -0.085 SA
ATOM     16  C7  <0> d           1.747   1.987  -0.004  0.00  0.00    -0.026 A 
ATOM     17  C6  <0> d           2.184   0.702  -0.015  0.00  0.00     0.009 A 
ATOM     18  H11 <0> d           2.312   2.908  -0.004  0.00  0.00     0.097 H 
ATOM     19  N1  <0> d           1.289  -0.263  -0.012  0.00  0.00    -0.257 NA
ATOM     20  H10 <0> d           3.240   0.477  -0.027  0.00  0.00     0.115 H 
ENDBRANCH   1  14
TORSDOF 4
