REMARK  1 active torsions:
REMARK  status: ('A' for Active; 'I' for Inactive)
REMARK    1  A    between atoms: C1_1  and  C2_2 
ROOT
ATOM      1  C2  <0> d          -1.244   3.132   0.030  0.00  0.00    -0.035 A 
ATOM      2  C3  <0> d          -1.218   1.753   0.017  0.00  0.00    -0.075 A 
ATOM      3  C4  <0> d          -0.013   1.076   0.008  0.00  0.00    -0.082 A 
ATOM      4  C5  <0> d           1.176   1.786   0.000  0.00  0.00    -0.074 A 
ATOM      5  C6  <0> d           1.153   3.162   0.008  0.00  0.00    -0.022 A 
ATOM      6  C7  <0> d          -0.052   3.854   0.023  0.00  0.00     0.047 A 
ATOM      7  N1  <0> d           0.181   5.229   0.029  0.00  0.00    -0.326 N 
ATOM      8  C8  <0> d           1.493   5.523   0.018  0.00  0.00     0.226 A 
ATOM      9  O1  <0> d           1.983   6.632   0.019  0.00  0.00    -0.273 OA
ATOM     10  C9  <0> d           2.244   4.208   0.004  0.00  0.00     0.035 A 
ATOM     11  H4  <0> d          -2.145   1.198   0.018  0.00  0.00     0.084 H 
ATOM     12  H5  <0> d           0.002  -0.004   0.002  0.00  0.00     0.083 H 
ATOM     13  H6  <0> d           2.119   1.261  -0.012  0.00  0.00     0.084 H 
ATOM     14  H7  <0> d          -0.522   5.897   0.039  0.00  0.00     0.169 HD
ATOM     15  H8  <0> d           2.866   4.114   0.893  0.00  0.00     0.054 H 
ATOM     16  H9  <0> d           2.849   4.125  -0.898  0.00  0.00     0.054 H 
ENDROOT
BRANCH   1  17
ATOM     17  C1  <0> d          -2.563   3.860   0.046  0.00  0.00    -0.049 C 
ATOM     18  H1  <0> d          -2.891   4.041  -0.977  0.00  0.00     0.033 H 
ATOM     19  H2  <0> d          -3.307   3.253   0.564  0.00  0.00     0.033 H 
ATOM     20  H3  <0> d          -2.447   4.812   0.564  0.00  0.00     0.033 H 
ENDBRANCH   1  17
TORSDOF 1
