REMARK  0 active torsions:
REMARK  status: ('A' for Active; 'I' for Inactive)
ROOT
ATOM      1  C1  <0> d          -1.301   2.958   0.032  0.00  0.00    -0.019 A 
ATOM      2  C2  <0> d          -1.202   1.611   0.017  0.00  0.00    -0.019 A 
ATOM      3  N1  <0> d          -0.011   0.966   0.007  0.00  0.00    -0.364 N 
ATOM      4  H1  <0> d           0.018  -0.134   0.006  0.00  0.00     0.165 HD
ATOM      5  C3  <0> d           1.180   1.654  -0.000  0.00  0.00     0.064 A 
ATOM      6  C4  <0> d           2.409   0.999  -0.017  0.00  0.00     0.028 A 
ATOM      7  N2  <0> d           3.528   1.690  -0.025  0.00  0.00    -0.271 NA
ATOM      8  C5  <0> d           3.550   3.011  -0.018  0.00  0.00     0.003 A 
ATOM      9  C6  <0> d           2.382   3.745  -0.002  0.00  0.00    -0.050 A 
ATOM     10  C7  <0> d           1.167   3.060   0.007  0.00  0.00     0.043 A 
ATOM     11  C8  <0> d          -0.132   3.755   0.025  0.00  0.00     0.185 A 
ATOM     12  O1  <0> d          -0.197   4.973   0.032  0.00  0.00    -0.287 OA
ATOM     13  H2  <0> d          -2.273   3.427   0.045  0.00  0.00     0.091 H 
ATOM     14  H3  <0> d          -2.109   1.025   0.018  0.00  0.00     0.111 H 
ATOM     15  H4  <0> d           2.443  -0.081  -0.023  0.00  0.00     0.118 H 
ATOM     16  H5  <0> d           4.499   3.526  -0.025  0.00  0.00     0.114 H 
ATOM     17  H6  <0> d           2.408   4.825   0.003  0.00  0.00     0.087 H 
ENDROOT
TORSDOF 0
