REMARK  3 active torsions:
REMARK  status: ('A' for Active; 'I' for Inactive)
REMARK    1  A    between atoms: C1_1  and  O1_2 
REMARK    2  A    between atoms: O1_2  and  C2_3 
REMARK    3  A    between atoms: C4_5  and  O2_9 
ROOT
ATOM      1  C2  <0> d           3.113   2.417  -1.162  0.00  0.00     0.088 A 
ATOM      2  C3  <0> d           1.851   1.834  -1.204  0.00  0.00    -0.016 A 
ATOM      3  C4  <0> d           1.223   1.532  -0.001  0.00  0.00     0.085 A 
ATOM      4  C5  <0> d           1.870   1.826   1.191  0.00  0.00     0.034 A 
ATOM      5  N1  <0> d           3.069   2.374   1.190  0.00  0.00    -0.268 NA
ATOM      6  C6  <0> d           3.696   2.674   0.070  0.00  0.00     0.034 A 
ATOM      7  H4  <0> d           1.371   1.621  -2.148  0.00  0.00     0.092 H 
ATOM      8  H5  <0> d           1.388   1.599   2.130  0.00  0.00     0.119 H 
ATOM      9  H6  <0> d           4.676   3.127   0.112  0.00  0.00     0.119 H 
ENDROOT
BRANCH   1  10
ATOM     10  O1  <0> d           3.765   2.730  -2.312  0.00  0.00    -0.354 OA
BRANCH  10  11
ATOM     11  C1  <0> d           5.058   3.325  -2.183  0.00  0.00     0.010 C 
ATOM     12  H1  <0> d           5.467   3.524  -3.173  0.00  0.00     0.066 H 
ATOM     13  H2  <0> d           4.973   4.261  -1.630  0.00  0.00     0.066 H 
ATOM     14  H3  <0> d           5.720   2.645  -1.646  0.00  0.00     0.066 H 
ENDBRANCH  10  11
ENDBRANCH   1  10
BRANCH   3  15
ATOM     15  O2  <0> d          -0.011   0.963   0.007  0.00  0.00    -0.359 OA
ATOM     16  H7  <0> d           0.002  -0.004   0.002  0.00  0.00     0.217 HD
ENDBRANCH   3  15
TORSDOF 3
