REMARK  4 active torsions:
REMARK  status: ('A' for Active; 'I' for Inactive)
REMARK    1  A    between atoms: C1_1  and  C2_2 
REMARK    2  A    between atoms: C2_2  and  C3_3 
REMARK    3  A    between atoms: C3_3  and  O1_4 
REMARK    4  A    between atoms: O1_4  and  C4_5 
REMARK       I    between atoms: C4_5  and  N1_7 
ROOT
ATOM      1  O1  <0> d           1.142   1.899   0.001  0.00  0.00    -0.303 OA
ENDROOT
BRANCH   1   2
ATOM      2  C3  <0> d           2.370   1.124  -0.015  0.00  0.00     0.030 C 
ATOM      3  H6  <0> d           2.412   0.491   0.872  0.00  0.00     0.075 H 
ATOM      4  H7  <0> d           2.395   0.501  -0.908  0.00  0.00     0.075 H 
BRANCH   2   5
ATOM      5  C2  <0> d           3.570   2.073  -0.021  0.00  0.00    -0.048 C 
ATOM      6  H4  <0> d           3.529   2.706  -0.907  0.00  0.00     0.035 H 
ATOM      7  H5  <0> d           3.546   2.696   0.873  0.00  0.00     0.035 H 
BRANCH   5   8
ATOM      8  C1  <0> d           4.865   1.257  -0.038  0.00  0.00    -0.075 C 
ATOM      9  H1  <0> d           4.890   0.633  -0.931  0.00  0.00     0.027 H 
ATOM     10  H2  <0> d           5.720   1.933  -0.042  0.00  0.00     0.027 H 
ATOM     11  H3  <0> d           4.907   0.624   0.849  0.00  0.00     0.027 H 
ENDBRANCH   5   8
ENDBRANCH   2   5
ENDBRANCH   1   2
BRANCH   1  12
ATOM     12  C4  <0> d          -0.014   1.210   0.009  0.00  0.00     0.370 C 
ATOM     13  O2  <0> d           0.002  -0.004   0.002  0.00  0.00    -0.238 OA
ATOM     14  N1  <0> d          -1.191   1.868   0.018  0.00  0.00    -0.280 N 
ATOM     15  C8  <0> d          -2.432   1.288   0.021  0.00  0.00    -0.011 A 
ATOM     16  C5  <0> d          -1.346   3.229   0.032  0.00  0.00    -0.011 A 
ATOM     17  C7  <0> d          -3.354   2.269   0.030  0.00  0.00    -0.066 A 
ATOM     18  H11 <0> d          -2.636   0.227   0.015  0.00  0.00     0.112 H 
ATOM     19  C6  <0> d          -2.664   3.501   0.034  0.00  0.00    -0.066 A 
ATOM     20  H10 <0> d          -4.426   2.138   0.035  0.00  0.00     0.085 H 
ATOM     21  H9  <0> d          -3.113   4.483   0.041  0.00  0.00     0.085 H 
ATOM     22  H8  <0> d          -0.549   3.958   0.038  0.00  0.00     0.112 H 
ENDBRANCH   1  12
TORSDOF 4
