REMARK  1 active torsions:
REMARK  status: ('A' for Active; 'I' for Inactive)
REMARK    1  A    between atoms: C2_2  and  C4_8 
ROOT
ATOM      1  C1  <0> d          -0.013   1.076   0.008  0.00  0.00    -0.008 A 
ATOM      2  C2  <0> d          -1.126   1.901   0.029  0.00  0.00     0.129 A 
ATOM      3  N1  <0> d          -0.650   3.183   0.029  0.00  0.00    -0.270 N 
ATOM      4  N2  <0> d           0.634   3.167   0.010  0.00  0.00    -0.162 NA
ATOM      5  H1  <0> d          -1.199   3.983   0.042  0.00  0.00     0.189 HD
ATOM      6  C3  <0> d           1.086   1.938   0.002  0.00  0.00     0.148 A 
ATOM      7 Cl1  <0> d           2.756   1.464  -0.016  0.00  0.00    -0.060 Cl
ATOM      8  H2  <0> d           0.002  -0.004   0.002  0.00  0.00     0.092 H 
ENDROOT
BRANCH   2   9
ATOM      9  C4  <0> d          -2.533   1.483   0.047  0.00  0.00     0.228 C 
ATOM     10  O1  <0> d          -3.421   2.325   0.065  0.00  0.00    -0.643 OA
ATOM     11  O2  <0> d          -2.817   0.293   0.044  0.00  0.00    -0.643 OA
ENDBRANCH   2   9
TORSDOF 1
