REMARK  2 active torsions:
REMARK  status: ('A' for Active; 'I' for Inactive)
REMARK    1  A    between atoms: C1_1  and  C2_2 
REMARK    2  A    between atoms: C2_2  and  C6_8 
ROOT
ATOM      1  C2  <0> d          -0.729   1.579   1.267  0.00  0.00    -0.016 C 
ATOM      2  C3  <0> d           0.002   1.100   2.543  0.00  0.00     0.018 C 
ATOM      3  C4  <0> d          -0.128   2.262   3.503  0.00  0.00     0.218 C 
ATOM      4  O1  <0> d           0.061   2.199   4.699  0.00  0.00    -0.274 OA
ATOM      5  N1  <0> d          -0.482   3.375   2.837  0.00  0.00    -0.360 N 
ATOM      6  C5  <0> d          -0.620   3.115   1.399  0.00  0.00     0.003 C 
ATOM      7  H4  <0> d          -0.483   0.213   2.950  0.00  0.00     0.048 H 
ATOM      8  H5  <0> d           1.050   0.896   2.328  0.00  0.00     0.048 H 
ATOM      9  H6  <0> d          -0.627   4.239   3.253  0.00  0.00     0.162 HD
ATOM     10  H7  <0> d           0.258   3.478   0.864  0.00  0.00     0.065 H 
ATOM     11  H8  <0> d          -1.522   3.591   1.014  0.00  0.00     0.065 H 
ENDROOT
BRANCH   1  12
ATOM     12  C1  <0> d          -0.013   1.086   0.008  0.00  0.00    -0.067 C 
ATOM     13  H1  <0> d           0.002  -0.004   0.002  0.00  0.00     0.028 H 
ATOM     14  H2  <0> d           1.010   1.463   0.000  0.00  0.00     0.028 H 
ATOM     15  H3  <0> d          -0.540   1.447  -0.875  0.00  0.00     0.028 H 
ENDBRANCH   1  12
BRANCH   1  16
ATOM     16  C6  <0> d          -2.192   1.131   1.272  0.00  0.00    -0.045 A 
ATOM     17  C8  <0> d          -3.075   1.586   0.109  0.00  0.00    -0.061 A 
ATOM     18  C7  <0> d          -2.626   0.125   0.204  0.00  0.00    -0.061 A 
ATOM     19  H12 <0> d          -4.120   1.807   0.326  0.00  0.00     0.033 H 
ATOM     20  H13 <0> d          -2.613   2.205  -0.661  0.00  0.00     0.033 H 
ATOM     21  H10 <0> d          -1.870  -0.217  -0.502  0.00  0.00     0.033 H 
ATOM     22  H11 <0> d          -3.377  -0.614   0.485  0.00  0.00     0.033 H 
ATOM     23  H9  <0> d          -2.656   1.053   2.256  0.00  0.00     0.041 H 
ENDBRANCH   1  16
TORSDOF 2
