REMARK  1 active torsions:
REMARK  status: ('A' for Active; 'I' for Inactive)
REMARK    1  A    between atoms: C4_5  and  C6_7 
ROOT
ATOM      1  C1  <0> d          -1.006  -2.084  -0.595  0.00  0.00    -0.080 A 
ATOM      2  C2  <0> d           0.069  -2.723   0.003  0.00  0.00    -0.066 A 
ATOM      3  C3  <0> d           1.069  -1.963   0.578  0.00  0.00     0.003 A 
ATOM      4  N1  <0> d           1.012  -0.645   0.557  0.00  0.00    -0.260 NA
ATOM      5  C4  <0> d           0.002  -0.004   0.002  0.00  0.00     0.088 A 
ATOM      6  C5  <0> d          -1.035  -0.698  -0.593  0.00  0.00    -0.054 A 
ATOM      7  H1  <0> d          -1.803  -2.653  -1.052  0.00  0.00     0.083 H 
ATOM      8  H2  <0> d           0.124  -3.801   0.019  0.00  0.00     0.085 H 
ATOM      9  H3  <0> d           1.910  -2.453   1.046  0.00  0.00     0.114 H 
ATOM     10  H4  <0> d          -1.857  -0.167  -1.050  0.00  0.00     0.086 H 
ENDROOT
BRANCH   5  11
ATOM     11  C6  <0> d          -0.018   1.503   0.010  0.00  0.00     0.173 C 
ATOM     12  O2  <0> d           1.325   2.003   0.000  0.00  0.00    -0.353 OA
ATOM     13  C8  <0> d           1.472   2.814  -1.183  0.00  0.00     0.043 C 
ATOM     14  C7  <0> d           0.010   3.188  -1.534  0.00  0.00     0.043 C 
ATOM     15  H8  <0> d           2.057   3.708  -0.966  0.00  0.00     0.077 H 
ATOM     16  H9  <0> d           1.930   2.241  -1.989  0.00  0.00     0.077 H 
ATOM     17  O1  <0> d          -0.700   1.983  -1.161  0.00  0.00    -0.353 OA
ATOM     18  H6  <0> d          -0.328   4.039  -0.943  0.00  0.00     0.077 H 
ATOM     19  H7  <0> d          -0.096   3.390  -2.600  0.00  0.00     0.077 H 
ATOM     20  H5  <0> d          -0.534   1.857   0.903  0.00  0.00     0.139 H 
ENDBRANCH   5  11
TORSDOF 1
