REMARK  2 active torsions:
REMARK  status: ('A' for Active; 'I' for Inactive)
REMARK    1  A    between atoms: C1_1  and  S1_2 
REMARK    2  A    between atoms: S1_2  and  C2_5 
ROOT
ATOM      1  C2  <0> d          -1.220   1.751   0.017  0.00  0.00     0.168 A 
ATOM      2  C3  <0> d          -0.013   1.076   0.008  0.00  0.00     0.041 A 
ATOM      3  N1  <0> d           1.123   1.752   0.001  0.00  0.00    -0.269 NA
ATOM      4  C4  <0> d           1.105   3.073   0.008  0.00  0.00     0.019 A 
ATOM      5  C5  <0> d          -0.103   3.749   0.022  0.00  0.00     0.020 A 
ATOM      6  N2  <0> d          -1.238   3.072   0.029  0.00  0.00    -0.246 NA
ATOM      7  H4  <0> d           0.002  -0.004   0.002  0.00  0.00     0.119 H 
ATOM      8  H5  <0> d           2.032   3.626   0.002  0.00  0.00     0.117 H 
ATOM      9  H6  <0> d          -0.117   4.829   0.027  0.00  0.00     0.117 H 
ENDROOT
BRANCH   1  10
ATOM     10  S1  <0> d          -2.734   0.850   0.020  0.00  0.00     0.190 S 
ATOM     11  O1  <0> d          -3.680   1.728  -0.574  0.00  0.00    -0.221 OA
ATOM     12  O2  <0> d          -2.417  -0.393  -0.591  0.00  0.00    -0.221 OA
BRANCH  10  13
ATOM     13  C1  <0> d          -3.126   0.602   1.774  0.00  0.00     0.021 C 
ATOM     14  H1  <0> d          -3.233   1.571   2.263  0.00  0.00     0.049 H 
ATOM     15  H2  <0> d          -4.059   0.046   1.863  0.00  0.00     0.049 H 
ATOM     16  H3  <0> d          -2.322   0.042   2.250  0.00  0.00     0.049 H 
ENDBRANCH  10  13
ENDBRANCH   1  10
TORSDOF 2
