REMARK  2 active torsions:
REMARK  status: ('A' for Active; 'I' for Inactive)
REMARK    1  A    between atoms: C1_1  and  C2_2 
REMARK    2  A    between atoms: C3_4  and  C7_11 
ROOT
ATOM      1  C2  <0> d           0.009  -0.026  -0.011  0.00  0.00     0.057 C 
ATOM      2  H1  <0> d           0.428  -0.394  -0.947  0.00  0.00     0.085 H 
ATOM      3  C3  <0> d          -1.427  -0.535   0.141  0.00  0.00     0.056 C 
ATOM      4  H2  <0> d          -1.856  -0.145   1.063  0.00  0.00     0.060 H 
ATOM      5  C4  <0> d          -1.420  -2.067   0.189  0.00  0.00    -0.042 C 
ATOM      6  C5  <0> d          -0.566  -2.522   1.379  0.00  0.00     0.017 C 
ATOM      7  C6  <0> d           0.779  -1.833   1.289  0.00  0.00     0.259 C 
ATOM      8  O1  <0> d           1.806  -2.460   1.397  0.00  0.00    -0.265 OA
ATOM      9  O2  <0> d           0.798  -0.499   1.086  0.00  0.00    -0.316 OA
ATOM     10  H6  <0> d          -2.439  -2.433   0.309  0.00  0.00     0.035 H 
ATOM     11  H7  <0> d          -0.996  -2.459  -0.736  0.00  0.00     0.035 H 
ATOM     12  H8  <0> d          -1.058  -2.246   2.311  0.00  0.00     0.048 H 
ATOM     13  H9  <0> d          -0.428  -3.602   1.341  0.00  0.00     0.048 H 
ENDROOT
BRANCH   1  14
ATOM     14  C1  <0> d           0.009   1.504  -0.018  0.00  0.00    -0.051 C 
ATOM     15  H3  <0> d           1.037   1.867  -0.019  0.00  0.00     0.030 H 
ATOM     16  H4  <0> d          -0.504   1.864  -0.909  0.00  0.00     0.030 H 
ATOM     17  H5  <0> d          -0.504   1.872   0.871  0.00  0.00     0.030 H 
ENDBRANCH   1  14
BRANCH   3  18
ATOM     18  C7  <0> d          -2.252  -0.072  -1.033  0.00  0.00     0.179 C 
ATOM     19  O3  <0> d          -1.984  -0.461  -2.157  0.00  0.00    -0.648 OA
ATOM     20  O4  <0> d          -3.187   0.690  -0.858  0.00  0.00    -0.648 OA
ENDBRANCH   3  18
TORSDOF 2
