REMARK  2 active torsions:
REMARK  status: ('A' for Active; 'I' for Inactive)
REMARK    1  A    between atoms: C2_2  and  C3_6 
REMARK    2  A    between atoms: C3_6  and  O1_7 
ROOT
ATOM      1  C1  <0> d          -0.021   1.728   0.011  0.00  0.00     0.002 A 
ATOM      2  C2  <0> d           1.311   2.007   0.000  0.00  0.00     0.088 A 
ATOM      3  N1  <0> d           2.083   0.941  -0.013  0.00  0.00    -0.145 NA
ATOM      4  N2  <0> d           1.564  -0.235  -0.014  0.00  0.00    -0.111 NA
ATOM      5  S1  <0> d           0.002  -0.004   0.002  0.00  0.00     0.025 SA
ATOM      6  H1  <0> d          -0.864   2.403   0.019  0.00  0.00     0.100 H 
ENDROOT
BRANCH   2   7
ATOM      7  C3  <0> d           1.854   3.413   0.003  0.00  0.00     0.059 C 
ATOM      8  H2  <0> d           2.479   3.563   0.896  0.00  0.00     0.083 H 
ATOM      9  H3  <0> d           2.462   3.573  -0.900  0.00  0.00     0.083 H 
BRANCH   7  10
ATOM     10  O1  <0> d           0.769   4.343   0.018  0.00  0.00    -0.395 OA
ATOM     11  H4  <0> d           0.972   5.424   0.022  0.00  0.00     0.209 HD
ENDBRANCH   7  10
ENDBRANCH   2   7
TORSDOF 2
