REMARK  1 active torsions:
REMARK  status: ('A' for Active; 'I' for Inactive)
REMARK    1  A    between atoms: C8_8  and  C9_10 
ROOT
ATOM      1  C1  <0> d          -3.415   2.414   3.605  0.00  0.00    -0.082 A 
ATOM      2  C2  <0> d          -2.314   3.250   3.572  0.00  0.00    -0.082 A 
ATOM      3  C3  <0> d          -1.483   3.252   2.470  0.00  0.00    -0.075 A 
ATOM      4  C4  <0> d          -1.744   2.423   1.395  0.00  0.00    -0.037 A 
ATOM      5  C5  <0> d          -2.852   1.581   1.428  0.00  0.00    -0.050 A 
ATOM      6  C6  <0> d          -3.682   1.583   2.535  0.00  0.00    -0.076 A 
ATOM      7  C7  <0> d          -2.552   1.012   0.055  0.00  0.00    -0.024 A 
ATOM      8  C8  <0> d          -1.329   1.940   0.019  0.00  0.00     0.060 A 
ATOM      9  H1  <0> d          -1.389   2.710  -0.750  0.00  0.00     0.064 H 
ATOM     10  H2  <0> d          -4.066   2.412   4.467  0.00  0.00     0.083 H 
ATOM     11  H3  <0> d          -2.105   3.901   4.409  0.00  0.00     0.083 H 
ATOM     12  H4  <0> d          -0.623   3.905   2.447  0.00  0.00     0.084 H 
ATOM     13  H5  <0> d          -4.542   0.931   2.563  0.00  0.00     0.084 H 
ATOM     14  H6  <0> d          -3.307   1.256  -0.692  0.00  0.00     0.042 H 
ATOM     15  H7  <0> d          -2.296  -0.047   0.068  0.00  0.00     0.042 H 
ENDROOT
BRANCH   8  16
ATOM     16  C9  <0> d          -0.014   1.204   0.009  0.00  0.00     0.181 C 
ATOM     17  O1  <0> d           0.002  -0.004   0.002  0.00  0.00    -0.647 OA
ATOM     18  O2  <0> d           1.139   1.891   0.001  0.00  0.00    -0.647 OA
ENDBRANCH   8  16
TORSDOF 1
