REMARK  5 active torsions:
REMARK  status: ('A' for Active; 'I' for Inactive)
REMARK    1  A    between atoms: C1_1  and  C2_2 
REMARK    2  A    between atoms: N2_5  and  C5_7 
REMARK    3  A    between atoms: C5_7  and  C6_9 
REMARK    4  A    between atoms: C5_7  and  C7_10 
REMARK    5  A    between atoms: C7_10  and  O1_11 
ROOT
ATOM      1  C2  <0> d           4.435   4.520   0.353  0.00  0.00    -0.026 A 
ATOM      2  C3  <0> d           4.242   4.623  -1.029  0.00  0.00     0.029 A 
ATOM      3  N1  <0> d           3.063   4.132  -1.314  0.00  0.00    -0.184 NA
ATOM      4  N2  <0> d           2.469   3.699  -0.122  0.00  0.00    -0.274 N 
ATOM      5  C4  <0> d           3.328   3.954   0.887  0.00  0.00     0.006 A 
ATOM      6  H5  <0> d           4.944   5.037  -1.737  0.00  0.00     0.118 H 
ATOM      7  H6  <0> d           3.163   3.741   1.933  0.00  0.00     0.115 H 
ENDROOT
BRANCH   4   8
ATOM      8  C5  <0> d           1.145   3.085   0.008  0.00  0.00     0.051 C 
ATOM      9  H1  <0> d           0.545   3.424  -0.850  0.00  0.00     0.078 H 
BRANCH   8  10
ATOM     10  C6  <0> d           0.503   3.530   1.324  0.00  0.00    -0.053 C 
ATOM     11  H7  <0> d          -0.491   3.068   1.421  0.00  0.00     0.030 H 
ATOM     12  H8  <0> d           0.402   4.625   1.330  0.00  0.00     0.030 H 
ATOM     13  H9  <0> d           1.137   3.215   2.165  0.00  0.00     0.030 H 
ENDBRANCH   8  10
BRANCH   8  14
ATOM     14  C7  <0> d           1.286   1.562  -0.002  0.00  0.00     0.037 C 
ATOM     15  H10 <0> d           1.828   1.250  -0.907  0.00  0.00     0.077 H 
ATOM     16  H11 <0> d           1.845   1.240   0.889  0.00  0.00     0.077 H 
BRANCH  14  17
ATOM     17  O1  <0> d          -0.011   0.963   0.007  0.00  0.00    -0.399 OA
ATOM     18  H12 <0> d          -0.111  -0.133   0.002  0.00  0.00     0.209 HD
ENDBRANCH  14  17
ENDBRANCH   8  14
ENDBRANCH   4   8
BRANCH   1  19
ATOM     19  C1  <0> d           5.658   4.965   1.113  0.00  0.00    -0.049 C 
ATOM     20  H2  <0> d           6.392   5.387   0.410  0.00  0.00     0.033 H 
ATOM     21  H3  <0> d           6.101   4.103   1.633  0.00  0.00     0.033 H 
ATOM     22  H4  <0> d           5.373   5.731   1.849  0.00  0.00     0.033 H 
ENDBRANCH   1  19
TORSDOF 5
