REMARK  1 active torsions:
REMARK  status: ('A' for Active; 'I' for Inactive)
REMARK    1  A    between atoms: C5_5  and  C6_6 
ROOT
ATOM      1  C1  <0> d          -0.753   3.669   0.019  0.00  0.00    -0.061 C 
ATOM      2  C2  <0> d           0.669   3.573  -0.591  0.00  0.00    -0.061 C 
ATOM      3  C3  <0> d           1.195   2.243   0.003  0.00  0.00    -0.044 C 
ATOM      4  C4  <0> d          -0.016   1.327   0.009  0.00  0.00    -0.073 C 
ATOM      5  C5  <0> d           0.002  -0.004   0.002  0.00  0.00    -0.007 C 
ATOM      6  C7  <0> d          -1.248   2.207   0.019  0.00  0.00    -0.044 C 
ATOM      7  H1  <0> d          -0.709   4.062   1.034  0.00  0.00     0.033 H 
ATOM      8  H2  <0> d          -1.397   4.288  -0.606  0.00  0.00     0.033 H 
ATOM      9  H3  <0> d           1.286   4.412  -0.269  0.00  0.00     0.033 H 
ATOM     10  H4  <0> d           0.621   3.521  -1.679  0.00  0.00     0.033 H 
ATOM     11  H5  <0> d           1.561   2.397   1.018  0.00  0.00     0.039 H 
ATOM     12  H6  <0> d           1.982   1.829  -0.628  0.00  0.00     0.039 H 
ATOM     13  H7  <0> d           0.945  -0.531  -0.010  0.00  0.00     0.094 H 
ATOM     14  H8  <0> d          -1.850   2.016  -0.869  0.00  0.00     0.039 H 
ATOM     15  H9  <0> d          -1.836   2.016   0.917  0.00  0.00     0.039 H 
ENDROOT
BRANCH   5  16
ATOM     16  C6  <0> d          -1.260  -0.756   0.010  0.00  0.00     0.198 C 
ATOM     17  O1  <0> d          -2.321  -0.163   0.023  0.00  0.00    -0.644 OA
ATOM     18  O2  <0> d          -1.242  -2.104   0.003  0.00  0.00    -0.644 OA
ENDBRANCH   5  16
TORSDOF 1
