REMARK  3 active torsions:
REMARK  status: ('A' for Active; 'I' for Inactive)
REMARK    1  A    between atoms: C4_5  and  C5_6 
REMARK    2  A    between atoms: C5_6  and  O1_7 
REMARK    3  A    between atoms: C6_8  and  O2_12 
ROOT
ATOM      1  C1  <0> d           3.581   2.550  -0.001  0.00  0.00    -0.058 A 
ATOM      2  C2  <0> d           3.520   1.257  -0.376  0.00  0.00    -0.020 A 
ATOM      3  N1  <0> d           2.207   0.872  -0.382  0.00  0.00    -0.357 N 
ATOM      4  C3  <0> d           1.444   1.934  -0.001  0.00  0.00     0.049 A 
ATOM      5  C4  <0> d           2.262   2.982   0.236  0.00  0.00    -0.008 A 
ATOM      6  C6  <0> d          -0.019   1.541   0.011  0.00  0.00     0.077 C 
ATOM      7  H1  <0> d          -0.506   1.911   0.913  0.00  0.00     0.092 H 
ATOM      8  C7  <0> d           0.002  -0.004   0.002  0.00  0.00    -0.021 C 
ATOM      9  C8  <0> d           1.363  -0.302  -0.662  0.00  0.00     0.002 C 
ATOM     10  H2  <0> d           4.477   3.145   0.099  0.00  0.00     0.086 H 
ATOM     11  H3  <0> d           4.364   0.632  -0.629  0.00  0.00     0.111 H 
ATOM     12  H7  <0> d          -0.031  -0.400   1.017  0.00  0.00     0.039 H 
ATOM     13  H8  <0> d          -0.818  -0.401  -0.596  0.00  0.00     0.039 H 
ATOM     14  H9  <0> d           1.806  -1.197  -0.226  0.00  0.00     0.065 H 
ATOM     15  H10 <0> d           1.238  -0.429  -1.737  0.00  0.00     0.065 H 
ENDROOT
BRANCH   5  16
ATOM     16  C5  <0> d           1.841   4.361   0.675  0.00  0.00     0.042 C 
ATOM     17  H4  <0> d           1.177   4.793  -0.074  0.00  0.00     0.081 H 
ATOM     18  H5  <0> d           1.320   4.295   1.629  0.00  0.00     0.081 H 
BRANCH  16  19
ATOM     19  O1  <0> d           2.997   5.189   0.820  0.00  0.00    -0.396 OA
ATOM     20  H6  <0> d           2.801   6.093   1.100  0.00  0.00     0.209 HD
ENDBRANCH  16  19
ENDBRANCH   5  16
BRANCH   6  21
ATOM     21  O2  <0> d          -0.680   2.038  -1.155  0.00  0.00    -0.389 OA
ATOM     22  H11 <0> d          -1.605   1.768  -1.228  0.00  0.00     0.210 HD
ENDBRANCH   6  21
TORSDOF 3
