REMARK  4 active torsions:
REMARK  status: ('A' for Active; 'I' for Inactive)
REMARK    1  A    between atoms: C1_1  and  C2_2 
REMARK    2  A    between atoms: C1_1  and  O2_7 
REMARK    3  A    between atoms: C2_2  and  C3_4 
REMARK    4  A    between atoms: C2_2  and  O1_6 
ROOT
ATOM      1  C2  <0> d           1.145   3.085   0.008  0.00  0.00     0.080 C 
ATOM      2  H1  <0> d           0.532   3.388   0.857  0.00  0.00     0.089 H 
ENDROOT
BRANCH   1   3
ATOM      3  C1  <0> d           1.286   1.562  -0.002  0.00  0.00     0.043 C 
ATOM      4  H2  <0> d           1.840   1.243   0.881  0.00  0.00     0.078 H 
ATOM      5  H3  <0> d           1.823   1.252  -0.899  0.00  0.00     0.078 H 
BRANCH   3   6
ATOM      6  O2  <0> d          -0.011   0.963   0.007  0.00  0.00    -0.398 OA
ATOM      7  H7  <0> d           0.002  -0.004   0.002  0.00  0.00     0.209 HD
ENDBRANCH   3   6
ENDBRANCH   1   3
BRANCH   1   8
ATOM      8  C3  <0> d           2.530   3.725   0.124  0.00  0.00     0.084 C 
ATOM      9  F1  <0> d           2.394   5.112   0.247  0.00  0.00    -0.253 F 
ATOM     10  H4  <0> d           3.040   3.331   1.002  0.00  0.00     0.086 H 
ATOM     11  H5  <0> d           3.112   3.495  -0.769  0.00  0.00     0.086 H 
ENDBRANCH   1   8
BRANCH   1  12
ATOM     12  O1  <0> d           0.522   3.513  -1.205  0.00  0.00    -0.391 OA
ATOM     13  H6  <0> d           1.013   3.277  -2.004  0.00  0.00     0.210 HD
ENDBRANCH   1  12
TORSDOF 4
