REMARK  1 active torsions:
REMARK  status: ('A' for Active; 'I' for Inactive)
REMARK    1  A    between atoms: C5_6  and  C6_7 
ROOT
ATOM      1  C1  <0> d           1.179   1.775   0.000  0.00  0.00    -0.051 A 
ATOM      2  C2  <0> d          -0.013   1.076   0.008  0.00  0.00     0.003 A 
ATOM      3  N1  <0> d          -1.168   1.712   0.017  0.00  0.00    -0.273 NA
ATOM      4  C3  <0> d          -1.234   3.029   0.029  0.00  0.00     0.003 A 
ATOM      5  C4  <0> d          -0.084   3.795   0.022  0.00  0.00    -0.051 A 
ATOM      6  C5  <0> d           1.150   3.161   0.008  0.00  0.00     0.050 A 
ATOM      7  H1  <0> d           2.122   1.248  -0.011  0.00  0.00     0.086 H 
ATOM      8  H2  <0> d           0.002  -0.004   0.002  0.00  0.00     0.114 H 
ATOM      9  H3  <0> d          -2.199   3.515   0.041  0.00  0.00     0.114 H 
ATOM     10  H4  <0> d          -0.144   4.873   0.028  0.00  0.00     0.086 H 
ENDROOT
BRANCH   6  11
ATOM     11  C6  <0> d           2.427   3.960  -0.001  0.00  0.00     0.417 C 
ATOM     12  F1  <0> d           2.810   4.214  -1.322  0.00  0.00    -0.166 F 
ATOM     13  F2  <0> d           2.223   5.173   0.667  0.00  0.00    -0.166 F 
ATOM     14  F3  <0> d           3.435   3.236   0.645  0.00  0.00    -0.166 F 
ENDBRANCH   6  11
TORSDOF 1
