REMARK  2 active torsions:
REMARK  status: ('A' for Active; 'I' for Inactive)
REMARK    1  A    between atoms: C1_1  and  C2_2 
REMARK    2  A    between atoms: C5_5  and  O1_9 
ROOT
ATOM      1  C2  <0> d           0.040  -2.771  -0.013  0.00  0.00    -0.060 A 
ATOM      2  C3  <0> d           0.042  -2.087   1.189  0.00  0.00    -0.074 A 
ATOM      3  C4  <0> d           0.023  -0.705   1.199  0.00  0.00    -0.049 A 
ATOM      4  C5  <0> d           0.002  -0.004   0.002  0.00  0.00     0.087 A 
ATOM      5  C6  <0> d          -0.006  -0.693  -1.203  0.00  0.00     0.067 A 
ATOM      6  C7  <0> d           0.018  -2.075  -1.208  0.00  0.00    -0.053 A 
ATOM      7 Cl1  <0> d          -0.040   0.180  -2.703  0.00  0.00    -0.081 Cl
ATOM      8  H4  <0> d           0.058  -2.633   2.120  0.00  0.00     0.084 H 
ATOM      9  H5  <0> d           0.024  -0.172   2.138  0.00  0.00     0.087 H 
ATOM     10  H6  <0> d           0.017  -2.612  -2.145  0.00  0.00     0.087 H 
ENDROOT
BRANCH   1  11
ATOM     11  C1  <0> d           0.060  -4.278  -0.020  0.00  0.00    -0.051 C 
ATOM     12  H1  <0> d          -0.962  -4.655  -0.012  0.00  0.00     0.033 H 
ATOM     13  H2  <0> d           0.570  -4.630  -0.917  0.00  0.00     0.033 H 
ATOM     14  H3  <0> d           0.587  -4.638   0.863  0.00  0.00     0.033 H 
ENDBRANCH   1  11
BRANCH   4  15
ATOM     15  O1  <0> d          -0.016   1.355   0.009  0.00  0.00    -0.359 OA
ATOM     16  H7  <0> d           0.862   1.760   0.003  0.00  0.00     0.217 HD
ENDBRANCH   4  15
TORSDOF 2
