REMARK  10 active torsions:
REMARK  status: ('A' for Active; 'I' for Inactive)
REMARK    1  A    between atoms: C1_1  and  C2_2 
REMARK    2  A    between atoms: C2_2  and  C3_3 
REMARK    3  A    between atoms: C3_3  and  C4_4 
REMARK    4  A    between atoms: C4_4  and  C5_5 
REMARK    5  A    between atoms: C4_4  and  C6_6 
REMARK    6  A    between atoms: C4_4  and  O1_11 
REMARK    7  A    between atoms: C6_6  and  C7_7 
REMARK    8  A    between atoms: C7_7  and  C8_8 
REMARK    9  A    between atoms: C8_8  and  C9_9 
REMARK   10  A    between atoms: C8_8  and  C10_10 
ROOT
ATOM      1  C4  <0> d          -0.735   2.019   1.269  0.00  0.00     0.054 C 
ENDROOT
BRANCH   1   2
ATOM      2  C3  <0> d          -0.019   1.526   0.010  0.00  0.00    -0.037 C 
ATOM      3  H6  <0> d           1.004   1.903   0.003  0.00  0.00     0.037 H 
ATOM      4  H7  <0> d          -0.546   1.887  -0.873  0.00  0.00     0.037 H 
BRANCH   2   5
ATOM      5  C2  <0> d           0.002  -0.004   0.002  0.00  0.00    -0.066 C 
ATOM      6  H4  <0> d           0.529  -0.365   0.885  0.00  0.00     0.032 H 
ATOM      7  H5  <0> d          -1.020  -0.381   0.010  0.00  0.00     0.032 H 
BRANCH   5   8
ATOM      8  C1  <0> d           0.718  -0.497  -1.257  0.00  0.00    -0.076 C 
ATOM      9  H1  <0> d           0.733  -1.587  -1.263  0.00  0.00     0.027 H 
ATOM     10  H2  <0> d           0.191  -0.136  -2.140  0.00  0.00     0.027 H 
ATOM     11  H3  <0> d           1.741  -0.120  -1.264  0.00  0.00     0.027 H 
ENDBRANCH   5   8
ENDBRANCH   2   5
ENDBRANCH   1   2
BRANCH   1  12
ATOM     12  C5  <0> d           0.005   1.512   2.509  0.00  0.00    -0.048 C 
ATOM     13  H8  <0> d           1.028   1.890   2.501  0.00  0.00     0.031 H 
ATOM     14  H9  <0> d          -0.505   1.864   3.406  0.00  0.00     0.031 H 
ATOM     15  H10 <0> d           0.020   0.422   2.503  0.00  0.00     0.031 H 
ENDBRANCH   1  12
BRANCH   1  16
ATOM     16  C6  <0> d          -0.756   3.549   1.278  0.00  0.00    -0.036 C 
ATOM     17  H11 <0> d           0.262   3.927   1.180  0.00  0.00     0.037 H 
ATOM     18  H12 <0> d          -1.358   3.909   0.444  0.00  0.00     0.037 H 
BRANCH  16  19
ATOM     19  C7  <0> d          -1.359   4.044   2.594  0.00  0.00    -0.060 C 
ATOM     20  H13 <0> d          -2.377   3.666   2.691  0.00  0.00     0.033 H 
ATOM     21  H14 <0> d          -0.757   3.684   3.428  0.00  0.00     0.033 H 
BRANCH  19  22
ATOM     22  C8  <0> d          -1.380   5.574   2.602  0.00  0.00    -0.061 C 
ATOM     23  H15 <0> d          -0.375   5.952   2.416  0.00  0.00     0.038 H 
BRANCH  22  24
ATOM     24  C9  <0> d          -2.325   6.077   1.508  0.00  0.00    -0.073 C 
ATOM     25  H16 <0> d          -2.340   7.167   1.514  0.00  0.00     0.028 H 
ATOM     26  H17 <0> d          -1.978   5.723   0.538  0.00  0.00     0.028 H 
ATOM     27  H18 <0> d          -3.330   5.699   1.695  0.00  0.00     0.028 H 
ENDBRANCH  22  24
BRANCH  22  28
ATOM     28  C10 <0> d          -1.868   6.069   3.965  0.00  0.00    -0.073 C 
ATOM     29  H19 <0> d          -1.195   5.711   4.744  0.00  0.00     0.028 H 
ATOM     30  H20 <0> d          -1.882   7.159   3.971  0.00  0.00     0.028 H 
ATOM     31  H21 <0> d          -2.873   5.691   4.151  0.00  0.00     0.028 H 
ENDBRANCH  22  28
ENDBRANCH  19  22
ENDBRANCH  16  19
ENDBRANCH   1  16
BRANCH   1  32
ATOM     32  O1  <0> d          -2.075   1.525   1.279  0.00  0.00    -0.390 OA
ATOM     33  H22 <0> d          -2.605   1.807   0.521  0.00  0.00     0.210 HD
ENDBRANCH   1  32
TORSDOF 10
