REMARK  1 active torsions:
REMARK  status: ('A' for Active; 'I' for Inactive)
REMARK    1  A    between atoms: C5_9  and  N5_11 
ROOT
ATOM      1  C1  <0> d          -2.579   1.688   0.036  0.00  0.00     0.036 A 
ATOM      2  C2  <0> d          -1.200   1.921   0.018  0.00  0.00     0.049 A 
ATOM      3  C3  <0> d          -0.013   1.076   0.008  0.00  0.00     0.037 A 
ATOM      4  N1  <0> d           1.028   1.859   0.002  0.00  0.00    -0.185 NA
ATOM      5  N2  <0> d           0.622   3.198   0.013  0.00  0.00    -0.260 N 
ATOM      6  H1  <0> d           1.235   3.989   0.012  0.00  0.00     0.191 HD
ATOM      7  C4  <0> d          -0.739   3.255   0.027  0.00  0.00     0.176 A 
ATOM      8  N3  <0> d          -1.633   4.240   0.040  0.00  0.00    -0.043 NA
ATOM      9  C5  <0> d          -2.927   3.969   0.051  0.00  0.00     0.722 A 
ATOM     10  N4  <0> d          -3.395   2.725   0.050  0.00  0.00    -0.074 NA
ATOM     11  H2  <0> d          -2.968   0.680   0.035  0.00  0.00     0.117 H 
ATOM     12  H3  <0> d           0.002  -0.004   0.002  0.00  0.00     0.118 H 
ENDROOT
BRANCH   9  13
ATOM     13  N5  <0> d          -3.827   5.020   0.066  0.00  0.00    -0.231 N 
ATOM     14  H4  <0> d          -3.505   5.935   0.067  0.00  0.00     0.174 HD
ATOM     15  H5  <0> d          -4.781   4.842   0.074  0.00  0.00     0.174 HD
ENDBRANCH   9  13
TORSDOF 1
