REMARK  0 active torsions:
REMARK  status: ('A' for Active; 'I' for Inactive)
ROOT
ATOM      1  C1  <0> d          -0.699   1.789  -1.220  0.00  0.00    -0.051 C 
ATOM      2  C2  <0> d          -0.013   1.086   0.008  0.00  0.00    -0.036 C 
ATOM      3  H1  <0> d           0.002  -0.004   0.002  0.00  0.00     0.046 H 
ATOM      4  C3  <0> d           1.378   1.797  -0.002  0.00  0.00    -0.043 C 
ATOM      5  C4  <0> d           1.045   3.248  -0.427  0.00  0.00     0.037 C 
ATOM      6  H2  <0> d           1.325   3.951   0.357  0.00  0.00     0.063 H 
ATOM      7  C5  <0> d          -0.505   3.229  -0.621  0.00  0.00    -0.022 C 
ATOM      8  H3  <0> d          -0.932   4.064  -1.176  0.00  0.00     0.048 H 
ATOM      9  C6  <0> d          -1.055   3.000   0.793  0.00  0.00    -0.101 C 
ATOM     10  C7  <0> d          -0.763   1.750   1.169  0.00  0.00    -0.102 C 
ATOM     11  C8  <0> d           1.723   3.586  -1.689  0.00  0.00     0.064 C 
ATOM     12  N1  <0> d           2.247   3.846  -2.663  0.00  0.00    -0.197 NA
ATOM     13  H4  <0> d          -0.137   1.656  -2.145  0.00  0.00     0.035 H 
ATOM     14  H5  <0> d          -1.746   1.506  -1.331  0.00  0.00     0.035 H 
ATOM     15  H6  <0> d           1.823   1.782   0.994  0.00  0.00     0.035 H 
ATOM     16  H7  <0> d           2.043   1.328  -0.727  0.00  0.00     0.035 H 
ATOM     17  H8  <0> d          -1.584   3.728   1.390  0.00  0.00     0.077 H 
ATOM     18  H9  <0> d          -1.003   1.285   2.114  0.00  0.00     0.076 H 
ENDROOT
TORSDOF 0
