REMARK  1 active torsions:
REMARK  status: ('A' for Active; 'I' for Inactive)
REMARK       I    between atoms: N2_4  and  C3_6 
REMARK    1  A    between atoms: C3_6  and  O2_8 
ROOT
ATOM      1  C1  <0> d           2.072   0.748  -0.014  0.00  0.00     0.042 A 
ATOM      2  C2  <0> d           1.255  -0.381  -0.012  0.00  0.00     0.042 A 
ATOM      3  N1  <0> d           0.002  -0.004   0.002  0.00  0.00    -0.155 NA
ATOM      4  N2  <0> d          -0.017   1.399   0.010  0.00  0.00    -0.090 N 
ATOM      5  N3  <0> d           1.322   1.820  -0.001  0.00  0.00    -0.155 NA
ATOM      6  C3  <0> d          -1.109   2.189   0.019  0.00  0.00     0.295 C 
ATOM      7  O1  <0> d          -2.217   1.693   0.022  0.00  0.00    -0.629 OA
ATOM      8  H1  <0> d           3.152   0.740  -0.024  0.00  0.00     0.119 H 
ATOM      9  H2  <0> d           1.601  -1.405  -0.020  0.00  0.00     0.119 H 
ENDROOT
BRANCH   6  10
ATOM     10  O2  <0> d          -0.971   3.527   0.026  0.00  0.00    -0.757 OA
ATOM     11  H3  <0> d          -1.783   4.052   0.033  0.00  0.00     0.169 HD
ENDBRANCH   6  10
TORSDOF 1
