REMARK  3 active torsions:
REMARK  status: ('A' for Active; 'I' for Inactive)
REMARK    1  A    between atoms: C1_1  and  C2_2 
REMARK    2  A    between atoms: C2_2  and  C3_4 
REMARK    3  A    between atoms: C3_4  and  N1_5 
ROOT
ATOM      1  C2  <0> d           0.002  -0.004   0.002  0.00  0.00     0.044 C 
ATOM      2  H1  <0> d           0.512  -0.356  -0.895  0.00  0.00     0.064 H 
ATOM      3  C7  <0> d          -1.379  -0.514   0.013  0.00  0.00     0.065 C 
ATOM      4  N3  <0> d          -2.445  -0.907   0.021  0.00  0.00    -0.197 NA
ENDROOT
BRANCH   1   5
ATOM      5  C1  <0> d          -0.019   1.526   0.010  0.00  0.00    -0.059 C 
ATOM      6  H2  <0> d           1.004   1.903   0.003  0.00  0.00     0.029 H 
ATOM      7  H3  <0> d          -0.546   1.887  -0.873  0.00  0.00     0.029 H 
ATOM      8  H4  <0> d          -0.529   1.877   0.907  0.00  0.00     0.029 H 
ENDBRANCH   1   5
BRANCH   1   9
ATOM      9  C3  <0> d           0.742  -0.511   1.242  0.00  0.00     0.031 C 
ATOM     10  H5  <0> d           0.285  -0.087   2.136  0.00  0.00     0.069 H 
ATOM     11  H6  <0> d           0.680  -1.598   1.282  0.00  0.00     0.069 H 
BRANCH   9  12
ATOM     12  N1  <0> d           2.148  -0.104   1.172  0.00  0.00    -0.280 N 
ATOM     13  N2  <0> d           3.031  -0.370   0.118  0.00  0.00    -0.185 NA
ATOM     14  C6  <0> d           4.193   0.151   0.417  0.00  0.00     0.023 A 
ATOM     15  C5  <0> d           4.087   0.765   1.669  0.00  0.00    -0.048 A 
ATOM     16  H9  <0> d           5.081   0.114  -0.197  0.00  0.00     0.117 H 
ATOM     17  C4  <0> d           2.818   0.599   2.108  0.00  0.00    -0.000 A 
ATOM     18  H8  <0> d           4.878   1.284   2.192  0.00  0.00     0.087 H 
ATOM     19  H7  <0> d           2.415   0.961   3.043  0.00  0.00     0.114 H 
ENDBRANCH   9  12
ENDBRANCH   1   9
TORSDOF 3
