REMARK  2 active torsions:
REMARK  status: ('A' for Active; 'I' for Inactive)
REMARK    1  A    between atoms: C1_1  and  C2_2 
REMARK    2  A    between atoms: C4_4  and  C5_7 
ROOT
ATOM      1  C2  <0> d          -0.718   1.572   1.248  0.00  0.00     0.041 A 
ATOM      2  C3  <0> d          -0.003   1.804   2.398  0.00  0.00    -0.034 A 
ATOM      3  C4  <0> d          -0.802   2.248   3.449  0.00  0.00     0.102 A 
ATOM      4  S1  <0> d          -2.405   2.270   2.672  0.00  0.00     0.018 SA
ATOM      5  N1  <0> d          -2.006   1.777   1.227  0.00  0.00    -0.216 NA
ATOM      6  H4  <0> d           1.064   1.659   2.479  0.00  0.00     0.089 H 
ENDROOT
BRANCH   1   7
ATOM      7  C1  <0> d          -0.013   1.086   0.008  0.00  0.00    -0.035 C 
ATOM      8  H1  <0> d           0.002  -0.004   0.002  0.00  0.00     0.035 H 
ATOM      9  H2  <0> d           1.010   1.463   0.000  0.00  0.00     0.035 H 
ATOM     10  H3  <0> d          -0.540   1.447  -0.875  0.00  0.00     0.035 H 
ENDBRANCH   1   7
BRANCH   3  11
ATOM     11  C5  <0> d          -0.425   2.602   4.824  0.00  0.00     0.218 C 
ATOM     12  O1  <0> d           0.736   2.523   5.176  0.00  0.00    -0.643 OA
ATOM     13  O2  <0> d          -1.367   3.015   5.696  0.00  0.00    -0.643 OA
ENDBRANCH   3  11
TORSDOF 2
