REMARK  5 active torsions:
REMARK  status: ('A' for Active; 'I' for Inactive)
REMARK    1  A    between atoms: C1_1  and  C2_2 
REMARK    2  A    between atoms: C2_2  and  C3_3 
REMARK    3  A    between atoms: C3_3  and  C4_4 
REMARK    4  A    between atoms: C4_4  and  C5_5 
REMARK    5  A    between atoms: C5_5  and  C6_6 
ROOT
ATOM      1  C4  <0> d          -2.152   0.960   1.292  0.00  0.00    -0.061 C 
ATOM      2  H8  <0> d          -2.707   1.230   0.394  0.00  0.00     0.033 H 
ATOM      3  H9  <0> d          -2.055  -0.124   1.348  0.00  0.00     0.033 H 
ENDROOT
BRANCH   1   4
ATOM      4  C3  <0> d          -2.900   1.469   2.526  0.00  0.00    -0.065 C 
ATOM      5  H6  <0> d          -2.345   1.199   3.425  0.00  0.00     0.033 H 
ATOM      6  H7  <0> d          -2.997   2.553   2.471  0.00  0.00     0.033 H 
BRANCH   4   7
ATOM      7  C2  <0> d          -4.292   0.834   2.577  0.00  0.00    -0.069 C 
ATOM      8  H4  <0> d          -4.847   1.104   1.678  0.00  0.00     0.032 H 
ATOM      9  H5  <0> d          -4.195  -0.250   2.632  0.00  0.00     0.032 H 
BRANCH   7  10
ATOM     10  C1  <0> d          -5.040   1.343   3.810  0.00  0.00    -0.077 C 
ATOM     11  H1  <0> d          -4.485   1.073   4.709  0.00  0.00     0.027 H 
ATOM     12  H2  <0> d          -5.137   2.427   3.755  0.00  0.00     0.027 H 
ATOM     13  H3  <0> d          -6.031   0.891   3.846  0.00  0.00     0.027 H 
ENDBRANCH   7  10
ENDBRANCH   4   7
ENDBRANCH   1   4
BRANCH   1  14
ATOM     14  C5  <0> d          -0.761   1.595   1.242  0.00  0.00    -0.019 C 
ATOM     15  H10 <0> d          -0.206   1.325   2.140  0.00  0.00     0.040 H 
ATOM     16  H11 <0> d          -0.858   2.679   1.187  0.00  0.00     0.040 H 
BRANCH  14  17
ATOM     17  C6  <0> d          -0.013   1.086   0.008  0.00  0.00     0.131 C 
ATOM     18  O2  <0> d           1.331   1.599  -0.002  0.00  0.00    -0.359 OA
ATOM     19  C8  <0> d           1.678   1.849  -1.376  0.00  0.00     0.042 C 
ATOM     20  C7  <0> d           0.413   1.483  -2.183  0.00  0.00     0.042 C 
ATOM     21  H15 <0> d           1.927   2.900  -1.518  0.00  0.00     0.077 H 
ATOM     22  H16 <0> d           2.515   1.218  -1.675  0.00  0.00     0.077 H 
ATOM     23  O1  <0> d          -0.641   1.581  -1.194  0.00  0.00    -0.359 OA
ATOM     24  H13 <0> d           0.251   2.197  -2.991  0.00  0.00     0.077 H 
ATOM     25  H14 <0> d           0.484   0.468  -2.573  0.00  0.00     0.077 H 
ATOM     26  H12 <0> d           0.002  -0.004   0.002  0.00  0.00     0.129 H 
ENDBRANCH  14  17
ENDBRANCH   1  14
TORSDOF 5
