REMARK  4 active torsions:
REMARK  status: ('A' for Active; 'I' for Inactive)
REMARK    1  A    between atoms: C1_1  and  N1_2 
REMARK    2  A    between atoms: C3_5  and  C4_6 
REMARK    3  A    between atoms: C4_6  and  O2_8 
REMARK    4  A    between atoms: O2_8  and  C5_9 
ROOT
ATOM      1  N1  <0> d           0.002  -0.004   0.002  0.00  0.00    -0.322 N 
ATOM      2  C2  <0> d           0.008  -0.802  -1.103  0.00  0.00     0.068 A 
ATOM      3  N2  <0> d           0.027  -2.049  -0.737  0.00  0.00    -0.233 NA
ATOM      4  C3  <0> d           0.033  -2.115   0.623  0.00  0.00     0.187 A 
ATOM      5  C6  <0> d           0.024  -0.813   1.097  0.00  0.00     0.216 A 
ATOM      6  O3  <0> d           0.030  -0.423   2.393  0.00  0.00    -0.169 OA
ATOM      7  H4  <0> d          -0.001  -0.453  -2.125  0.00  0.00     0.143 H 
ENDROOT
BRANCH   4   8
ATOM      8  C4  <0> d           0.053  -3.335   1.433  0.00  0.00     0.316 C 
ATOM      9  O1  <0> d           0.057  -3.259   2.647  0.00  0.00    -0.257 OA
BRANCH   8  10
ATOM     10  O2  <0> d           0.067  -4.543   0.833  0.00  0.00    -0.321 OA
BRANCH  10  11
ATOM     11  C5  <0> d           0.086  -5.690   1.685  0.00  0.00     0.013 C 
ATOM     12  H5  <0> d           0.095  -6.594   1.076  0.00  0.00     0.067 H 
ATOM     13  H6  <0> d           0.978  -5.663   2.310  0.00  0.00     0.067 H 
ATOM     14  H7  <0> d          -0.802  -5.687   2.318  0.00  0.00     0.067 H 
ENDBRANCH  10  11
ENDBRANCH   8  10
ENDBRANCH   4   8
BRANCH   1  15
ATOM     15  C1  <0> d          -0.018   1.461   0.010  0.00  0.00    -0.011 C 
ATOM     16  H1  <0> d           1.005   1.838   0.002  0.00  0.00     0.057 H 
ATOM     17  H2  <0> d          -0.545   1.822  -0.873  0.00  0.00     0.057 H 
ATOM     18  H3  <0> d          -0.528   1.812   0.907  0.00  0.00     0.057 H 
ENDBRANCH   1  15
TORSDOF 4
