REMARK  2 active torsions:
REMARK  status: ('A' for Active; 'I' for Inactive)
REMARK    1  A    between atoms: C1_1  and  C2_2 
REMARK    2  A    between atoms: C3_3  and  C5_11 
ROOT
ATOM      1  C2  <0> d           0.009   1.809   2.422  0.00  0.00     0.076 A 
ATOM      2  C3  <0> d          -0.718   1.572   1.248  0.00  0.00     0.078 A 
ATOM      3  N1  <0> d          -2.014   1.779   1.229  0.00  0.00    -0.136 NA
ATOM      4  N2  <0> d          -2.643   2.224   2.393  0.00  0.00     0.052 N 
ATOM      5  C4  <0> d          -1.904   2.447   3.527  0.00  0.00     0.788 A 
ATOM      6  N3  <0> d          -0.587   2.232   3.511  0.00  0.00    -0.061 NA
ATOM      7  N4  <0> d          -2.756   2.862   4.454  0.00  0.00     0.069 NA
ATOM      8  N5  <0> d          -3.949   2.908   3.975  0.00  0.00    -0.006 NA
ATOM      9  N6  <0> d          -3.962   2.538   2.739  0.00  0.00    -0.007 NA
ENDROOT
BRANCH   1  10
ATOM     10  C1  <0> d           1.498   1.575   2.434  0.00  0.00    -0.033 C 
ATOM     11  H1  <0> d           2.012   2.491   2.143  0.00  0.00     0.035 H 
ATOM     12  H2  <0> d           1.812   1.284   3.436  0.00  0.00     0.035 H 
ATOM     13  H3  <0> d           1.746   0.780   1.730  0.00  0.00     0.035 H 
ENDBRANCH   1  10
BRANCH   2  14
ATOM     14  C5  <0> d          -0.013   1.086   0.008  0.00  0.00    -0.032 C 
ATOM     15  H4  <0> d           0.002  -0.004   0.002  0.00  0.00     0.035 H 
ATOM     16  H5  <0> d           1.010   1.463   0.000  0.00  0.00     0.035 H 
ATOM     17  H6  <0> d          -0.540   1.447  -0.875  0.00  0.00     0.035 H 
ENDBRANCH   2  14
TORSDOF 2
