REMARK  7 active torsions:
REMARK  status: ('A' for Active; 'I' for Inactive)
REMARK    1  A    between atoms: C1_1  and  C2_2 
REMARK    2  A    between atoms: C2_2  and  C3_3 
REMARK    3  A    between atoms: C3_3  and  C4_4 
REMARK    4  A    between atoms: C4_4  and  C5_6 
REMARK    5  A    between atoms: C4_4  and  C7_9 
REMARK    6  A    between atoms: C5_6  and  C6_7 
REMARK    7  A    between atoms: C6_7  and  O1_8 
ROOT
ATOM      1  C7  <0> d           1.552  -2.513  -0.139  0.00  0.00    -0.113 C 
ATOM      2  C8  <0> d           2.201  -2.901   0.760  0.00  0.00    -0.154 C 
ATOM      3  H14 <0> d           2.781  -3.247   1.563  0.00  0.00     0.166 H 
ENDROOT
BRANCH   1   4
ATOM      4  C4  <0> d           0.739  -2.027  -1.265  0.00  0.00     0.007 C 
ATOM      5  H1  <0> d          -0.279  -2.405  -1.168  0.00  0.00     0.059 H 
BRANCH   4   6
ATOM      6  C3  <0> d           0.718  -0.497  -1.257  0.00  0.00    -0.052 C 
ATOM      7  H7  <0> d           0.191  -0.136  -2.140  0.00  0.00     0.034 H 
ATOM      8  H8  <0> d           1.741  -0.120  -1.264  0.00  0.00     0.034 H 
BRANCH   6   9
ATOM      9  C2  <0> d           0.002  -0.004   0.002  0.00  0.00    -0.067 C 
ATOM     10  H5  <0> d           0.529  -0.365   0.885  0.00  0.00     0.032 H 
ATOM     11  H6  <0> d          -1.020  -0.381   0.010  0.00  0.00     0.032 H 
BRANCH   9  12
ATOM     12  C1  <0> d          -0.019   1.526   0.010  0.00  0.00    -0.076 C 
ATOM     13  H2  <0> d           1.004   1.903   0.003  0.00  0.00     0.027 H 
ATOM     14  H3  <0> d          -0.546   1.887  -0.873  0.00  0.00     0.027 H 
ATOM     15  H4  <0> d          -0.529   1.877   0.907  0.00  0.00     0.027 H 
ENDBRANCH   9  12
ENDBRANCH   6   9
ENDBRANCH   4   6
BRANCH   4  16
ATOM     16  C5  <0> d           1.343  -2.522  -2.581  0.00  0.00    -0.032 C 
ATOM     17  H9  <0> d           0.794  -2.090  -3.418  0.00  0.00     0.037 H 
ATOM     18  H10 <0> d           2.389  -2.219  -2.638  0.00  0.00     0.037 H 
BRANCH  16  19
ATOM     19  C6  <0> d           1.250  -4.048  -2.643  0.00  0.00     0.018 C 
ATOM     20  H11 <0> d           1.799  -4.480  -1.806  0.00  0.00     0.074 H 
ATOM     21  H12 <0> d           0.204  -4.351  -2.587  0.00  0.00     0.074 H 
BRANCH  19  22
ATOM     22  O1  <0> d           1.814  -4.510  -3.872  0.00  0.00    -0.401 OA
ATOM     23  H13 <0> d           1.789  -5.471  -3.980  0.00  0.00     0.209 HD
ENDBRANCH  19  22
ENDBRANCH  16  19
ENDBRANCH   4  16
ENDBRANCH   1   4
TORSDOF 7
