REMARK  5 active torsions:
REMARK  status: ('A' for Active; 'I' for Inactive)
REMARK    1  A    between atoms: C1_1  and  C2_2 
REMARK    2  A    between atoms: C2_2  and  O1_3 
REMARK    3  A    between atoms: O1_3  and  C3_4 
REMARK    4  A    between atoms: C4_5  and  N2_11 
REMARK    5  A    between atoms: C8_9  and  N1_10 
ROOT
ATOM      1  C3  <0> d          -0.148   1.181   2.382  0.00  0.00     0.121 A 
ATOM      2  C4  <0> d          -0.560   0.005   2.999  0.00  0.00     0.061 A 
ATOM      3  C5  <0> d          -0.008  -0.366   4.219  0.00  0.00    -0.055 A 
ATOM      4  C6  <0> d           0.940   0.437   4.823  0.00  0.00    -0.079 A 
ATOM      5  C7  <0> d           1.348   1.609   4.216  0.00  0.00    -0.055 A 
ATOM      6  C8  <0> d           0.807   1.986   2.994  0.00  0.00     0.061 A 
ATOM      7  H6  <0> d          -0.324  -1.281   4.697  0.00  0.00     0.087 H 
ATOM      8  H7  <0> d           1.364   0.147   5.774  0.00  0.00     0.083 H 
ATOM      9  H8  <0> d           2.090   2.234   4.693  0.00  0.00     0.087 H 
ENDROOT
BRANCH   1  10
ATOM     10  O1  <0> d          -0.682   1.547   1.184  0.00  0.00    -0.347 OA
BRANCH  10  11
ATOM     11  C2  <0> d          -0.013   1.086   0.008  0.00  0.00     0.023 C 
ATOM     12  H4  <0> d           0.002  -0.004   0.002  0.00  0.00     0.074 H 
ATOM     13  H5  <0> d           1.010   1.463   0.000  0.00  0.00     0.074 H 
BRANCH  11  14
ATOM     14  C1  <0> d          -0.753   1.593  -1.232  0.00  0.00    -0.056 C 
ATOM     15  H1  <0> d          -0.767   2.683  -1.226  0.00  0.00     0.030 H 
ATOM     16  H2  <0> d          -0.242   1.241  -2.128  0.00  0.00     0.030 H 
ATOM     17  H3  <0> d          -1.775   1.215  -1.224  0.00  0.00     0.030 H 
ENDBRANCH  11  14
ENDBRANCH  10  11
ENDBRANCH   1  10
BRANCH   6  18
ATOM     18  N1  <0> d           1.222   3.174   2.380  0.00  0.00    -0.397 N 
ATOM     19  H9  <0> d           0.843   3.436   1.526  0.00  0.00     0.156 HD
ATOM     20  H10 <0> d           1.887   3.734   2.808  0.00  0.00     0.156 HD
ENDBRANCH   6  18
BRANCH   2  21
ATOM     21  N2  <0> d          -1.525  -0.805   2.390  0.00  0.00    -0.397 N 
ATOM     22  H11 <0> d          -1.907  -0.547   1.537  0.00  0.00     0.156 HD
ATOM     23  H12 <0> d          -1.812  -1.625   2.822  0.00  0.00     0.156 HD
ENDBRANCH   2  21
TORSDOF 5
