REMARK  2 active torsions:
REMARK  status: ('A' for Active; 'I' for Inactive)
REMARK    1  A    between atoms: C5_6  and  C6_7 
REMARK    2  A    between atoms: C6_7  and  O2_8 
ROOT
ATOM      1  C1  <0> d          -2.144   0.956  -1.294  0.00  0.00    -0.040 C 
ATOM      2  C2  <0> d          -2.847   1.407  -2.577  0.00  0.00     0.020 C 
ATOM      3  O1  <0> d          -2.051   1.044  -3.707  0.00  0.00    -0.391 OA
ATOM      4  C3  <0> d          -0.756   1.647  -3.727  0.00  0.00     0.020 C 
ATOM      5  C4  <0> d           0.030   1.206  -2.490  0.00  0.00    -0.040 C 
ATOM      6  C5  <0> d          -0.753   1.593  -1.232  0.00  0.00    -0.030 C 
ATOM      7  H1  <0> d          -2.048  -0.130  -1.294  0.00  0.00     0.036 H 
ATOM      8  H2  <0> d          -2.728   1.271  -0.429  0.00  0.00     0.036 H 
ATOM      9  H3  <0> d          -2.979   2.489  -2.558  0.00  0.00     0.074 H 
ATOM     10  H4  <0> d          -3.821   0.923  -2.648  0.00  0.00     0.074 H 
ATOM     11  H5  <0> d          -0.861   2.732  -3.723  0.00  0.00     0.074 H 
ATOM     12  H6  <0> d          -0.224   1.337  -4.626  0.00  0.00     0.074 H 
ATOM     13  H7  <0> d           1.002   1.700  -2.480  0.00  0.00     0.036 H 
ATOM     14  H8  <0> d           0.171   0.125  -2.514  0.00  0.00     0.036 H 
ATOM     15  H9  <0> d          -0.849   2.677  -1.181  0.00  0.00     0.043 H 
ENDROOT
BRANCH   6  16
ATOM     16  C6  <0> d          -0.013   1.086   0.008  0.00  0.00     0.020 C 
ATOM     17  H10 <0> d           0.002  -0.004   0.002  0.00  0.00     0.074 H 
ATOM     18  H11 <0> d           1.010   1.463   0.000  0.00  0.00     0.074 H 
BRANCH  16  19
ATOM     19  O2  <0> d          -0.682   1.547   1.184  0.00  0.00    -0.400 OA
ATOM     20  H12 <0> d          -0.266   1.262   2.009  0.00  0.00     0.209 HD
ENDBRANCH  16  19
ENDBRANCH   6  16
TORSDOF 2
