REMARK  0 active torsions:
REMARK  status: ('A' for Active; 'I' for Inactive)
ROOT
ATOM      1  C1  <0> d          -0.017   1.380   0.010  0.00  0.00    -0.021 A 
ATOM      2  C2  <0> d           1.208   2.061   0.002  0.00  0.00     0.065 A 
ATOM      3  C3  <0> d           2.391   1.321  -0.014  0.00  0.00     0.024 A 
ATOM      4  N1  <0> d           2.359   0.004  -0.021  0.00  0.00    -0.244 NA
ATOM      5  C4  <0> d           1.222  -0.666  -0.014  0.00  0.00     0.164 A 
ATOM      6  C5  <0> d           0.002  -0.004   0.002  0.00  0.00     0.158 A 
ATOM      7  F1  <0> d          -1.154  -0.703   0.009  0.00  0.00    -0.203 F 
ATOM      8 Cl1  <0> d           1.252  -2.401  -0.024  0.00  0.00    -0.059 Cl
ATOM      9  C6  <0> d           1.245   3.492   0.009  0.00  0.00     0.101 C 
ATOM     10  N2  <0> d           1.274   4.628   0.014  0.00  0.00    -0.191 NA
ATOM     11  H1  <0> d          -0.951   1.922   0.026  0.00  0.00     0.090 H 
ATOM     12  H2  <0> d           3.342   1.833  -0.020  0.00  0.00     0.117 H 
ENDROOT
TORSDOF 0
