REMARK  7 active torsions:
REMARK  status: ('A' for Active; 'I' for Inactive)
REMARK    1  A    between atoms: C1_1  and  C2_2 
REMARK    2  A    between atoms: C2_2  and  C3_3 
REMARK    3  A    between atoms: C3_3  and  O3_9 
REMARK    4  A    between atoms: C4_4  and  C5_5 
REMARK    5  A    between atoms: C5_5  and  O2_7 
REMARK    6  A    between atoms: O2_7  and  C6_8 
REMARK    7  A    between atoms: O3_9  and  C7_10 
ROOT
ATOM      1  C3  <0> d           1.164  -2.614  -2.214  0.00  0.00     0.051 C 
ATOM      2  C4  <0> d           0.896  -2.057  -1.019  0.00  0.00     0.018 C 
ATOM      3  H6  <0> d           0.354  -2.617  -0.271  0.00  0.00     0.096 H 
ENDROOT
BRANCH   1   4
ATOM      4  C2  <0> d           1.776  -1.783  -3.312  0.00  0.00    -0.024 C 
ATOM      5  H4  <0> d           1.492  -2.195  -4.280  0.00  0.00     0.042 H 
ATOM      6  H5  <0> d           1.416  -0.757  -3.235  0.00  0.00     0.042 H 
BRANCH   4   7
ATOM      7  C1  <0> d           3.300  -1.800  -3.176  0.00  0.00    -0.071 C 
ATOM      8  H1  <0> d           3.659  -2.826  -3.254  0.00  0.00     0.028 H 
ATOM      9  H2  <0> d           3.742  -1.199  -3.971  0.00  0.00     0.028 H 
ATOM     10  H3  <0> d           3.583  -1.387  -2.208  0.00  0.00     0.028 H 
ENDBRANCH   4   7
ENDBRANCH   1   4
BRANCH   1  11
ATOM     11  O3  <0> d           0.886  -3.915  -2.428  0.00  0.00    -0.360 OA
BRANCH  11  12
ATOM     12  C7  <0> d           0.298  -4.654  -1.325  0.00  0.00     0.010 C 
ATOM     13  H10 <0> d           0.125  -5.686  -1.631  0.00  0.00     0.066 H 
ATOM     14  H11 <0> d           0.977  -4.636  -0.473  0.00  0.00     0.066 H 
ATOM     15  H12 <0> d          -0.650  -4.194  -1.044  0.00  0.00     0.066 H 
ENDBRANCH  11  12
ENDBRANCH   1  11
BRANCH   2  16
ATOM     16  C5  <0> d           1.324  -0.736  -0.741  0.00  0.00     0.284 C 
ATOM     17  O1  <0> d           2.034  -0.147  -1.535  0.00  0.00    -0.260 OA
BRANCH  16  18
ATOM     18  O2  <0> d           0.944  -0.130   0.403  0.00  0.00    -0.323 OA
BRANCH  18  19
ATOM     19  C6  <0> d           1.413   1.202   0.618  0.00  0.00     0.013 C 
ATOM     20  H7  <0> d           2.503   1.206   0.632  0.00  0.00     0.067 H 
ATOM     21  H8  <0> d           1.057   1.847  -0.186  0.00  0.00     0.067 H 
ATOM     22  H9  <0> d           1.036   1.571   1.572  0.00  0.00     0.067 H 
ENDBRANCH  18  19
ENDBRANCH  16  18
ENDBRANCH   2  16
TORSDOF 7
