REMARK  5 active torsions:
REMARK  status: ('A' for Active; 'I' for Inactive)
REMARK    1  A    between atoms: C1_1  and  O1_2 
REMARK    2  A    between atoms: O1_2  and  C2_3 
REMARK    3  A    between atoms: C2_3  and  C3_5 
REMARK    4  A    between atoms: C3_5  and  C4_7 
REMARK    5  A    between atoms: C3_5  and  N1_11 
ROOT
ATOM      1  C3  <0> d           0.657  -2.104  -1.120  0.00  0.00     0.220 C 
ATOM      2  H1  <0> d           0.861  -2.510  -0.129  0.00  0.00     0.104 H 
ENDROOT
BRANCH   1   3
ATOM      3  C2  <0> d           0.598  -0.600  -1.043  0.00  0.00     0.292 C 
ATOM      4  O2  <0> d           1.088   0.070  -1.921  0.00  0.00    -0.263 OA
BRANCH   3   5
ATOM      5  O1  <0> d           0.002  -0.004   0.002  0.00  0.00    -0.325 OA
BRANCH   5   6
ATOM      6  C1  <0> d          -0.017   1.425   0.010  0.00  0.00     0.013 C 
ATOM      7  H2  <0> d           1.005   1.802   0.002  0.00  0.00     0.067 H 
ATOM      8  H3  <0> d          -0.544   1.786  -0.873  0.00  0.00     0.067 H 
ATOM      9  H4  <0> d          -0.527   1.776   0.907  0.00  0.00     0.067 H 
ENDBRANCH   5   6
ENDBRANCH   3   5
ENDBRANCH   1   3
BRANCH   1  10
ATOM     10  C4  <0> d          -0.682  -2.641  -1.627  0.00  0.00     0.026 C 
ATOM     11  C6  <0> d          -0.732  -4.176  -1.744  0.00  0.00     0.027 C 
ATOM     12  O3  <0> d          -2.042  -4.066  -1.153  0.00  0.00    -0.390 OA
ATOM     13  H8  <0> d          -0.740  -4.540  -2.771  0.00  0.00     0.075 H 
ATOM     14  H9  <0> d          -0.006  -4.691  -1.114  0.00  0.00     0.075 H 
ATOM     15  C5  <0> d          -1.745  -2.804  -0.523  0.00  0.00     0.027 C 
ATOM     16  H6  <0> d          -1.328  -2.899   0.479  0.00  0.00     0.075 H 
ATOM     17  H7  <0> d          -2.557  -2.079  -0.583  0.00  0.00     0.075 H 
ATOM     18  H5  <0> d          -1.042  -2.120  -2.514  0.00  0.00     0.050 H 
ENDBRANCH   1  10
BRANCH   1  19
ATOM     19  N1  <0> d           1.727  -2.505  -2.043  0.00  0.00     0.093 N 
ATOM     20  H10 <0> d           1.562  -2.140  -2.969  0.00  0.00     0.313 HD
ATOM     21  H11 <0> d           2.630  -2.217  -1.697  0.00  0.00     0.313 HD
ENDBRANCH   1  19
TORSDOF 5
