REMARK  1 active torsions:
REMARK  status: ('A' for Active; 'I' for Inactive)
REMARK    1  A    between atoms: C1_1  and  C2_2 
ROOT
ATOM      1  C2  <0> d           0.654  -0.179   1.150  0.00  0.00     0.049 C 
ATOM      2  C3  <0> d           0.002  -0.004   0.002  0.00  0.00     0.168 C 
ATOM      3  S1  <0> d          -0.022   1.750   0.012  0.00  0.00    -0.067 SA
ATOM      4  C4  <0> d           1.670   1.273  -0.007  0.00  0.00     0.239 C 
ATOM      5  N1  <0> d           1.700   0.666   1.129  0.00  0.00    -0.247 NA
ATOM      6  N2  <0> d           2.275   0.734  -1.117  0.00  0.00    -0.301 N 
ATOM      7  C5  <0> d           1.523  -0.323  -1.651  0.00  0.00     0.320 C 
ATOM      8  O1  <0> d           1.947  -0.885  -2.641  0.00  0.00    -0.247 OA
ATOM      9  N3  <0> d           0.304  -0.767  -1.105  0.00  0.00    -0.316 N 
ATOM     10  H4  <0> d           3.118   1.044  -1.484  0.00  0.00     0.167 HD
ATOM     11  H5  <0> d          -0.236  -1.494  -1.453  0.00  0.00     0.166 HD
ENDROOT
BRANCH   1  12
ATOM     12  C1  <0> d           0.292  -1.136   2.256  0.00  0.00    -0.036 C 
ATOM     13  H1  <0> d           0.783  -2.094   2.083  0.00  0.00     0.035 H 
ATOM     14  H2  <0> d           0.618  -0.728   3.212  0.00  0.00     0.035 H 
ATOM     15  H3  <0> d          -0.789  -1.280   2.272  0.00  0.00     0.035 H 
ENDBRANCH   1  12
TORSDOF 1
