REMARK  1 active torsions:
REMARK  status: ('A' for Active; 'I' for Inactive)
REMARK    1  A    between atoms: C1_1  and  C2_2 
REMARK       I    between atoms: C2_2  and  N1_4 
ROOT
ATOM      1  C2  <0> d          -0.014   1.204   0.009  0.00  0.00     0.223 C 
ATOM      2  O1  <0> d           0.002  -0.004   0.002  0.00  0.00    -0.273 OA
ATOM      3  N1  <0> d           1.144   1.894   0.001  0.00  0.00    -0.304 N 
ATOM      4  C3  <0> d           1.262   3.260   0.002  0.00  0.00    -0.013 A 
ATOM      5  C4  <0> d           2.573   3.567  -0.003  0.00  0.00    -0.066 A 
ATOM      6  C5  <0> d           3.295   2.353  -0.017  0.00  0.00    -0.066 A 
ATOM      7  C6  <0> d           2.401   1.348  -0.014  0.00  0.00    -0.013 A 
ATOM      8  H4  <0> d           0.446   3.966   0.007  0.00  0.00     0.112 H 
ATOM      9  H5  <0> d           2.995   4.561  -0.002  0.00  0.00     0.085 H 
ATOM     10  H6  <0> d           4.370   2.251  -0.027  0.00  0.00     0.085 H 
ATOM     11  H7  <0> d           2.634   0.293  -0.021  0.00  0.00     0.112 H 
ENDROOT
BRANCH   1  12
ATOM     12  C1  <0> d          -1.329   1.940   0.019  0.00  0.00    -0.002 C 
ATOM     13  H1  <0> d          -1.143   3.024   0.024  0.00  0.00     0.040 H 
ATOM     14  H2  <0> d          -1.898   1.661   0.918  0.00  0.00     0.040 H 
ATOM     15  H3  <0> d          -1.907   1.671  -0.878  0.00  0.00     0.040 H 
ENDBRANCH   1  12
TORSDOF 1
