REMARK  2 active torsions:
REMARK  status: ('A' for Active; 'I' for Inactive)
REMARK    1  A    between atoms: C1_1  and  C2_2 
REMARK    2  A    between atoms: C4_4  and  N2_9 
ROOT
ATOM      1  C2  <0> d           3.696   2.675  -0.054  0.00  0.00    -0.044 A 
ATOM      2  C3  <0> d           3.122   2.398   1.179  0.00  0.00    -0.046 A 
ATOM      3  C4  <0> d           1.859   1.821   1.206  0.00  0.00     0.081 A 
ATOM      4  C5  <0> d           1.222   1.532  -0.001  0.00  0.00     0.205 A 
ATOM      5  N1  <0> d           1.805   1.813  -1.153  0.00  0.00    -0.342 N 
ATOM      6  C6  <0> d           3.003   2.366  -1.207  0.00  0.00    -0.015 A 
ATOM      7  O1  <0> d          -0.011   0.963   0.007  0.00  0.00    -0.170 OA
ATOM      8  H4  <0> d           3.644   2.631   2.096  0.00  0.00     0.088 H 
ATOM      9  H5  <0> d           3.447   2.580  -2.168  0.00  0.00     0.112 H 
ATOM     10  H8  <0> d           1.293   1.585  -2.099  0.00  0.00     0.167 HD
ENDROOT
BRANCH   1  11
ATOM     11  C1  <0> d           5.062   3.306  -0.133  0.00  0.00    -0.050 C 
ATOM     12  H1  <0> d           5.447   3.475   0.883  0.00  0.00     0.033 H 
ATOM     13  H2  <0> d           4.991   4.268  -0.663  0.00  0.00     0.033 H 
ATOM     14  H3  <0> d           5.744   2.637  -0.678  0.00  0.00     0.033 H 
ENDBRANCH   1  11
BRANCH   3  15
ATOM     15  N2  <0> d           1.237   1.528   2.425  0.00  0.00    -0.396 N 
ATOM     16  H6  <0> d           0.237   1.071   2.437  0.00  0.00     0.156 HD
ATOM     17  H7  <0> d           1.749   1.755   3.372  0.00  0.00     0.156 HD
ENDBRANCH   3  15
TORSDOF 2
