REMARK  2 active torsions:
REMARK  status: ('A' for Active; 'I' for Inactive)
REMARK    1  A    between atoms: C1_1  and  N6_11 
REMARK    2  A    between atoms: C2_2  and  N5_10 
ROOT
ATOM      1  C1  <0> d          -0.016   1.308   0.009  0.00  0.00     0.169 A 
ATOM      2  C2  <0> d           1.238   2.072   0.001  0.00  0.00     0.169 A 
ATOM      3  N1  <0> d           2.396   1.455  -0.013  0.00  0.00    -0.203 NA
ATOM      4  C3  <0> d           2.440   0.105  -0.021  0.00  0.00     0.231 A 
ATOM      5  C4  <0> d           1.181  -0.661  -0.013  0.00  0.00     0.231 A 
ATOM      6  N2  <0> d           0.002  -0.004   0.002  0.00  0.00    -0.203 NA
ATOM      7  N3  <0> d           1.483  -1.940  -0.022  0.00  0.00    -0.081 NA
ATOM      8  O1  <0> d           2.894  -2.056  -0.036  0.00  0.00    -0.103 OA
ATOM      9  N4  <0> d           3.438  -0.748  -0.035  0.00  0.00    -0.081 NA
ENDROOT
BRANCH   1  10
ATOM     10  N6  <0> d          -1.224   1.976   0.030  0.00  0.00    -0.381 N 
ATOM     11  H3  <0> d          -2.055   1.476   0.039  0.00  0.00     0.157 HD
ATOM     12  H4  <0> d          -1.242   2.946   0.035  0.00  0.00     0.157 HD
ENDBRANCH   1  10
BRANCH   2  13
ATOM     13  N5  <0> d           1.199   3.453   0.009  0.00  0.00    -0.381 N 
ATOM     14  H1  <0> d           0.345   3.913   0.019  0.00  0.00     0.157 HD
ATOM     15  H2  <0> d           2.024   3.962   0.004  0.00  0.00     0.157 HD
ENDBRANCH   2  13
TORSDOF 2
