REMARK  2 active torsions:
REMARK  status: ('A' for Active; 'I' for Inactive)
REMARK    1  A    between atoms: C1_1  and  C2_2 
REMARK    2  A    between atoms: C4_7  and  C5_8 
ROOT
ATOM      1  C5  <0> d          -0.013   1.086   0.008  0.00  0.00     0.043 C 
ATOM      2  C6  <0> d          -0.702   1.560   1.219  0.00  0.00     0.063 C 
ATOM      3  N3  <0> d          -1.233   1.927   2.154  0.00  0.00    -0.197 NA
ATOM      4  H4  <0> d           0.002  -0.014   0.002  0.00  0.00     0.062 H 
ATOM      5  H5  <0> d           1.019   1.466   0.000  0.00  0.00     0.062 H 
ENDROOT
BRANCH   1   6
ATOM      6  C4  <0> d          -0.753   1.593  -1.232  0.00  0.00     0.036 A 
ATOM      7  C2  <0> d          -0.073   1.107  -2.494  0.00  0.00     0.131 A 
ATOM      8  N1  <0> d          -0.739   1.564  -3.481  0.00  0.00    -0.196 NA
ATOM      9  N2  <0> d          -1.833   2.332  -3.094  0.00  0.00    -0.247 N 
ATOM     10  C3  <0> d          -1.923   2.407  -1.749  0.00  0.00     0.267 A 
ATOM     11  H6  <0> d          -2.574   2.845  -3.724  0.00  0.00     0.192 HD
ATOM     12  O1  <0> d          -2.759   2.996  -1.097  0.00  0.00    -0.266 OA
BRANCH   7  13
ATOM     13  C1  <0> d           0.116  -0.329  -2.913  0.00  0.00    -0.043 C 
ATOM     14  H1  <0> d           0.689  -0.864  -2.141  0.00  0.00     0.031 H 
ATOM     15  H2  <0> d           0.664  -0.364  -3.866  0.00  0.00     0.031 H 
ATOM     16  H3  <0> d          -0.867  -0.807  -3.038  0.00  0.00     0.031 H 
ENDBRANCH   7  13
ENDBRANCH   1   6
TORSDOF 2
