REMARK  3 active torsions:
REMARK  status: ('A' for Active; 'I' for Inactive)
REMARK    1  A    between atoms: C1_1  and  C2_2 
REMARK    2  A    between atoms: C2_2  and  C3_4 
REMARK    3  A    between atoms: C2_2  and  C8_10 
ROOT
ATOM      1  C3  <0> d           0.707  -0.490  -1.238  0.00  0.00    -0.027 A 
ATOM      2  C4  <0> d           0.042  -1.287  -2.157  0.00  0.00    -0.073 A 
ATOM      3  C5  <0> d           0.731  -1.711  -3.283  0.00  0.00    -0.066 A 
ATOM      4  C6  <0> d           2.048  -1.328  -3.451  0.00  0.00     0.002 A 
ATOM      5  N1  <0> d           2.649  -0.569  -2.555  0.00  0.00    -0.273 NA
ATOM      6  C7  <0> d           2.023  -0.142  -1.476  0.00  0.00     0.009 A 
ATOM      7  H5  <0> d          -0.988  -1.571  -2.000  0.00  0.00     0.084 H 
ATOM      8  H6  <0> d           0.244  -2.333  -4.020  0.00  0.00     0.085 H 
ATOM      9  H7  <0> d           2.592  -1.653  -4.325  0.00  0.00     0.114 H 
ATOM     10  H8  <0> d           2.547   0.482  -0.767  0.00  0.00     0.115 H 
ENDROOT
BRANCH   1  11
ATOM     11  C2  <0> d           0.002  -0.004   0.002  0.00  0.00     0.054 C 
ATOM     12  H1  <0> d          -1.020  -0.381   0.010  0.00  0.00     0.063 H 
BRANCH  11  13
ATOM     13  C1  <0> d          -0.019   1.526   0.010  0.00  0.00    -0.060 C 
ATOM     14  H2  <0> d           1.004   1.903   0.003  0.00  0.00     0.029 H 
ATOM     15  H3  <0> d          -0.546   1.887  -0.873  0.00  0.00     0.029 H 
ATOM     16  H4  <0> d          -0.529   1.877   0.907  0.00  0.00     0.029 H 
ENDBRANCH  11  13
BRANCH  11  17
ATOM     17  C8  <0> d           0.731  -0.503   1.223  0.00  0.00     0.181 C 
ATOM     18  O1  <0> d           0.315  -1.478   1.825  0.00  0.00    -0.647 OA
ATOM     19  O2  <0> d           1.737   0.068   1.608  0.00  0.00    -0.647 OA
ENDBRANCH  11  17
ENDBRANCH   1  11
TORSDOF 3
