REMARK  1 active torsions:
REMARK  status: ('A' for Active; 'I' for Inactive)
REMARK    1  A    between atoms: C3_3  and  C6_8 
REMARK       I    between atoms: C6_8  and  N1_10 
ROOT
ATOM      1  C1  <0> d          -0.019   1.527   0.010  0.00  0.00    -0.044 C 
ATOM      2  C2  <0> d           1.421   2.049  -0.001  0.00  0.00    -0.050 C 
ATOM      3  C3  <0> d           2.148   1.484  -1.225  0.00  0.00     0.044 C 
ATOM      4  H1  <0> d           1.667   1.845  -2.133  0.00  0.00     0.058 H 
ATOM      5  C4  <0> d           2.085  -0.045  -1.185  0.00  0.00     0.031 C 
ATOM      6  O1  <0> d           0.720  -0.463  -1.145  0.00  0.00    -0.390 OA
ATOM      7  C5  <0> d           0.002  -0.004   0.002  0.00  0.00     0.019 C 
ATOM      8  H2  <0> d          -0.527   1.879   0.908  0.00  0.00     0.036 H 
ATOM      9  H3  <0> d          -0.544   1.889  -0.873  0.00  0.00     0.036 H 
ATOM     10  H4  <0> d           1.414   3.138  -0.051  0.00  0.00     0.034 H 
ATOM     11  H5  <0> d           1.932   1.728   0.907  0.00  0.00     0.034 H 
ATOM     12  H6  <0> d           2.564  -0.451  -2.076  0.00  0.00     0.075 H 
ATOM     13  H7  <0> d           2.603  -0.407  -0.297  0.00  0.00     0.075 H 
ATOM     14  H8  <0> d           0.492  -0.366   0.906  0.00  0.00     0.074 H 
ATOM     15  H9  <0> d          -1.020  -0.381  -0.033  0.00  0.00     0.074 H 
ENDROOT
BRANCH   3  16
ATOM     16  C6  <0> d           3.587   1.931  -1.206  0.00  0.00     0.221 C 
ATOM     17  O2  <0> d           3.993   2.632  -0.303  0.00  0.00    -0.273 OA
ATOM     18  N1  <0> d           4.424   1.552  -2.193  0.00  0.00    -0.370 N 
ATOM     19  H10 <0> d           4.099   0.991  -2.915  0.00  0.00     0.159 HD
ATOM     20  H11 <0> d           5.350   1.839  -2.181  0.00  0.00     0.159 HD
ENDBRANCH   3  16
TORSDOF 1
