REMARK  4 active torsions:
REMARK  status: ('A' for Active; 'I' for Inactive)
REMARK    1  A    between atoms: C1_1  and  C2_2 
REMARK    2  A    between atoms: C2_2  and  C3_3 
REMARK    3  A    between atoms: C3_3  and  C4_4 
REMARK    4  A    between atoms: C4_4  and  C5_5 
ROOT
ATOM      1  C5  <0> d          -2.793  -2.573   0.015  0.00  0.00    -0.089 C 
ATOM      2  C6  <0> d          -3.895  -2.979   0.023  0.00  0.00     0.004 C 
ATOM      3 Cl1  <0> d          -5.434  -3.547   0.035  0.00  0.00    -0.023 Cl
ENDROOT
BRANCH   1   4
ATOM      4  C4  <0> d          -1.413  -2.063   0.004  0.00  0.00    -0.008 C 
ATOM      5  H8  <0> d          -0.902  -2.415  -0.892  0.00  0.00     0.051 H 
ATOM      6  H9  <0> d          -0.885  -2.425   0.887  0.00  0.00     0.051 H 
BRANCH   4   7
ATOM      7  C3  <0> d          -1.433  -0.534   0.013  0.00  0.00    -0.056 C 
ATOM      8  H6  <0> d          -1.944  -0.182   0.910  0.00  0.00     0.034 H 
ATOM      9  H7  <0> d          -1.960  -0.173  -0.870  0.00  0.00     0.034 H 
BRANCH   7  10
ATOM     10  C2  <0> d           0.002  -0.004   0.002  0.00  0.00    -0.068 C 
ATOM     11  H4  <0> d           0.512  -0.356  -0.895  0.00  0.00     0.032 H 
ATOM     12  H5  <0> d           0.529  -0.365   0.885  0.00  0.00     0.032 H 
BRANCH  10  13
ATOM     13  C1  <0> d          -0.019   1.526   0.010  0.00  0.00    -0.076 C 
ATOM     14  H1  <0> d           1.004   1.903   0.003  0.00  0.00     0.027 H 
ATOM     15  H2  <0> d          -0.546   1.887  -0.873  0.00  0.00     0.027 H 
ATOM     16  H3  <0> d          -0.529   1.877   0.907  0.00  0.00     0.027 H 
ENDBRANCH  10  13
ENDBRANCH   7  10
ENDBRANCH   4   7
ENDBRANCH   1   4
TORSDOF 4
