REMARK  2 active torsions:
REMARK  status: ('A' for Active; 'I' for Inactive)
REMARK    1  A    between atoms: C1_1  and  C2_2 
REMARK    2  A    between atoms: C4_4  and  N2_10 
ROOT
ATOM      1  C2  <0> d          -3.624   1.601   0.028  0.00  0.00    -0.039 A 
ATOM      2  C3  <0> d          -2.420   0.932   0.019  0.00  0.00    -0.051 A 
ATOM      3  C4  <0> d          -1.226   1.645   0.017  0.00  0.00     0.026 A 
ATOM      4  C5  <0> d          -1.243   3.037   0.030  0.00  0.00    -0.056 A 
ATOM      5  C6  <0> d          -2.442   3.712   0.035  0.00  0.00    -0.060 A 
ATOM      6  C7  <0> d          -3.644   2.998   0.037  0.00  0.00     0.050 A 
ATOM      7  C8  <0> d          -4.894   3.697   0.046  0.00  0.00     0.100 C 
ATOM      8  N1  <0> d          -5.886   4.252   0.054  0.00  0.00    -0.191 NA
ATOM      9  H4  <0> d          -2.404  -0.148   0.013  0.00  0.00     0.087 H 
ATOM     10  H5  <0> d          -0.314   3.588   0.033  0.00  0.00     0.086 H 
ATOM     11  H6  <0> d          -2.455   4.792   0.041  0.00  0.00     0.086 H 
ENDROOT
BRANCH   1  12
ATOM     12  C1  <0> d          -4.917   0.827   0.030  0.00  0.00    -0.050 C 
ATOM     13  H1  <0> d          -5.224   0.634   1.058  0.00  0.00     0.033 H 
ATOM     14  H2  <0> d          -5.688   1.407  -0.477  0.00  0.00     0.033 H 
ATOM     15  H3  <0> d          -4.774  -0.120  -0.490  0.00  0.00     0.033 H 
ENDBRANCH   1  12
BRANCH   3  16
ATOM     16  N2  <0> d          -0.011   0.966   0.007  0.00  0.00    -0.399 N 
ATOM     17  H7  <0> d           0.002  -0.004   0.002  0.00  0.00     0.156 HD
ATOM     18  H8  <0> d           0.822   1.462   0.002  0.00  0.00     0.156 HD
ENDBRANCH   3  16
TORSDOF 2
