REMARK  4 active torsions:
REMARK  status: ('A' for Active; 'I' for Inactive)
REMARK    1  A    between atoms: C1_1  and  C2_2 
REMARK    2  A    between atoms: C2_2  and  C3_3 
REMARK    3  A    between atoms: C5_6  and  C8_12 
REMARK    4  A    between atoms: C6_8  and  C7_11 
ROOT
ATOM      1  C3  <0> d          -0.013   1.086   0.008  0.00  0.00     0.039 C 
ATOM      2  H1  <0> d           0.002  -0.004   0.002  0.00  0.00     0.083 H 
ATOM      3  C4  <0> d           1.428   1.643  -0.003  0.00  0.00    -0.036 C 
ATOM      4  C5  <0> d           1.718   1.905  -1.498  0.00  0.00    -0.030 C 
ATOM      5  H2  <0> d           1.916   2.963  -1.669  0.00  0.00     0.043 H 
ATOM      6  C6  <0> d           0.418   1.475  -2.213  0.00  0.00     0.038 C 
ATOM      7  H3  <0> d           0.500   0.445  -2.562  0.00  0.00     0.083 H 
ATOM      8  O1  <0> d          -0.612   1.587  -1.207  0.00  0.00    -0.381 OA
ATOM      9  H9  <0> d           1.482   2.572   0.565  0.00  0.00     0.037 H 
ATOM     10  H10 <0> d           2.125   0.908   0.399  0.00  0.00     0.037 H 
ENDROOT
BRANCH   1  11
ATOM     11  C2  <0> d          -0.774   1.600   1.232  0.00  0.00    -0.044 C 
ATOM     12  H7  <0> d          -0.230   1.333   2.137  0.00  0.00     0.036 H 
ATOM     13  H8  <0> d          -0.868   2.685   1.171  0.00  0.00     0.036 H 
BRANCH  11  14
ATOM     14  C1  <0> d          -2.167   0.969   1.268  0.00  0.00    -0.074 C 
ATOM     15  H4  <0> d          -2.711   1.237   0.362  0.00  0.00     0.027 H 
ATOM     16  H5  <0> d          -2.073  -0.115   1.328  0.00  0.00     0.027 H 
ATOM     17  H6  <0> d          -2.709   1.336   2.140  0.00  0.00     0.027 H 
ENDBRANCH  11  14
ENDBRANCH   1  11
BRANCH   6  18
ATOM     18  C7  <0> d           0.121   2.411  -3.386  0.00  0.00    -0.052 C 
ATOM     19  H11 <0> d           0.947   2.376  -4.097  0.00  0.00     0.030 H 
ATOM     20  H12 <0> d          -0.797   2.094  -3.880  0.00  0.00     0.030 H 
ATOM     21  H13 <0> d           0.003   3.430  -3.017  0.00  0.00     0.030 H 
ENDBRANCH   6  18
BRANCH   4  22
ATOM     22  C8  <0> d           2.898   1.054  -1.972  0.00  0.00    -0.070 C 
ATOM     23  H14 <0> d           2.673  -0.000  -1.812  0.00  0.00     0.028 H 
ATOM     24  H15 <0> d           3.071   1.232  -3.033  0.00  0.00     0.028 H 
ATOM     25  H16 <0> d           3.791   1.324  -1.407  0.00  0.00     0.028 H 
ENDBRANCH   4  22
TORSDOF 4
