REMARK  4 active torsions:
REMARK  status: ('A' for Active; 'I' for Inactive)
REMARK    1  A    between atoms: C1_1  and  C2_2 
REMARK    2  A    between atoms: C2_2  and  C3_3 
REMARK    3  A    between atoms: C3_3  and  C7_10 
REMARK    4  A    between atoms: C5_6  and  C6_9 
ROOT
ATOM      1  C3  <0> d           1.345   1.882  -0.001  0.00  0.00     0.160 C 
ATOM      2  O1  <0> d           2.208   0.732  -0.031  0.00  0.00    -0.353 OA
ATOM      3  C4  <0> d           1.417  -0.338   0.538  0.00  0.00     0.047 C 
ATOM      4  C5  <0> d           0.002  -0.004   0.002  0.00  0.00     0.059 C 
ATOM      5  H1  <0> d          -0.126  -0.386  -1.011  0.00  0.00     0.086 H 
ATOM      6  O2  <0> d          -0.018   1.438   0.010  0.00  0.00    -0.348 OA
ATOM      7  H7  <0> d           1.439  -0.304   1.627  0.00  0.00     0.078 H 
ATOM      8  H8  <0> d           1.753  -1.309   0.173  0.00  0.00     0.078 H 
ENDROOT
BRANCH   1   9
ATOM      9  C2  <0> d           1.595   2.745  -1.240  0.00  0.00    -0.017 C 
ATOM     10  H5  <0> d           1.399   2.158  -2.137  0.00  0.00     0.040 H 
ATOM     11  H6  <0> d           0.932   3.610  -1.220  0.00  0.00     0.040 H 
BRANCH   9  12
ATOM     12  C1  <0> d           3.050   3.217  -1.247  0.00  0.00    -0.072 C 
ATOM     13  H2  <0> d           3.246   3.804  -0.350  0.00  0.00     0.027 H 
ATOM     14  H3  <0> d           3.713   2.352  -1.267  0.00  0.00     0.027 H 
ATOM     15  H4  <0> d           3.228   3.832  -2.130  0.00  0.00     0.027 H 
ENDBRANCH   9  12
ENDBRANCH   1   9
BRANCH   1  16
ATOM     16  C7  <0> d           1.628   2.704   1.259  0.00  0.00    -0.025 C 
ATOM     17  H12 <0> d           1.444   2.091   2.141  0.00  0.00     0.035 H 
ATOM     18  H13 <0> d           2.668   3.030   1.254  0.00  0.00     0.035 H 
ATOM     19  H14 <0> d           0.974   3.575   1.279  0.00  0.00     0.035 H 
ENDBRANCH   1  16
BRANCH   4  20
ATOM     20  C6  <0> d          -1.075  -0.565   0.932  0.00  0.00    -0.050 C 
ATOM     21  H9  <0> d          -2.058  -0.245   0.585  0.00  0.00     0.031 H 
ATOM     22  H10 <0> d          -1.026  -1.653   0.931  0.00  0.00     0.031 H 
ATOM     23  H11 <0> d          -0.910  -0.195   1.944  0.00  0.00     0.031 H 
ENDBRANCH   4  20
TORSDOF 4
