REMARK  2 active torsions:
REMARK  status: ('A' for Active; 'I' for Inactive)
REMARK    1  A    between atoms: C1_1  and  C2_2 
REMARK    2  A    between atoms: C6_7  and  N2_8 
ROOT
ATOM      1  C2  <0> d          -0.017   1.389   0.010  0.00  0.00    -0.031 A 
ATOM      2  C3  <0> d           1.193   2.063   0.002  0.00  0.00    -0.036 A 
ATOM      3  C4  <0> d           2.371   1.338  -0.013  0.00  0.00     0.126 A 
ATOM      4  N1  <0> d           2.354   0.018  -0.020  0.00  0.00    -0.247 NA
ATOM      5  C5  <0> d           1.225  -0.662  -0.013  0.00  0.00     0.029 A 
ATOM      6  C6  <0> d           0.002  -0.004   0.002  0.00  0.00     0.049 A 
ATOM      7 Cl1  <0> d           3.892   2.175  -0.023  0.00  0.00    -0.062 Cl
ATOM      8  H4  <0> d           1.216   3.143   0.007  0.00  0.00     0.089 H 
ATOM      9  H5  <0> d           1.252  -1.741  -0.020  0.00  0.00     0.118 H 
ENDROOT
BRANCH   1  10
ATOM     10  C1  <0> d          -1.321   2.143   0.020  0.00  0.00    -0.049 C 
ATOM     11  H1  <0> d          -1.631   2.319   1.050  0.00  0.00     0.033 H 
ATOM     12  H2  <0> d          -1.193   3.098  -0.489  0.00  0.00     0.033 H 
ATOM     13  H3  <0> d          -2.084   1.557  -0.493  0.00  0.00     0.033 H 
ENDBRANCH   1  10
BRANCH   6  14
ATOM     14  N2  <0> d          -1.193  -0.729   0.010  0.00  0.00    -0.398 N 
ATOM     15  H6  <0> d          -2.043  -0.263   0.021  0.00  0.00     0.156 HD
ATOM     16  H7  <0> d          -1.172  -1.699   0.005  0.00  0.00     0.156 HD
ENDBRANCH   6  14
TORSDOF 2
