REMARK  0 active torsions:
REMARK  status: ('A' for Active; 'I' for Inactive)
ROOT
ATOM      1  C1  <0> d          -0.016   1.301   0.009  0.00  0.00     0.045 A 
ATOM      2  C2  <0> d           1.367   1.737  -0.002  0.00  0.00     0.061 A 
ATOM      3  C3  <0> d           2.159   0.598  -0.018  0.00  0.00     0.094 A 
ATOM      4  O1  <0> d           1.347  -0.450  -0.013  0.00  0.00    -0.217 OA
ATOM      5  N1  <0> d           0.002  -0.004   0.002  0.00  0.00    -0.140 NA
ATOM      6  C4  <0> d           3.665   0.647  -0.039  0.00  0.00    -0.017 C 
ATOM      7  C5  <0> d           4.119   2.021  -0.542  0.00  0.00    -0.053 C 
ATOM      8  C6  <0> d           3.449   3.140   0.262  0.00  0.00    -0.005 C 
ATOM      9  C7  <0> d           1.951   3.086   0.004  0.00  0.00     0.163 C 
ATOM     10  O2  <0> d           1.286   4.084  -0.183  0.00  0.00    -0.292 OA
ATOM     11  H1  <0> d          -0.891   1.933   0.025  0.00  0.00     0.119 H 
ATOM     12  H2  <0> d           4.048   0.483   0.968  0.00  0.00     0.043 H 
ATOM     13  H3  <0> d           4.045  -0.128  -0.704  0.00  0.00     0.043 H 
ATOM     14  H4  <0> d           5.201   2.102  -0.438  0.00  0.00     0.034 H 
ATOM     15  H5  <0> d           3.851   2.124  -1.593  0.00  0.00     0.034 H 
ATOM     16  H6  <0> d           3.644   2.996   1.325  0.00  0.00     0.044 H 
ATOM     17  H7  <0> d           3.842   4.106  -0.056  0.00  0.00     0.044 H 
ENDROOT
TORSDOF 0
