REMARK  3 active torsions:
REMARK  status: ('A' for Active; 'I' for Inactive)
REMARK    1  A    between atoms: C1_1  and  C2_2 
REMARK    2  A    between atoms: C3_3  and  C6_9 
REMARK    3  A    between atoms: C4_4  and  C5_8 
ROOT
ATOM      1  C2  <0> d           0.002  -0.004   0.002  0.00  0.00     0.043 A 
ATOM      2  C3  <0> d          -0.017   1.377   0.010  0.00  0.00     0.090 A 
ATOM      3  C4  <0> d           1.328   1.812  -0.001  0.00  0.00     0.069 A 
ATOM      4  N1  <0> d           2.094   0.756  -0.014  0.00  0.00    -0.179 NA
ATOM      5  N2  <0> d           1.288  -0.388  -0.012  0.00  0.00    -0.281 N 
ATOM      6  H1  <0> d           1.615  -1.333  -0.020  0.00  0.00     0.189 HD
ENDROOT
BRANCH   1   7
ATOM      7  C1  <0> d          -1.200  -0.913   0.009  0.00  0.00    -0.035 C 
ATOM      8  H2  <0> d          -1.500  -1.126  -1.017  0.00  0.00     0.035 H 
ATOM      9  H3  <0> d          -0.949  -1.844   0.515  0.00  0.00     0.035 H 
ATOM     10  H4  <0> d          -2.022  -0.424   0.534  0.00  0.00     0.035 H 
ENDBRANCH   1   7
BRANCH   2  11
ATOM     11  C6  <0> d          -1.214   2.235   0.020  0.00  0.00     0.213 C 
ATOM     12  O1  <0> d          -1.702   2.584   1.077  0.00  0.00    -0.644 OA
ATOM     13  O2  <0> d          -1.767   2.634  -1.142  0.00  0.00    -0.644 OA
ENDBRANCH   2  11
BRANCH   3  14
ATOM     14  C5  <0> d           1.796   3.245   0.002  0.00  0.00    -0.033 C 
ATOM     15  H5  <0> d           1.918   3.585   1.030  0.00  0.00     0.035 H 
ATOM     16  H6  <0> d           2.749   3.317  -0.521  0.00  0.00     0.035 H 
ATOM     17  H7  <0> d           1.057   3.869  -0.502  0.00  0.00     0.035 H 
ENDBRANCH   3  14
TORSDOF 3
