REMARK  3 active torsions:
REMARK  status: ('A' for Active; 'I' for Inactive)
REMARK    1  A    between atoms: C1_1  and  C2_2 
REMARK    2  A    between atoms: C2_2  and  C3_3 
REMARK    3  A    between atoms: C5_5  and  N2_8 
ROOT
ATOM      1  C3  <0> d          -1.133   1.929   0.017  0.00  0.00     0.066 A 
ATOM      2  C4  <0> d          -0.013   1.076   0.008  0.00  0.00    -0.006 A 
ATOM      3  C5  <0> d           1.052   1.933   0.002  0.00  0.00     0.168 A 
ATOM      4  O1  <0> d           0.536   3.172   0.014  0.00  0.00    -0.196 OA
ATOM      5  N1  <0> d          -0.672   3.148   0.025  0.00  0.00    -0.131 NA
ATOM      6  H6  <0> d           0.002  -0.004   0.002  0.00  0.00     0.093 H 
ENDROOT
BRANCH   1   7
ATOM      7  C2  <0> d          -2.582   1.513   0.021  0.00  0.00    -0.026 C 
ATOM      8  H4  <0> d          -2.649   0.418   0.105  0.00  0.00     0.041 H 
ATOM      9  H5  <0> d          -3.059   1.838  -0.916  0.00  0.00     0.041 H 
BRANCH   7  10
ATOM     10  C1  <0> d          -3.296   2.161   1.208  0.00  0.00    -0.071 C 
ATOM     11  H1  <0> d          -4.353   1.858   1.211  0.00  0.00     0.028 H 
ATOM     12  H2  <0> d          -3.229   3.256   1.124  0.00  0.00     0.028 H 
ATOM     13  H3  <0> d          -2.819   1.836   2.145  0.00  0.00     0.028 H 
ENDBRANCH   7  10
ENDBRANCH   1   7
BRANCH   3  14
ATOM     14  N2  <0> d           2.392   1.591  -0.013  0.00  0.00    -0.378 N 
ATOM     15  H7  <0> d           3.160   2.379  -0.016  0.00  0.00     0.158 HD
ATOM     16  H8  <0> d           2.690   0.533  -0.022  0.00  0.00     0.158 HD
ENDBRANCH   3  14
TORSDOF 3
