REMARK  2 active torsions:
REMARK  status: ('A' for Active; 'I' for Inactive)
REMARK    1  A    between atoms: C1_1  and  C2_2 
REMARK    2  A    between atoms: C3_3  and  C4_7 
REMARK       I    between atoms: C4_7  and  N3_9 
ROOT
ATOM      1  C2  <0> d          -2.285   3.974   0.035  0.00  0.00     0.077 A 
ATOM      2  C3  <0> d          -1.207   3.095   0.025  0.00  0.00     0.118 A 
ATOM      3  S1  <0> d           0.144   4.260   0.032  0.00  0.00     0.042 SA
ATOM      4  N1  <0> d          -0.697   5.598   0.036  0.00  0.00    -0.110 NA
ATOM      5  N2  <0> d          -1.928   5.236   0.040  0.00  0.00    -0.146 NA
ENDROOT
BRANCH   2   6
ATOM      6  C4  <0> d          -1.187   1.624   0.017  0.00  0.00     0.259 C 
ATOM      7  O1  <0> d          -2.232   1.001   0.018  0.00  0.00    -0.267 OA
ATOM      8  N3  <0> d          -0.011   0.966   0.007  0.00  0.00    -0.365 N 
ATOM      9  H4  <0> d           0.002  -0.004   0.002  0.00  0.00     0.159 HD
ATOM     10  H5  <0> d           0.822   1.462   0.002  0.00  0.00     0.159 HD
ENDBRANCH   2   6
BRANCH   1  11
ATOM     11  C1  <0> d          -3.722   3.521   0.039  0.00  0.00    -0.032 C 
ATOM     12  H1  <0> d          -4.064   3.406   1.067  0.00  0.00     0.035 H 
ATOM     13  H2  <0> d          -4.338   4.263  -0.468  0.00  0.00     0.035 H 
ATOM     14  H3  <0> d          -3.803   2.565  -0.480  0.00  0.00     0.035 H 
ENDBRANCH   1  11
TORSDOF 2
