REMARK  3 active torsions:
REMARK  status: ('A' for Active; 'I' for Inactive)
REMARK    1  A    between atoms: C1_1  and  C2_2 
REMARK    2  A    between atoms: C2_2  and  C3_3 
REMARK    3  A    between atoms: C3_3  and  N1_4 
ROOT
ATOM      1  N1  <0> d          -0.698   1.558   1.213  0.00  0.00    -0.352 N 
ATOM      2  C4  <0> d          -0.396   2.821   1.897  0.00  0.00    -0.002 C 
ATOM      3  C5  <0> d          -1.617   3.099   2.804  0.00  0.00    -0.042 C 
ATOM      4  C6  <0> d          -2.164   1.672   3.039  0.00  0.00     0.011 C 
ATOM      5  C7  <0> d          -1.681   0.888   1.839  0.00  0.00     0.219 C 
ATOM      6  O1  <0> d          -2.118  -0.189   1.492  0.00  0.00    -0.273 OA
ATOM      7  H8  <0> d           0.508   2.719   2.497  0.00  0.00     0.064 H 
ATOM      8  H9  <0> d          -0.277   3.625   1.170  0.00  0.00     0.064 H 
ATOM      9  H10 <0> d          -2.354   3.720   2.295  0.00  0.00     0.036 H 
ATOM     10  H11 <0> d          -1.306   3.557   3.744  0.00  0.00     0.036 H 
ATOM     11  H12 <0> d          -3.253   1.682   3.075  0.00  0.00     0.047 H 
ATOM     12  H13 <0> d          -1.757   1.252   3.958  0.00  0.00     0.047 H 
ENDROOT
BRANCH   1  13
ATOM     13  C3  <0> d          -0.013   1.086   0.008  0.00  0.00    -0.003 C 
ATOM     14  H6  <0> d           0.002  -0.004   0.002  0.00  0.00     0.064 H 
ATOM     15  H7  <0> d           1.010   1.463   0.000  0.00  0.00     0.064 H 
BRANCH  13  16
ATOM     16  C2  <0> d          -0.753   1.593  -1.232  0.00  0.00    -0.053 C 
ATOM     17  H4  <0> d          -1.775   1.215  -1.224  0.00  0.00     0.034 H 
ATOM     18  H5  <0> d          -0.767   2.683  -1.226  0.00  0.00     0.034 H 
BRANCH  16  19
ATOM     19  C1  <0> d          -0.037   1.099  -2.490  0.00  0.00    -0.075 C 
ATOM     20  H1  <0> d          -0.022   0.009  -2.496  0.00  0.00     0.027 H 
ATOM     21  H2  <0> d          -0.564   1.460  -3.373  0.00  0.00     0.027 H 
ATOM     22  H3  <0> d           0.986   1.476  -2.498  0.00  0.00     0.027 H 
ENDBRANCH  16  19
ENDBRANCH  13  16
ENDBRANCH   1  13
TORSDOF 3
