REMARK  4 active torsions:
REMARK  status: ('A' for Active; 'I' for Inactive)
REMARK    1  A    between atoms: C1_1  and  N1_2 
REMARK    2  A    between atoms: N1_2  and  C2_3 
REMARK    3  A    between atoms: C4_5  and  N4_9 
REMARK    4  A    between atoms: N4_9  and  C6_10 
ROOT
ATOM      1  C2  <0> d          -1.221   1.643   0.017  0.00  0.00     0.128 A 
ATOM      2  C3  <0> d          -1.252   3.034   0.025  0.00  0.00     0.005 A 
ATOM      3  C4  <0> d          -2.491   3.666   0.033  0.00  0.00     0.128 A 
ATOM      4  N2  <0> d          -3.596   2.921   0.034  0.00  0.00    -0.225 NA
ATOM      5  C5  <0> d          -3.525   1.606   0.027  0.00  0.00     0.091 A 
ATOM      6  N3  <0> d          -2.371   0.971   0.013  0.00  0.00    -0.225 NA
ATOM      7  H5  <0> d          -0.337   3.608   0.023  0.00  0.00     0.095 H 
ATOM      8  H6  <0> d          -4.440   1.032   0.027  0.00  0.00     0.146 H 
ENDROOT
BRANCH   1   9
ATOM      9  N1  <0> d          -0.011   0.966   0.007  0.00  0.00    -0.379 N 
ATOM     10  H4  <0> d           0.004  -0.134   0.006  0.00  0.00     0.160 HD
BRANCH   9  11
ATOM     11  C1  <0> d           1.248   1.716  -0.001  0.00  0.00    -0.020 C 
ATOM     12  H1  <0> d           2.093   1.012  -0.007  0.00  0.00     0.056 H 
ATOM     13  H2  <0> d           1.304   2.348   0.898  0.00  0.00     0.056 H 
ATOM     14  H3  <0> d           1.291   2.350  -0.898  0.00  0.00     0.056 H 
ENDBRANCH   9  11
ENDBRANCH   1   9
BRANCH   3  15
ATOM     15  N4  <0> d          -2.575   5.049   0.041  0.00  0.00    -0.379 N 
ATOM     16  H7  <0> d          -3.560   5.540   0.048  0.00  0.00     0.160 HD
BRANCH  15  17
ATOM     17  C6  <0> d          -1.353   5.857   0.039  0.00  0.00    -0.020 C 
ATOM     18  H8  <0> d          -1.620   6.925   0.046  0.00  0.00     0.056 H 
ATOM     19  H9  <0> d          -0.766   5.632  -0.863  0.00  0.00     0.056 H 
ATOM     20  H10 <0> d          -0.758   5.623   0.934  0.00  0.00     0.056 H 
ENDBRANCH  15  17
ENDBRANCH   3  15
TORSDOF 4
