REMARK  0 active torsions:
REMARK  status: ('A' for Active; 'I' for Inactive)
ROOT
ATOM      1  C1  <0> d           1.171   1.782   0.001  0.00  0.00    -0.078 A 
ATOM      2  C2  <0> d          -0.013   1.076   0.008  0.00  0.00    -0.055 A 
ATOM      3  C3  <0> d          -1.223   1.755   0.017  0.00  0.00     0.065 A 
ATOM      4  C4  <0> d          -1.240   3.159   0.031  0.00  0.00     0.123 A 
ATOM      5  C5  <0> d          -0.030   3.862   0.024  0.00  0.00     0.147 A 
ATOM      6  C6  <0> d           1.162   3.170   0.008  0.00  0.00    -0.043 A 
ATOM      7  F1  <0> d          -0.030   5.213   0.031  0.00  0.00    -0.204 F 
ATOM      8  N1  <0> d          -2.543   3.540   0.046  0.00  0.00    -0.239 NA
ATOM      9  C7  <0> d          -3.307   2.487   0.048  0.00  0.00     0.065 A 
ATOM     10  N2  <0> d          -2.546   1.359   0.034  0.00  0.00    -0.349 N 
ATOM     11  H1  <0> d          -2.883   0.417   0.035  0.00  0.00     0.167 HD
ATOM     12  H2  <0> d           2.112   1.252  -0.011  0.00  0.00     0.083 H 
ATOM     13  H3  <0> d           0.002  -0.004   0.002  0.00  0.00     0.087 H 
ATOM     14  H4  <0> d           2.096   3.712   0.002  0.00  0.00     0.088 H 
ATOM     15  H5  <0> d          -4.386   2.506   0.058  0.00  0.00     0.143 H 
ENDROOT
TORSDOF 0
