REMARK  5 active torsions:
REMARK  status: ('A' for Active; 'I' for Inactive)
REMARK    1  A    between atoms: C1_1  and  C2_2 
REMARK    2  A    between atoms: C2_2  and  C3_3 
REMARK    3  A    between atoms: C2_2  and  C4_4 
REMARK    4  A    between atoms: C4_4  and  C5_5 
REMARK    5  A    between atoms: C6_8  and  N3_10 
ROOT
ATOM      1  C4  <0> d           1.766   3.161   0.001  0.00  0.00     0.001 C 
ATOM      2  H8  <0> d           2.739   3.211   0.511  0.00  0.00     0.046 H 
ATOM      3  H9  <0> d           1.042   3.800   0.529  0.00  0.00     0.046 H 
ENDROOT
BRANCH   1   4
ATOM      4  C2  <0> d           1.919   3.650  -1.440  0.00  0.00    -0.054 C 
ATOM      5  H4  <0> d           2.573   2.959  -1.994  0.00  0.00     0.039 H 
BRANCH   4   6
ATOM      6  C1  <0> d           0.545   3.699  -2.112  0.00  0.00    -0.073 C 
ATOM      7  H1  <0> d           0.101   2.693  -2.111  0.00  0.00     0.028 H 
ATOM      8  H2  <0> d           0.656   4.050  -3.148  0.00  0.00     0.028 H 
ATOM      9  H3  <0> d          -0.109   4.389  -1.558  0.00  0.00     0.028 H 
ENDBRANCH   4   6
BRANCH   4  10
ATOM     10  C3  <0> d           2.538   5.049  -1.442  0.00  0.00    -0.073 C 
ATOM     11  H5  <0> d           3.526   5.014  -0.959  0.00  0.00     0.028 H 
ATOM     12  H6  <0> d           1.884   5.739  -0.888  0.00  0.00     0.028 H 
ATOM     13  H7  <0> d           2.648   5.400  -2.478  0.00  0.00     0.028 H 
ENDBRANCH   4  10
ENDBRANCH   1   4
BRANCH   1  14
ATOM     14  C5  <0> d           1.272   1.738  -0.001  0.00  0.00     0.171 A 
ATOM     15  O1  <0> d          -0.016   1.342   0.009  0.00  0.00    -0.260 OA
ATOM     16  C6  <0> d           0.002  -0.004   0.002  0.00  0.00     0.265 A 
ATOM     17  N2  <0> d           1.259  -0.376  -0.012  0.00  0.00    -0.104 NA
ATOM     18  N1  <0> d           2.011   0.668  -0.014  0.00  0.00    -0.125 NA
BRANCH  16  19
ATOM     19  N3  <0> d          -1.100  -0.839   0.009  0.00  0.00    -0.362 N 
ATOM     20  H10 <0> d          -2.114  -0.412   0.020  0.00  0.00     0.159 HD
ATOM     21  H11 <0> d          -0.963  -1.930   0.002  0.00  0.00     0.159 HD
ENDBRANCH  16  19
ENDBRANCH   1  14
TORSDOF 5
