REMARK  2 active torsions:
REMARK  status: ('A' for Active; 'I' for Inactive)
REMARK    1  A    between atoms: C1_1  and  C2_2 
REMARK    2  A    between atoms: C4_7  and  C6_12 
ROOT
ATOM      1  C2  <0> d           0.002  -0.004   0.002  0.00  0.00     0.086 C 
ATOM      2  H1  <0> d          -1.023  -0.375   0.010  0.00  0.00     0.086 H 
ATOM      3  C3  <0> d           0.686  -0.479  -1.244  0.00  0.00     0.240 C 
ATOM      4  O1  <0> d           0.062  -0.484  -2.284  0.00  0.00    -0.271 OA
ATOM      5  N1  <0> d           1.956  -0.896  -1.257  0.00  0.00    -0.346 N 
ATOM      6  C4  <0> d           2.790  -0.927  -0.063  0.00  0.00     0.086 C 
ATOM      7  H2  <0> d           3.392  -1.836  -0.071  0.00  0.00     0.086 H 
ATOM      8  C5  <0> d           1.957  -0.901   1.183  0.00  0.00     0.240 C 
ATOM      9  O2  <0> d           2.454  -1.279   2.223  0.00  0.00    -0.271 OA
ATOM     10  N2  <0> d           0.690  -0.478   1.195  0.00  0.00    -0.346 N 
ATOM     11  H6  <0> d           2.339  -1.192  -2.098  0.00  0.00     0.163 HD
ATOM     12  H7  <0> d           0.207  -0.487   2.036  0.00  0.00     0.163 HD
ENDROOT
BRANCH   1  13
ATOM     13  C1  <0> d          -0.019   1.526   0.010  0.00  0.00    -0.049 C 
ATOM     14  H3  <0> d           1.004   1.903   0.003  0.00  0.00     0.030 H 
ATOM     15  H4  <0> d          -0.546   1.887  -0.873  0.00  0.00     0.030 H 
ATOM     16  H5  <0> d          -0.529   1.877   0.907  0.00  0.00     0.030 H 
ENDBRANCH   1  13
BRANCH   6  17
ATOM     17  C6  <0> d           3.718   0.289  -0.069  0.00  0.00    -0.049 C 
ATOM     18  H8  <0> d           3.122   1.202  -0.076  0.00  0.00     0.030 H 
ATOM     19  H9  <0> d           4.345   0.272   0.823  0.00  0.00     0.030 H 
ATOM     20  H10 <0> d           4.349   0.260  -0.957  0.00  0.00     0.030 H 
ENDBRANCH   6  17
TORSDOF 2
