REMARK  1 active torsions:
REMARK  status: ('A' for Active; 'I' for Inactive)
REMARK    1  A    between atoms: C4_6  and  N5_12 
ROOT
ATOM      1  C1  <0> d          -0.331  -4.050  -0.017  0.00  0.00     0.015 A 
ATOM      2  C2  <0> d          -0.004  -2.709  -0.012  0.00  0.00     0.099 A 
ATOM      3  C3  <0> d           1.256  -1.953  -0.020  0.00  0.00     0.275 A 
ATOM      4  O1  <0> d           2.336  -2.522  -0.034  0.00  0.00    -0.267 OA
ATOM      5  N1  <0> d           1.175  -0.614  -0.013  0.00  0.00    -0.154 N 
ATOM      6  C4  <0> d           0.002  -0.004   0.002  0.00  0.00     0.703 A 
ATOM      7  N2  <0> d          -1.160  -0.649   0.015  0.00  0.00    -0.042 NA
ATOM      8  C5  <0> d          -1.220  -1.969   0.003  0.00  0.00     0.205 A 
ATOM      9  N3  <0> d          -2.240  -2.884   0.008  0.00  0.00    -0.153 NA
ATOM     10  N4  <0> d          -1.671  -4.165  -0.004  0.00  0.00    -0.286 N 
ATOM     11  H1  <0> d          -2.138  -5.160  -0.005  0.00  0.00     0.188 HD
ATOM     12  H2  <0> d           0.372  -4.870  -0.028  0.00  0.00     0.115 H 
ATOM     13  H5  <0> d           2.094  -0.008  -0.018  0.00  0.00     0.187 HD
ENDROOT
BRANCH   6  14
ATOM     14  N5  <0> d          -0.017   1.373   0.010  0.00  0.00    -0.233 N 
ATOM     15  H3  <0> d          -0.977   1.909   0.022  0.00  0.00     0.174 HD
ATOM     16  H4  <0> d           0.928   1.935   0.004  0.00  0.00     0.174 HD
ENDBRANCH   6  14
TORSDOF 1
