REMARK  0 active torsions:
REMARK  status: ('A' for Active; 'I' for Inactive)
ROOT
ATOM      1  C1  <0> d          -0.017   1.393   0.010  0.00  0.00    -0.035 A 
ATOM      2  C2  <0> d           1.172   2.068   0.002  0.00  0.00     0.004 A 
ATOM      3  N1  <0> d           2.327   1.426  -0.013  0.00  0.00    -0.270 NA
ATOM      4  C3  <0> d           2.403   0.109  -0.020  0.00  0.00     0.037 A 
ATOM      5  C4  <0> d           1.249  -0.655  -0.014  0.00  0.00     0.125 A 
ATOM      6  C5  <0> d           0.002  -0.004   0.002  0.00  0.00     0.097 A 
ATOM      7  N2  <0> d          -0.943  -0.976   0.005  0.00  0.00    -0.211 NA
ATOM      8  C6  <0> d          -0.351  -2.136  -0.007  0.00  0.00     0.246 A 
ATOM      9  O1  <0> d           0.982  -1.978  -0.019  0.00  0.00    -0.279 OA
ATOM     10 Cl1  <0> d          -1.169  -3.667  -0.007  0.00  0.00    -0.035 Cl
ATOM     11  H1  <0> d          -0.954   1.930   0.026  0.00  0.00     0.089 H 
ATOM     12  H2  <0> d           1.168   3.148   0.007  0.00  0.00     0.114 H 
ATOM     13  H3  <0> d           3.368  -0.374  -0.032  0.00  0.00     0.119 H 
ENDROOT
TORSDOF 0
