REMARK  5 active torsions:
REMARK  status: ('A' for Active; 'I' for Inactive)
REMARK    1  A    between atoms: C1_1  and  C2_2 
REMARK    2  A    between atoms: C2_2  and  C3_3 
REMARK    3  A    between atoms: C3_3  and  C4_4 
REMARK    4  A    between atoms: C4_4  and  C5_5 
REMARK    5  A    between atoms: C5_5  and  C7_7 
ROOT
ATOM      1  C7  <0> d          -3.524  -2.738   1.256  0.00  0.00    -0.083 C 
ATOM      2  C8  <0> d          -4.095  -2.864   2.274  0.00  0.00    -0.149 C 
ATOM      3  H12 <0> d          -4.607  -2.976   3.184  0.00  0.00     0.166 H 
ENDROOT
BRANCH   1   4
ATOM      4  C5  <0> d          -2.826  -2.585   0.015  0.00  0.00    -0.015 C 
ATOM      5  C6  <0> d          -3.426  -2.903  -1.127  0.00  0.00    -0.108 C 
ATOM      6  H10 <0> d          -4.439  -3.277  -1.119  0.00  0.00     0.068 H 
ATOM      7  H11 <0> d          -2.900  -2.788  -2.063  0.00  0.00     0.068 H 
BRANCH   4   8
ATOM      8  C4  <0> d          -1.413  -2.063   0.004  0.00  0.00    -0.034 C 
ATOM      9  H8  <0> d          -0.902  -2.415  -0.892  0.00  0.00     0.041 H 
ATOM     10  H9  <0> d          -0.885  -2.425   0.887  0.00  0.00     0.041 H 
BRANCH   8  11
ATOM     11  C3  <0> d          -1.433  -0.534   0.013  0.00  0.00    -0.061 C 
ATOM     12  H6  <0> d          -1.944  -0.182   0.910  0.00  0.00     0.033 H 
ATOM     13  H7  <0> d          -1.960  -0.173  -0.870  0.00  0.00     0.033 H 
BRANCH  11  14
ATOM     14  C2  <0> d           0.002  -0.004   0.002  0.00  0.00    -0.068 C 
ATOM     15  H4  <0> d           0.512  -0.356  -0.895  0.00  0.00     0.032 H 
ATOM     16  H5  <0> d           0.529  -0.365   0.885  0.00  0.00     0.032 H 
BRANCH  14  17
ATOM     17  C1  <0> d          -0.019   1.526   0.010  0.00  0.00    -0.077 C 
ATOM     18  H1  <0> d           1.004   1.903   0.003  0.00  0.00     0.027 H 
ATOM     19  H2  <0> d          -0.546   1.887  -0.873  0.00  0.00     0.027 H 
ATOM     20  H3  <0> d          -0.529   1.877   0.907  0.00  0.00     0.027 H 
ENDBRANCH  14  17
ENDBRANCH  11  14
ENDBRANCH   8  11
ENDBRANCH   4   8
ENDBRANCH   1   4
TORSDOF 5
