REMARK  1 active torsions:
REMARK  status: ('A' for Active; 'I' for Inactive)
REMARK    1  A    between atoms: C1_1  and  N1_2 
ROOT
ATOM      1  N1  <0> d          -0.017   1.368   0.010  0.00  0.00    -0.359 N 
ATOM      2  C2  <0> d           1.264   1.853  -0.000  0.00  0.00    -0.020 A 
ATOM      3  C3  <0> d           2.137   0.834  -0.014  0.00  0.00    -0.056 A 
ATOM      4  C4  <0> d           1.350  -0.403  -0.013  0.00  0.00    -0.006 A 
ATOM      5  C5  <0> d           0.002  -0.004   0.002  0.00  0.00     0.065 A 
ATOM      6  C6  <0> d          -1.005  -0.984   0.006  0.00  0.00     0.072 A 
ATOM      7  C7  <0> d          -0.652  -2.332  -0.005  0.00  0.00    -0.061 A 
ATOM      8  C8  <0> d           0.679  -2.710  -0.019  0.00  0.00    -0.081 A 
ATOM      9  C9  <0> d           1.678  -1.760  -0.024  0.00  0.00    -0.071 A 
ATOM     10  C10 <0> d          -2.384  -0.600   0.022  0.00  0.00     0.102 C 
ATOM     11  N2  <0> d          -3.478  -0.295   0.034  0.00  0.00    -0.191 NA
ATOM     12  H4  <0> d           1.531   2.899   0.003  0.00  0.00     0.111 H 
ATOM     13  H5  <0> d           3.214   0.910  -0.024  0.00  0.00     0.086 H 
ATOM     14  H6  <0> d          -1.424  -3.088  -0.002  0.00  0.00     0.086 H 
ATOM     15  H7  <0> d           0.937  -3.759  -0.027  0.00  0.00     0.083 H 
ATOM     16  H8  <0> d           2.713  -2.065  -0.034  0.00  0.00     0.084 H 
ENDROOT
BRANCH   1  17
ATOM     17  C1  <0> d          -1.228   2.192   0.020  0.00  0.00    -0.014 C 
ATOM     18  H1  <0> d          -1.523   2.391   1.050  0.00  0.00     0.057 H 
ATOM     19  H2  <0> d          -1.030   3.135  -0.490  0.00  0.00     0.057 H 
ATOM     20  H3  <0> d          -2.031   1.664  -0.493  0.00  0.00     0.057 H 
ENDBRANCH   1  17
TORSDOF 1
