REMARK  3 active torsions:
REMARK  status: ('A' for Active; 'I' for Inactive)
REMARK    1  A    between atoms: C2_2  and  C4_8 
REMARK    2  A    between atoms: C3_3  and  O1_7 
REMARK    3  A    between atoms: C4_8  and  C5_9 
ROOT
ATOM      1  C1  <0> d           3.132   2.421  -0.731  0.00  0.00     0.007 A 
ATOM      2  C2  <0> d           1.961   1.884  -1.142  0.00  0.00     0.023 A 
ATOM      3  C3  <0> d           1.224   1.533  -0.001  0.00  0.00     0.189 A 
ATOM      4  N1  <0> d           1.930   1.855   1.055  0.00  0.00    -0.149 NA
ATOM      5  N2  <0> d           3.139   2.412   0.619  0.00  0.00    -0.286 N 
ATOM      6  H1  <0> d           3.878   2.744   1.205  0.00  0.00     0.188 HD
ATOM      7  H2  <0> d           3.921   2.792  -1.368  0.00  0.00     0.114 H 
ENDROOT
BRANCH   2   8
ATOM      8  C4  <0> d           1.525   1.696  -2.572  0.00  0.00     0.045 C 
ATOM      9  H4  <0> d           2.403   1.630  -3.214  0.00  0.00     0.056 H 
ATOM     10  H5  <0> d           0.943   0.779  -2.658  0.00  0.00     0.056 H 
BRANCH   8  11
ATOM     11  C5  <0> d           0.679   2.869  -2.998  0.00  0.00     0.177 C 
ATOM     12  O2  <0> d           0.454   3.765  -2.220  0.00  0.00    -0.648 OA
ATOM     13  O3  <0> d           0.177   2.918  -4.242  0.00  0.00    -0.648 OA
ENDBRANCH   8  11
ENDBRANCH   2   8
BRANCH   3  14
ATOM     14  O1  <0> d          -0.011   0.963   0.007  0.00  0.00    -0.343 OA
ATOM     15  H3  <0> d          -0.305   0.818   0.952  0.00  0.00     0.219 HD
ENDBRANCH   3  14
TORSDOF 3
