REMARK  2 active torsions:
REMARK  status: ('A' for Active; 'I' for Inactive)
REMARK    1  A    between atoms: C1_1  and  C2_2 
REMARK    2  A    between atoms: C3_3  and  C6_12 
ROOT
ATOM      1  C2  <0> d          -0.718   1.572   1.248  0.00  0.00     0.028 A 
ATOM      2  C3  <0> d          -0.858   2.894   1.482  0.00  0.00     0.021 A 
ATOM      3  N1  <0> d          -1.505   3.318   2.610  0.00  0.00    -0.312 N 
ATOM      4  H1  <0> d          -1.615   4.298   2.780  0.00  0.00     0.170 HD
ATOM      5  C4  <0> d          -1.995   2.430   3.494  0.00  0.00     0.327 A 
ATOM      6  O1  <0> d          -2.563   2.829   4.492  0.00  0.00    -0.247 OA
ATOM      7  N2  <0> d          -1.866   1.106   3.288  0.00  0.00    -0.275 N 
ATOM      8  H2  <0> d          -2.236   0.460   3.955  0.00  0.00     0.173 HD
ATOM      9  C5  <0> d          -1.238   0.648   2.186  0.00  0.00     0.257 A 
ATOM     10  O2  <0> d          -1.121  -0.550   1.999  0.00  0.00    -0.267 OA
ENDROOT
BRANCH   1  11
ATOM     11  C1  <0> d          -0.013   1.086   0.008  0.00  0.00    -0.044 C 
ATOM     12  H3  <0> d           0.002  -0.004   0.002  0.00  0.00     0.033 H 
ATOM     13  H4  <0> d           1.010   1.463   0.000  0.00  0.00     0.033 H 
ATOM     14  H5  <0> d          -0.540   1.447  -0.875  0.00  0.00     0.033 H 
ENDBRANCH   1  11
BRANCH   2  15
ATOM     15  C6  <0> d          -0.307   3.898   0.502  0.00  0.00    -0.037 C 
ATOM     16  H6  <0> d          -1.068   4.136  -0.241  0.00  0.00     0.035 H 
ATOM     17  H7  <0> d          -0.022   4.806   1.034  0.00  0.00     0.035 H 
ATOM     18  H8  <0> d           0.568   3.479   0.005  0.00  0.00     0.035 H 
ENDBRANCH   2  15
TORSDOF 2
