REMARK  3 active torsions:
REMARK  status: ('A' for Active; 'I' for Inactive)
REMARK    1  A    between atoms: C1_1  and  C2_2 
REMARK    2  A    between atoms: C2_2  and  C3_3 
REMARK    3  A    between atoms: C6_6  and  N1_9 
ROOT
ATOM      1  C3  <0> d           1.208  -0.681  -0.013  0.00  0.00    -0.058 A 
ATOM      2  C4  <0> d           0.002  -0.004   0.002  0.00  0.00    -0.075 A 
ATOM      3  C5  <0> d          -0.017   1.377   0.010  0.00  0.00    -0.057 A 
ATOM      4  C6  <0> d           1.178   2.086   0.002  0.00  0.00     0.025 A 
ATOM      5  C7  <0> d           2.387   1.403  -0.012  0.00  0.00    -0.057 A 
ATOM      6  C8  <0> d           2.399   0.022  -0.020  0.00  0.00    -0.075 A 
ATOM      7  H6  <0> d          -0.926  -0.556   0.008  0.00  0.00     0.084 H 
ATOM      8  H7  <0> d          -0.959   1.905   0.017  0.00  0.00     0.086 H 
ATOM      9  H8  <0> d           3.318   1.952  -0.018  0.00  0.00     0.086 H 
ATOM     10  H9  <0> d           3.339  -0.509  -0.032  0.00  0.00     0.084 H 
ENDROOT
BRANCH   1  11
ATOM     11  C2  <0> d           1.224  -2.188  -0.021  0.00  0.00    -0.044 C 
ATOM     12  H4  <0> d           2.123  -2.544   0.482  0.00  0.00     0.039 H 
ATOM     13  H5  <0> d           0.344  -2.563   0.499  0.00  0.00     0.039 H 
BRANCH  11  14
ATOM     14  C1  <0> d           1.216  -2.690  -1.467  0.00  0.00    -0.073 C 
ATOM     15  H1  <0> d           1.228  -3.780  -1.473  0.00  0.00     0.028 H 
ATOM     16  H2  <0> d           0.318  -2.333  -1.970  0.00  0.00     0.028 H 
ATOM     17  H3  <0> d           2.097  -2.314  -1.987  0.00  0.00     0.028 H 
ENDBRANCH  11  14
ENDBRANCH   1  11
BRANCH   4  18
ATOM     18  N1  <0> d           1.162   3.483   0.010  0.00  0.00    -0.399 N 
ATOM     19  H10 <0> d           0.317   3.958   0.020  0.00  0.00     0.156 HD
ATOM     20  H11 <0> d           1.997   3.977   0.004  0.00  0.00     0.156 HD
ENDBRANCH   4  18
TORSDOF 3
