REMARK  3 active torsions:
REMARK  status: ('A' for Active; 'I' for Inactive)
REMARK    1  A    between atoms: C3_3  and  C4_4 
REMARK    2  A    between atoms: C4_4  and  C5_5 
REMARK    3  A    between atoms: C4_4  and  O1_8 
ROOT
ATOM      1  C4  <0> d           1.286   1.562  -0.002  0.00  0.00     0.042 C 
ATOM      2  H6  <0> d           1.186   2.647   0.005  0.00  0.00     0.084 H 
ENDROOT
BRANCH   1   3
ATOM      3  C3  <0> d           2.064   1.114   1.238  0.00  0.00    -0.029 A 
ATOM      4  C1  <0> d           1.446   0.010   2.099  0.00  0.00    -0.059 A 
ATOM      5  C2  <0> d           1.469   1.454   2.606  0.00  0.00    -0.059 A 
ATOM      6  H1  <0> d           0.485  -0.397   1.782  0.00  0.00     0.033 H 
ATOM      7  H2  <0> d           2.125  -0.700   2.570  0.00  0.00     0.033 H 
ATOM      8  H3  <0> d           2.163   1.694   3.411  0.00  0.00     0.033 H 
ATOM      9  H4  <0> d           0.524   1.998   2.623  0.00  0.00     0.033 H 
ATOM     10  H5  <0> d           3.149   1.130   1.143  0.00  0.00     0.043 H 
ENDBRANCH   1   3
BRANCH   1  11
ATOM     11  C5  <0> d           2.040   1.127  -1.261  0.00  0.00    -0.029 A 
ATOM     12  C7  <0> d           1.421   1.486  -2.613  0.00  0.00    -0.059 A 
ATOM     13  C6  <0> d           2.668   2.225  -2.122  0.00  0.00    -0.059 A 
ATOM     14  H10 <0> d           1.547   0.774  -3.429  0.00  0.00     0.033 H 
ATOM     15  H11 <0> d           0.477   2.031  -2.606  0.00  0.00     0.033 H 
ATOM     16  H8  <0> d           2.545   3.256  -1.791  0.00  0.00     0.033 H 
ATOM     17  H9  <0> d           3.614   1.998  -2.614  0.00  0.00     0.033 H 
ATOM     18  H7  <0> d           2.572   0.179  -1.186  0.00  0.00     0.043 H 
ENDBRANCH   1  11
BRANCH   1  19
ATOM     19  O1  <0> d          -0.011   0.963   0.007  0.00  0.00    -0.395 OA
ATOM     20  H12 <0> d           0.002  -0.004   0.002  0.00  0.00     0.210 HD
ENDBRANCH   1  19
TORSDOF 3
