REMARK  0 active torsions:
REMARK  status: ('A' for Active; 'I' for Inactive)
ROOT
ATOM      1  C1  <0> d          -0.016   1.300   0.009  0.00  0.00     0.069 A 
ATOM      2  N1  <0> d           1.122   2.024   0.002  0.00  0.00    -0.317 N 
ATOM      3  H1  <0> d           1.077   2.993   0.011  0.00  0.00     0.169 HD
ATOM      4  C2  <0> d           2.321   1.406  -0.017  0.00  0.00     0.256 A 
ATOM      5  O1  <0> d           3.355   2.055  -0.026  0.00  0.00    -0.267 OA
ATOM      6  C3  <0> d           2.356   0.003  -0.025  0.00  0.00     0.056 A 
ATOM      7  C4  <0> d           1.160  -0.686  -0.012  0.00  0.00     0.136 A 
ATOM      8  N2  <0> d           0.002  -0.004   0.002  0.00  0.00    -0.226 NA
ATOM      9  N3  <0> d           1.137  -2.067  -0.008  0.00  0.00    -0.374 N 
ATOM     10  C5  <0> d           2.367  -2.802  -0.330  0.00  0.00    -0.006 C 
ATOM     11  C6  <0> d           3.523  -2.147   0.437  0.00  0.00    -0.046 C 
ATOM     12  C7  <0> d           3.682  -0.706  -0.050  0.00  0.00    -0.031 C 
ATOM     13  H2  <0> d          -0.966   1.813   0.026  0.00  0.00     0.143 H 
ATOM     14  H3  <0> d           0.319  -2.544   0.204  0.00  0.00     0.161 HD
ATOM     15  H4  <0> d           2.265  -3.844  -0.025  0.00  0.00     0.064 H 
ATOM     16  H5  <0> d           2.558  -2.749  -1.402  0.00  0.00     0.064 H 
ATOM     17  H6  <0> d           3.301  -2.151   1.504  0.00  0.00     0.035 H 
ATOM     18  H7  <0> d           4.444  -2.699   0.251  0.00  0.00     0.035 H 
ATOM     19  H8  <0> d           4.070  -0.710  -1.068  0.00  0.00     0.040 H 
ATOM     20  H9  <0> d           4.383  -0.182   0.599  0.00  0.00     0.040 H 
ENDROOT
TORSDOF 0
