REMARK  1 active torsions:
REMARK  status: ('A' for Active; 'I' for Inactive)
REMARK    1  A    between atoms: C4_4  and  C7_7 
ROOT
ATOM      1  C1  <0> d          -1.238   3.133   0.029  0.00  0.00    -0.083 A 
ATOM      2  C2  <0> d          -1.219   1.751   0.017  0.00  0.00    -0.082 A 
ATOM      3  C3  <0> d          -0.013   1.076   0.008  0.00  0.00    -0.075 A 
ATOM      4  C4  <0> d           1.175   1.783   0.000  0.00  0.00    -0.035 A 
ATOM      5  C5  <0> d           1.156   3.165   0.008  0.00  0.00    -0.075 A 
ATOM      6  C6  <0> d          -0.050   3.840   0.022  0.00  0.00    -0.082 A 
ATOM      7  H2  <0> d          -2.180   3.660   0.041  0.00  0.00     0.083 H 
ATOM      8  H3  <0> d          -2.147   1.198   0.019  0.00  0.00     0.083 H 
ATOM      9  H4  <0> d           0.002  -0.004   0.002  0.00  0.00     0.084 H 
ATOM     10  H5  <0> d           2.084   3.718   0.003  0.00  0.00     0.084 H 
ATOM     11  H6  <0> d          -0.065   4.920   0.028  0.00  0.00     0.083 H 
ENDROOT
BRANCH   4  12
ATOM     12  C7  <0> d           2.490   1.048  -0.016  0.00  0.00     0.045 A 
ATOM     13  H1  <0> d           2.204   0.163   0.573  0.00  0.00     0.081 H 
ATOM     14  N1  <0> d           3.641   1.883   0.370  0.00  0.00    -0.352 N 
ATOM     15  C9  <0> d           4.243   1.835  -0.847  0.00  0.00     0.220 A 
ATOM     16  H9  <0> d           3.716   2.279   1.394  0.00  0.00     0.163 HD
ATOM     17  C8  <0> d           3.136   0.966  -1.408  0.00  0.00     0.032 A 
ATOM     18  O1  <0> d           5.264   2.303  -1.304  0.00  0.00    -0.274 OA
ATOM     19  H7  <0> d           3.347  -0.085  -1.654  0.00  0.00     0.050 H 
ATOM     20  H8  <0> d           2.448   1.386  -2.157  0.00  0.00     0.050 H 
ENDBRANCH   4  12
TORSDOF 1
