REMARK  3 active torsions:
REMARK  status: ('A' for Active; 'I' for Inactive)
REMARK    1  A    between atoms: C3_4  and  C5_7 
REMARK    2  A    between atoms: C5_7  and  C6_8 
REMARK    3  A    between atoms: C6_8  and  C7_9 
ROOT
ATOM      1  C1  <0> d           1.508  -4.675  -0.037  0.00  0.00    -0.049 A 
ATOM      2  C2  <0> d           1.487  -3.959  -1.224  0.00  0.00     0.005 A 
ATOM      3  N1  <0> d           1.469  -2.636  -1.177  0.00  0.00    -0.246 NA
ATOM      4  C3  <0> d           1.472  -2.001  -0.023  0.00  0.00     0.125 A 
ATOM      5  N2  <0> d           1.497  -2.649   1.125  0.00  0.00    -0.246 NA
ATOM      6  C4  <0> d           1.510  -3.972   1.157  0.00  0.00     0.005 A 
ATOM      7  H1  <0> d           1.522  -5.755  -0.043  0.00  0.00     0.087 H 
ATOM      8  H2  <0> d           1.485  -4.473  -2.174  0.00  0.00     0.114 H 
ATOM      9  H3  <0> d           1.526  -4.496   2.101  0.00  0.00     0.114 H 
ENDROOT
BRANCH   4  10
ATOM     10  C5  <0> d           1.451  -0.494  -0.015  0.00  0.00     0.001 C 
ATOM     11  H4  <0> d           1.952  -0.119  -0.907  0.00  0.00     0.045 H 
ATOM     12  H5  <0> d           1.969  -0.129   0.873  0.00  0.00     0.045 H 
BRANCH  10  13
ATOM     13  C6  <0> d           0.002  -0.004   0.002  0.00  0.00     0.022 C 
ATOM     14  H6  <0> d          -0.498  -0.379   0.895  0.00  0.00     0.049 H 
ATOM     15  H7  <0> d          -0.515  -0.370  -0.885  0.00  0.00     0.049 H 
BRANCH  13  16
ATOM     16  C7  <0> d          -0.018   1.503   0.010  0.00  0.00     0.172 C 
ATOM     17  O1  <0> d           1.020   2.121   0.004  0.00  0.00    -0.648 OA
ATOM     18  O2  <0> d          -1.190   2.158   0.019  0.00  0.00    -0.648 OA
ENDBRANCH  13  16
ENDBRANCH  10  13
ENDBRANCH   4  10
TORSDOF 3
