REMARK  1 active torsions:
REMARK  status: ('A' for Active; 'I' for Inactive)
REMARK    1  A    between atoms: C6_6  and  N1_7 
ROOT
ATOM      1  C1  <0> d           1.193   3.168   0.008  0.00  0.00    -0.056 A 
ATOM      2  C2  <0> d          -0.001   3.863   0.023  0.00  0.00    -0.062 A 
ATOM      3  C3  <0> d          -1.188   3.172   0.030  0.00  0.00     0.035 A 
ATOM      4  C4  <0> d          -1.248   1.760   0.018  0.00  0.00     0.076 A 
ATOM      5  C5  <0> d          -0.013   1.076   0.008  0.00  0.00    -0.029 A 
ATOM      6  C6  <0> d           1.173   1.775   0.000  0.00  0.00     0.028 A 
ATOM      7  N2  <0> d          -2.499   1.252   0.033  0.00  0.00    -0.253 NA
ATOM      8  C7  <0> d          -3.561   2.008   0.048  0.00  0.00     0.041 A 
ATOM      9  S1  <0> d          -2.907   3.617   0.050  0.00  0.00    -0.081 SA
ATOM     10  H1  <0> d           2.133   3.700   0.002  0.00  0.00     0.086 H 
ATOM     11  H2  <0> d          -0.001   4.943   0.029  0.00  0.00     0.085 H 
ATOM     12  H3  <0> d           0.002  -0.004   0.002  0.00  0.00     0.090 H 
ATOM     13  H6  <0> d          -4.598   1.706   0.056  0.00  0.00     0.126 H 
ENDROOT
BRANCH   6  14
ATOM     14  N1  <0> d           2.383   1.072  -0.015  0.00  0.00    -0.399 N 
ATOM     15  H4  <0> d           2.381   0.102  -0.021  0.00  0.00     0.156 HD
ATOM     16  H5  <0> d           3.225   1.555  -0.021  0.00  0.00     0.156 HD
ENDBRANCH   6  14
TORSDOF 1
