REMARK  2 active torsions:
REMARK  status: ('A' for Active; 'I' for Inactive)
REMARK    1  A    between atoms: C1_1  and  O3_10 
REMARK    2  A    between atoms: C2_3  and  O2_9 
ROOT
ATOM      1  C1  <0> d          -0.013   1.086   0.008  0.00  0.00     0.146 A 
ATOM      2  H1  <0> d           0.002  -0.004   0.002  0.00  0.00     0.124 H 
ATOM      3  C2  <0> d          -0.605   1.611   1.330  0.00  0.00     0.146 A 
ATOM      4  H2  <0> d          -1.464   2.253   1.136  0.00  0.00     0.124 H 
ATOM      5  N1  <0> d           0.495   2.387   1.925  0.00  0.00    -0.313 N 
ATOM      6  C3  <0> d           1.557   2.339   1.111  0.00  0.00     0.320 A 
ATOM      7  O1  <0> d           2.609   2.896   1.360  0.00  0.00    -0.247 OA
ATOM      8  N2  <0> d           1.357   1.621  -0.002  0.00  0.00    -0.313 N 
ATOM      9  H3  <0> d           0.456   2.858   2.772  0.00  0.00     0.167 HD
ATOM     10  H4  <0> d           2.012   1.476  -0.703  0.00  0.00     0.167 HD
ENDROOT
BRANCH   1  11
ATOM     11  O3  <0> d          -0.753   1.582  -1.109  0.00  0.00    -0.372 OA
ATOM     12  H6  <0> d          -0.403   1.307  -1.967  0.00  0.00     0.212 HD
ENDBRANCH   1  11
BRANCH   3  13
ATOM     13  O2  <0> d          -0.970   0.525   2.183  0.00  0.00    -0.372 OA
ATOM     14  H5  <0> d          -1.349   0.799   3.030  0.00  0.00     0.212 HD
ENDBRANCH   3  13
TORSDOF 2
