REMARK  1 active torsions:
REMARK  status: ('A' for Active; 'I' for Inactive)
REMARK    1  A    between atoms: C3_3  and  C7_8 
ROOT
ATOM      1  C1  <0> d           1.426   2.033  -0.001  0.00  0.00    -0.050 C 
ATOM      2  C2  <0> d          -0.019   1.530   0.011  0.00  0.00    -0.054 C 
ATOM      3  C3  <0> d           0.002  -0.004   0.002  0.00  0.00    -0.003 C 
ATOM      4  H1  <0> d           0.628  -0.357  -0.818  0.00  0.00     0.047 H 
ATOM      5  C4  <0> d           0.578  -0.488   1.335  0.00  0.00    -0.042 C 
ATOM      6  C5  <0> d           1.859   0.234   1.636  0.00  0.00    -0.106 C 
ATOM      7  C6  <0> d           2.226   1.333   1.058  0.00  0.00    -0.106 C 
ATOM      8  H2  <0> d           1.869   1.838  -0.977  0.00  0.00     0.038 H 
ATOM      9  H3  <0> d           1.436   3.107   0.190  0.00  0.00     0.038 H 
ATOM     10  H4  <0> d          -0.540   1.894  -0.875  0.00  0.00     0.034 H 
ATOM     11  H5  <0> d          -0.523   1.884   0.909  0.00  0.00     0.034 H 
ATOM     12  H6  <0> d          -0.141  -0.295   2.131  0.00  0.00     0.039 H 
ATOM     13  H7  <0> d           0.772  -1.559   1.277  0.00  0.00     0.039 H 
ATOM     14  H8  <0> d           2.516  -0.190   2.381  0.00  0.00     0.076 H 
ATOM     15  H9  <0> d           3.166   1.772   1.357  0.00  0.00     0.076 H 
ENDROOT
BRANCH   3  16
ATOM     16  C7  <0> d          -1.422  -0.537  -0.166  0.00  0.00     0.135 C 
ATOM     17  O2  <0> d          -1.403  -1.970  -0.174  0.00  0.00    -0.359 OA
ATOM     18  C9  <0> d          -2.228  -2.416   0.922  0.00  0.00     0.042 C 
ATOM     19  C8  <0> d          -3.138  -1.193   1.195  0.00  0.00     0.042 C 
ATOM     20  H13 <0> d          -2.822  -3.281   0.629  0.00  0.00     0.077 H 
ATOM     21  H14 <0> d          -1.617  -2.648   1.794  0.00  0.00     0.077 H 
ATOM     22  O1  <0> d          -2.237  -0.091   0.931  0.00  0.00    -0.359 OA
ATOM     23  H11 <0> d          -3.986  -1.177   0.510  0.00  0.00     0.077 H 
ATOM     24  H12 <0> d          -3.475  -1.182   2.232  0.00  0.00     0.077 H 
ATOM     25  H10 <0> d          -1.842  -0.171  -1.103  0.00  0.00     0.129 H 
ENDBRANCH   3  16
TORSDOF 1
