REMARK  1 active torsions:
REMARK  status: ('A' for Active; 'I' for Inactive)
REMARK    1  A    between atoms: C3_5  and  C4_6 
ROOT
ATOM      1  C4  <0> d          -1.206  -0.906   0.009  0.00  0.00     0.057 C 
ATOM      2  C5  <0> d          -1.134  -1.831  -1.133  0.00  0.00     0.065 C 
ATOM      3  N2  <0> d          -1.079  -2.545  -2.015  0.00  0.00    -0.197 NA
ATOM      4  H3  <0> d          -1.228  -1.476   0.938  0.00  0.00     0.064 H 
ATOM      5  H4  <0> d          -2.110  -0.302  -0.068  0.00  0.00     0.064 H 
ENDROOT
BRANCH   1   6
ATOM      6  C3  <0> d           0.002  -0.004   0.002  0.00  0.00     0.077 A 
ATOM      7  C1  <0> d          -0.017   1.402   0.010  0.00  0.00    -0.033 A 
ATOM      8  C2  <0> d           1.257   1.839  -0.000  0.00  0.00     0.045 A 
ATOM      9  H1  <0> d          -0.900   2.024   0.025  0.00  0.00     0.089 H 
ATOM     10  O1  <0> d           2.063   0.766  -0.013  0.00  0.00    -0.226 OA
ATOM     11  H2  <0> d           1.575   2.871   0.002  0.00  0.00     0.126 H 
ATOM     12  N1  <0> d           1.246  -0.391  -0.012  0.00  0.00    -0.133 NA
ENDBRANCH   1   6
TORSDOF 1
