REMARK  1 active torsions:
REMARK  status: ('A' for Active; 'I' for Inactive)
REMARK    1  A    between atoms: C3_3  and  C5_7 
ROOT
ATOM      1  C1  <0> d           1.972   5.164   0.012  0.00  0.00    -0.066 A 
ATOM      2  C2  <0> d           2.383   3.828   0.006  0.00  0.00    -0.049 A 
ATOM      3  C3  <0> d           1.239   3.055   0.007  0.00  0.00     0.109 A 
ATOM      4  N1  <0> d           0.161   3.912   0.021  0.00  0.00    -0.360 N 
ATOM      5  H1  <0> d          -0.771   3.647   0.028  0.00  0.00     0.165 HD
ATOM      6  C4  <0> d           0.618   5.182   0.025  0.00  0.00    -0.022 A 
ATOM      7  H2  <0> d           2.620   6.028   0.012  0.00  0.00     0.085 H 
ATOM      8  H3  <0> d           3.401   3.468  -0.001  0.00  0.00     0.087 H 
ATOM      9  H4  <0> d           0.002   6.070   0.036  0.00  0.00     0.111 H 
ENDROOT
BRANCH   3  10
ATOM     10  C5  <0> d           1.182   1.591  -0.001  0.00  0.00     0.226 C 
ATOM     11  O1  <0> d           2.211   0.943  -0.014  0.00  0.00    -0.643 OA
ATOM     12  O2  <0> d          -0.011   0.963   0.007  0.00  0.00    -0.643 OA
ENDBRANCH   3  10
TORSDOF 1
