REMARK  1 active torsions:
REMARK  status: ('A' for Active; 'I' for Inactive)
REMARK    1  A    between atoms: C3_3  and  C6_7 
ROOT
ATOM      1  C6  <0> d           3.679   2.027  -0.023  0.00  0.00     0.040 C 
ATOM      2  N2  <0> d           3.829   3.305  -0.012  0.00  0.00    -0.293 NA
ATOM      3  C7  <0> d           5.241   3.701  -0.027  0.00  0.00     0.015 C 
ATOM      4  C8  <0> d           6.022   2.427   0.369  0.00  0.00    -0.043 C 
ATOM      5  C9  <0> d           5.018   1.324  -0.039  0.00  0.00    -0.023 C 
ATOM      6  H5  <0> d           5.532   4.028  -1.026  0.00  0.00     0.067 H 
ATOM      7  H6  <0> d           5.420   4.495   0.698  0.00  0.00     0.067 H 
ATOM      8  H7  <0> d           6.951   2.344  -0.195  0.00  0.00     0.035 H 
ATOM      9  H8  <0> d           6.213   2.401   1.442  0.00  0.00     0.035 H 
ATOM     10  H9  <0> d           5.030   0.507   0.682  0.00  0.00     0.042 H 
ATOM     11  H10 <0> d           5.244   0.956  -1.040  0.00  0.00     0.042 H 
ENDROOT
BRANCH   1  12
ATOM     12  C3  <0> d           2.373   1.339  -0.013  0.00  0.00     0.006 A 
ATOM     13  C2  <0> d           1.181   2.073   0.002  0.00  0.00    -0.068 A 
ATOM     14  C1  <0> d          -0.017   1.379   0.010  0.00  0.00    -0.065 A 
ATOM     15  H2  <0> d           1.195   3.153   0.007  0.00  0.00     0.085 H 
ATOM     16  C5  <0> d           0.002  -0.004   0.002  0.00  0.00     0.002 A 
ATOM     17  H1  <0> d          -0.956   1.912   0.026  0.00  0.00     0.085 H 
ATOM     18  N1  <0> d           1.141  -0.670  -0.013  0.00  0.00    -0.272 NA
ATOM     19  H4  <0> d          -0.931  -0.548   0.008  0.00  0.00     0.114 H 
ATOM     20  C4  <0> d           2.306  -0.056  -0.020  0.00  0.00     0.014 A 
ATOM     21  H3  <0> d           3.217  -0.636  -0.032  0.00  0.00     0.116 H 
ENDBRANCH   1  12
TORSDOF 1
