REMARK  3 active torsions:
REMARK  status: ('A' for Active; 'I' for Inactive)
REMARK    1  A    between atoms: C1_1  and  C2_2 
REMARK    2  A    between atoms: C2_2  and  N1_3 
REMARK    3  A    between atoms: C5_6  and  C6_8 
REMARK       I    between atoms: C6_8  and  N3_10 
ROOT
ATOM      1  N1  <0> d          -0.656   3.155   0.025  0.00  0.00    -0.281 N 
ATOM      2  C3  <0> d          -1.101   1.880   0.017  0.00  0.00     0.001 A 
ATOM      3  C4  <0> d          -0.013   1.076   0.008  0.00  0.00    -0.032 A 
ATOM      4  C5  <0> d           1.102   1.948   0.002  0.00  0.00     0.145 A 
ATOM      5  N2  <0> d           0.628   3.178   0.013  0.00  0.00    -0.168 NA
ATOM      6  H6  <0> d          -2.133   1.562   0.019  0.00  0.00     0.114 H 
ATOM      7  H7  <0> d           0.002  -0.004   0.002  0.00  0.00     0.089 H 
ENDROOT
BRANCH   1   8
ATOM      8  C2  <0> d          -1.514   4.342   0.040  0.00  0.00     0.013 C 
ATOM      9  H4  <0> d          -1.384   4.896  -0.890  0.00  0.00     0.066 H 
ATOM     10  H5  <0> d          -2.556   4.036   0.137  0.00  0.00     0.066 H 
BRANCH   8  11
ATOM     11  C1  <0> d          -1.132   5.234   1.222  0.00  0.00    -0.059 C 
ATOM     12  H1  <0> d          -0.090   5.540   1.125  0.00  0.00     0.029 H 
ATOM     13  H2  <0> d          -1.771   6.117   1.233  0.00  0.00     0.029 H 
ATOM     14  H3  <0> d          -1.262   4.680   2.152  0.00  0.00     0.029 H 
ENDBRANCH   8  11
ENDBRANCH   1   8
BRANCH   4  15
ATOM     15  C6  <0> d           2.526   1.554  -0.015  0.00  0.00     0.269 C 
ATOM     16  O1  <0> d           2.831   0.377  -0.024  0.00  0.00    -0.266 OA
ATOM     17  N3  <0> d           3.486   2.499  -0.018  0.00  0.00    -0.365 N 
ATOM     18  H8  <0> d           3.243   3.438  -0.011  0.00  0.00     0.159 HD
ATOM     19  H9  <0> d           4.421   2.241  -0.029  0.00  0.00     0.159 HD
ENDBRANCH   4  15
TORSDOF 3
