REMARK  2 active torsions:
REMARK  status: ('A' for Active; 'I' for Inactive)
REMARK    1  A    between atoms: C1_1  and  C2_2 
REMARK    2  A    between atoms: C2_2  and  C5_8 
ROOT
ATOM      1  C2  <0> d          -1.219   1.805   0.017  0.00  0.00     0.050 A 
ATOM      2  C3  <0> d          -0.667   3.243   0.024  0.00  0.00     0.053 A 
ATOM      3  O1  <0> d           0.779   3.066   0.010  0.00  0.00    -0.302 OA
ATOM      4  C4  <0> d           1.068   1.760   0.001  0.00  0.00     0.361 A 
ATOM      5  O2  <0> d           2.206   1.333  -0.011  0.00  0.00    -0.238 OA
ATOM      6  N1  <0> d          -0.011   0.966   0.007  0.00  0.00    -0.326 N 
ATOM      7  H4  <0> d          -0.978   3.771   0.926  0.00  0.00     0.079 H 
ATOM      8  H5  <0> d          -0.994   3.782  -0.865  0.00  0.00     0.079 H 
ATOM      9  H6  <0> d           0.002  -0.004   0.002  0.00  0.00     0.165 HD
ENDROOT
BRANCH   1  10
ATOM     10  C1  <0> d          -2.057   1.555  -1.238  0.00  0.00    -0.051 C 
ATOM     11  H1  <0> d          -2.377   0.513  -1.261  0.00  0.00     0.030 H 
ATOM     12  H2  <0> d          -2.933   2.203  -1.226  0.00  0.00     0.030 H 
ATOM     13  H3  <0> d          -1.459   1.770  -2.124  0.00  0.00     0.030 H 
ENDBRANCH   1  10
BRANCH   1  14
ATOM     14  C5  <0> d          -2.046   1.543   1.278  0.00  0.00    -0.051 C 
ATOM     15  H7  <0> d          -1.439   1.749   2.159  0.00  0.00     0.030 H 
ATOM     16  H8  <0> d          -2.922   2.191   1.279  0.00  0.00     0.030 H 
ATOM     17  H9  <0> d          -2.365   0.500   1.292  0.00  0.00     0.030 H 
ENDBRANCH   1  14
TORSDOF 2
