REMARK  1 active torsions:
REMARK  status: ('A' for Active; 'I' for Inactive)
REMARK    1  A    between atoms: C1_1  and  C2_2 
ROOT
ATOM      1  C2  <0> d          -0.132   3.909   0.024  0.00  0.00    -0.029 A 
ATOM      2  C3  <0> d          -1.252   3.143   0.031  0.00  0.00    -0.075 A 
ATOM      3  C4  <0> d          -1.192   1.744   0.017  0.00  0.00    -0.080 A 
ATOM      4  C5  <0> d          -0.013   1.076   0.008  0.00  0.00    -0.051 A 
ATOM      5  C6  <0> d           1.194   1.803   0.000  0.00  0.00     0.117 A 
ATOM      6  C7  <0> d           1.131   3.286   0.009  0.00  0.00     0.123 A 
ATOM      7  N1  <0> d           2.395   3.629  -0.001  0.00  0.00    -0.102 NA
ATOM      8  O1  <0> d           3.079   2.626  -0.013  0.00  0.00    -0.106 OA
ATOM      9  N2  <0> d           2.482   1.568  -0.013  0.00  0.00    -0.103 NA
ATOM     10  H4  <0> d          -2.217   3.627   0.043  0.00  0.00     0.084 H 
ATOM     11  H5  <0> d          -2.114   1.181   0.018  0.00  0.00     0.083 H 
ATOM     12  H6  <0> d           0.002  -0.004   0.002  0.00  0.00     0.087 H 
ENDROOT
BRANCH   1  13
ATOM     13  C1  <0> d          -0.239   5.412   0.033  0.00  0.00    -0.049 C 
ATOM     14  H1  <0> d          -0.274   5.780  -0.993  0.00  0.00     0.033 H 
ATOM     15  H2  <0> d          -1.147   5.709   0.557  0.00  0.00     0.033 H 
ATOM     16  H3  <0> d           0.628   5.835   0.541  0.00  0.00     0.033 H 
ENDBRANCH   1  13
TORSDOF 1
