REMARK  0 active torsions:
REMARK  status: ('A' for Active; 'I' for Inactive)
ROOT
ATOM      1  C1  <0> d          -0.111   5.306   0.476  0.00  0.00     0.039 A 
ATOM      2  C2  <0> d          -0.085   3.925   0.427  0.00  0.00     0.132 A 
ATOM      3  C3  <0> d           1.103   3.290   0.054  0.00  0.00     0.166 A 
ATOM      4  N1  <0> d           2.163   4.028  -0.241  0.00  0.00    -0.221 NA
ATOM      5  C4  <0> d           2.096   5.345  -0.181  0.00  0.00     0.088 A 
ATOM      6  N2  <0> d           0.993   5.975   0.167  0.00  0.00    -0.251 NA
ATOM      7  N3  <0> d           1.146   1.901   0.001  0.00  0.00    -0.307 N 
ATOM      8  C5  <0> d          -0.014   1.208   0.009  0.00  0.00     0.247 C 
ATOM      9  O1  <0> d           0.002  -0.004   0.002  0.00  0.00    -0.271 OA
ATOM     10  C6  <0> d          -1.329   1.945   0.019  0.00  0.00     0.100 C 
ATOM     11  O2  <0> d          -1.180   3.182   0.728  0.00  0.00    -0.337 OA
ATOM     12  H1  <0> d          -1.011   5.831   0.761  0.00  0.00     0.119 H 
ATOM     13  H2  <0> d           2.974   5.924  -0.426  0.00  0.00     0.146 H 
ATOM     14  H3  <0> d           1.996   1.436  -0.040  0.00  0.00     0.170 HD
ATOM     15  H4  <0> d          -1.641   2.146  -1.006  0.00  0.00     0.089 H 
ATOM     16  H5  <0> d          -2.084   1.333   0.513  0.00  0.00     0.089 H 
ENDROOT
TORSDOF 0
