REMARK  2 active torsions:
REMARK  status: ('A' for Active; 'I' for Inactive)
REMARK    1  A    between atoms: C1_1  and  C2_2 
REMARK    2  A    between atoms: C5_6  and  N2_7 
ROOT
ATOM      1  C2  <0> d          -0.742   1.585  -1.213  0.00  0.00    -0.061 C 
ATOM      2  C3  <0> d          -0.878   2.897  -1.418  0.00  0.00    -0.080 C 
ATOM      3  C4  <0> d          -1.614   3.396  -2.637  0.00  0.00     0.009 C 
ATOM      4  N1  <0> d          -1.483   2.407  -3.714  0.00  0.00    -0.373 N 
ATOM      5  C5  <0> d          -1.655   1.065  -3.409  0.00  0.00     0.095 C 
ATOM      6  C6  <0> d          -1.294   0.631  -2.176  0.00  0.00    -0.036 C 
ATOM      7  H4  <0> d          -0.463   3.601  -0.712  0.00  0.00     0.080 H 
ATOM      8  H5  <0> d          -2.668   3.534  -2.395  0.00  0.00     0.070 H 
ATOM      9  H6  <0> d          -1.185   4.345  -2.958  0.00  0.00     0.070 H 
ATOM     10  H7  <0> d          -1.281   2.687  -4.621  0.00  0.00     0.161 HD
ATOM     11  H9  <0> d          -1.417  -0.408  -1.907  0.00  0.00     0.090 H 
ENDROOT
BRANCH   1  12
ATOM     12  C1  <0> d          -0.013   1.086   0.008  0.00  0.00    -0.051 C 
ATOM     13  H1  <0> d           0.002  -0.004   0.002  0.00  0.00     0.033 H 
ATOM     14  H2  <0> d           1.010   1.463   0.000  0.00  0.00     0.033 H 
ATOM     15  H3  <0> d          -0.523   1.437   0.905  0.00  0.00     0.033 H 
ENDBRANCH   1  12
BRANCH   5  16
ATOM     16  N2  <0> d          -2.176   0.190  -4.343  0.00  0.00    -0.386 N 
ATOM     17  H8  <0> d          -2.426   0.512  -5.223  0.00  0.00     0.157 HD
ATOM     18  H10 <0> d          -2.292  -0.746  -4.118  0.00  0.00     0.157 HD
ENDBRANCH   5  16
TORSDOF 2
