REMARK  1 active torsions:
REMARK  status: ('A' for Active; 'I' for Inactive)
REMARK    1  A    between atoms: C1_1  and  C2_2 
ROOT
ATOM      1  C2  <0> d           0.035   3.796   0.021  0.00  0.00     0.052 A 
ATOM      2  C3  <0> d          -1.188   3.148   0.029  0.00  0.00     0.058 A 
ATOM      3  C4  <0> d          -1.218   1.761   0.017  0.00  0.00    -0.059 A 
ATOM      4  C5  <0> d          -0.013   1.076   0.008  0.00  0.00    -0.064 A 
ATOM      5  C6  <0> d           1.169   1.792   0.001  0.00  0.00     0.003 A 
ATOM      6  N1  <0> d           1.161   3.110   0.007  0.00  0.00    -0.264 NA
ATOM      7 Cl1  <0> d          -2.666   4.059   0.047  0.00  0.00    -0.082 Cl
ATOM      8  H4  <0> d          -2.157   1.228   0.019  0.00  0.00     0.086 H 
ATOM      9  H5  <0> d           0.002  -0.004   0.002  0.00  0.00     0.085 H 
ATOM     10  H6  <0> d           2.112   1.264  -0.011  0.00  0.00     0.114 H 
ENDROOT
BRANCH   1  11
ATOM     11  C1  <0> d           0.080   5.302   0.028  0.00  0.00    -0.034 C 
ATOM     12  H1  <0> d           0.081   5.671  -0.998  0.00  0.00     0.035 H 
ATOM     13  H2  <0> d          -0.794   5.689   0.552  0.00  0.00     0.035 H 
ATOM     14  H3  <0> d           0.985   5.636   0.535  0.00  0.00     0.035 H 
ENDBRANCH   1  11
TORSDOF 1
