REMARK  0 active torsions:
REMARK  status: ('A' for Active; 'I' for Inactive)
ROOT
ATOM      1  C1  <0> d           0.002  -0.004   0.002  0.00  0.00    -0.065 C 
ATOM      2  C2  <0> d          -0.019   1.526   0.010  0.00  0.00    -0.060 C 
ATOM      3  C3  <0> d           1.417   2.055  -0.000  0.00  0.00    -0.012 C 
ATOM      4  C4  <0> d           2.135   1.556  -1.255  0.00  0.00     0.173 C 
ATOM      5  C5  <0> d           2.150   0.028  -1.273  0.00  0.00    -0.012 C 
ATOM      6  C6  <0> d           0.713  -0.497  -1.260  0.00  0.00    -0.060 C 
ATOM      7  O1  <0> d           1.464   2.047  -2.423  0.00  0.00    -0.345 OA
ATOM      8  C7  <0> d           2.432   2.844  -3.130  0.00  0.00     0.103 C 
ATOM      9  C8  <0> d           3.522   3.122  -2.112  0.00  0.00     0.285 C 
ATOM     10  O2  <0> d           4.252   4.083  -2.062  0.00  0.00    -0.263 OA
ATOM     11  O3  <0> d           3.499   2.062  -1.275  0.00  0.00    -0.282 OA
ATOM     12  H1  <0> d           0.533  -0.365   0.883  0.00  0.00     0.033 H 
ATOM     13  H2  <0> d          -1.020  -0.381   0.014  0.00  0.00     0.033 H 
ATOM     14  H3  <0> d          -0.546   1.887  -0.873  0.00  0.00     0.033 H 
ATOM     15  H4  <0> d          -0.529   1.877   0.907  0.00  0.00     0.033 H 
ATOM     16  H5  <0> d           1.402   3.145   0.001  0.00  0.00     0.041 H 
ATOM     17  H6  <0> d           1.942   1.698   0.885  0.00  0.00     0.041 H 
ATOM     18  H7  <0> d           2.680  -0.341  -0.395  0.00  0.00     0.041 H 
ATOM     19  H8  <0> d           2.655  -0.320  -2.175  0.00  0.00     0.041 H 
ATOM     20  H9  <0> d           0.724  -1.587  -1.268  0.00  0.00     0.033 H 
ATOM     21  H10 <0> d           0.185  -0.133  -2.141  0.00  0.00     0.033 H 
ATOM     22  H11 <0> d           1.981   3.778  -3.467  0.00  0.00     0.090 H 
ATOM     23  H12 <0> d           2.836   2.291  -3.978  0.00  0.00     0.090 H 
ENDROOT
TORSDOF 0
