REMARK  6 active torsions:
REMARK  status: ('A' for Active; 'I' for Inactive)
REMARK    1  A    between atoms: C1_1  and  C2_2 
REMARK    2  A    between atoms: C2_2  and  O2_4 
REMARK    3  A    between atoms: O2_4  and  C3_5 
REMARK    4  A    between atoms: C5_8  and  C6_10 
REMARK    5  A    between atoms: C6_10  and  O4_12 
REMARK    6  A    between atoms: O4_12  and  C7_13 
ROOT
ATOM      1  C3  <0> d           1.335   1.811  -0.001  0.00  0.00     0.061 A 
ATOM      2  H1  <0> d           1.408   2.744   0.558  0.00  0.00     0.085 H 
ATOM      3  C4  <0> d           0.460   1.806  -1.256  0.00  0.00    -0.025 A 
ATOM      4  C5  <0> d          -0.013   1.086   0.008  0.00  0.00     0.058 A 
ATOM      5  H2  <0> d           0.002  -0.004   0.002  0.00  0.00     0.059 H 
ATOM      6  H6  <0> d           0.786   1.189  -2.094  0.00  0.00     0.038 H 
ATOM      7  H7  <0> d          -0.042   2.736  -1.524  0.00  0.00     0.038 H 
ENDROOT
BRANCH   1   8
ATOM      8  O2  <0> d           2.535   0.994  -0.017  0.00  0.00    -0.315 OA
BRANCH   8   9
ATOM      9  C2  <0> d           3.627   1.504   0.574  0.00  0.00     0.255 C 
ATOM     10  O1  <0> d           3.582   2.598   1.087  0.00  0.00    -0.266 OA
BRANCH   9  11
ATOM     11  C1  <0> d           4.910   0.714   0.597  0.00  0.00     0.004 C 
ATOM     12  H3  <0> d           5.232   0.515  -0.425  0.00  0.00     0.041 H 
ATOM     13  H4  <0> d           5.680   1.286   1.115  0.00  0.00     0.041 H 
ATOM     14  H5  <0> d           4.747  -0.229   1.117  0.00  0.00     0.041 H 
ENDBRANCH   9  11
ENDBRANCH   8   9
ENDBRANCH   1   8
BRANCH   4  15
ATOM     15  C6  <0> d          -1.137   1.716   0.789  0.00  0.00     0.265 C 
ATOM     16  O3  <0> d          -0.955   2.755   1.379  0.00  0.00    -0.265 OA
BRANCH  15  17
ATOM     17  O4  <0> d          -2.341   1.124   0.829  0.00  0.00    -0.326 OA
BRANCH  17  18
ATOM     18  C7  <0> d          -3.376   1.788   1.601  0.00  0.00     0.013 C 
ATOM     19  H8  <0> d          -3.057   1.873   2.640  0.00  0.00     0.067 H 
ATOM     20  H9  <0> d          -3.553   2.783   1.192  0.00  0.00     0.067 H 
ATOM     21  H10 <0> d          -4.296   1.206   1.550  0.00  0.00     0.067 H 
ENDBRANCH  17  18
ENDBRANCH  15  17
ENDBRANCH   4  15
TORSDOF 6
