REMARK  4 active torsions:
REMARK  status: ('A' for Active; 'I' for Inactive)
REMARK    1  A    between atoms: C1_1  and  C2_2 
REMARK    2  A    between atoms: C2_2  and  C3_3 
REMARK    3  A    between atoms: C2_2  and  C4_4 
REMARK    4  A    between atoms: C8_8  and  O1_10 
ROOT
ATOM      1  C4  <0> d           3.096   2.409  -1.213  0.00  0.00    -0.052 A 
ATOM      2  C5  <0> d           3.734   2.692  -0.019  0.00  0.00    -0.076 A 
ATOM      3  C6  <0> d           3.119   2.397   1.183  0.00  0.00    -0.080 A 
ATOM      4  C7  <0> d           1.863   1.822   1.195  0.00  0.00    -0.051 A 
ATOM      5  C8  <0> d           1.223   1.532  -0.001  0.00  0.00     0.066 A 
ATOM      6  C9  <0> d           1.842   1.830  -1.207  0.00  0.00    -0.045 A 
ATOM      7  H8  <0> d           4.715   3.145  -0.026  0.00  0.00     0.084 H 
ATOM      8  H9  <0> d           3.619   2.619   2.114  0.00  0.00     0.083 H 
ATOM      9  H10 <0> d           1.381   1.596   2.134  0.00  0.00     0.087 H 
ATOM     10  H11 <0> d           1.344   1.609  -2.139  0.00  0.00     0.088 H 
ENDROOT
BRANCH   1  11
ATOM     11  C2  <0> d           3.770   2.733  -2.522  0.00  0.00    -0.035 C 
ATOM     12  H4  <0> d           3.120   2.441  -3.347  0.00  0.00     0.046 H 
BRANCH  11  13
ATOM     13  C1  <0> d           4.044   4.236  -2.596  0.00  0.00    -0.069 C 
ATOM     14  H1  <0> d           4.531   4.470  -3.543  0.00  0.00     0.028 H 
ATOM     15  H2  <0> d           3.103   4.781  -2.527  0.00  0.00     0.028 H 
ATOM     16  H3  <0> d           4.694   4.528  -1.771  0.00  0.00     0.028 H 
ENDBRANCH  11  13
BRANCH  11  17
ATOM     17  C3  <0> d           5.091   1.968  -2.618  0.00  0.00    -0.069 C 
ATOM     18  H5  <0> d           4.896   0.896  -2.565  0.00  0.00     0.028 H 
ATOM     19  H6  <0> d           5.578   2.202  -3.565  0.00  0.00     0.028 H 
ATOM     20  H7  <0> d           5.741   2.259  -1.793  0.00  0.00     0.028 H 
ENDBRANCH  11  17
ENDBRANCH   1  11
BRANCH   5  21
ATOM     21  O1  <0> d          -0.011   0.963   0.007  0.00  0.00    -0.361 OA
ATOM     22  H12 <0> d           0.002  -0.004   0.002  0.00  0.00     0.217 HD
ENDBRANCH   5  21
TORSDOF 4
