REMARK  4 active torsions:
REMARK  status: ('A' for Active; 'I' for Inactive)
REMARK    1  A    between atoms: C1_1  and  C2_2 
REMARK    2  A    between atoms: C2_2  and  C4_4 
REMARK    3  A    between atoms: C4_4  and  C5_5 
REMARK    4  A    between atoms: C5_5  and  C6_6 
ROOT
ATOM      1  C6  <0> d          -0.018   1.468   0.010  0.00  0.00     0.015 C 
ATOM      2  C7  <0> d           0.002  -0.004   0.002  0.00  0.00     0.059 C 
ATOM      3  N1  <0> d           0.018  -1.140  -0.004  0.00  0.00    -0.197 NA
ATOM      4  H10 <0> d           1.005   1.845   0.002  0.00  0.00     0.054 H 
ATOM      5  H11 <0> d          -0.545   1.829  -0.873  0.00  0.00     0.054 H 
ENDROOT
BRANCH   1   6
ATOM      6  C5  <0> d          -0.734   1.961   1.269  0.00  0.00    -0.050 C 
ATOM      7  H8  <0> d          -1.757   1.584   1.277  0.00  0.00     0.034 H 
ATOM      8  H9  <0> d          -0.207   1.600   2.152  0.00  0.00     0.034 H 
BRANCH   6   9
ATOM      9  C4  <0> d          -0.755   3.491   1.277  0.00  0.00    -0.045 C 
ATOM     10  H6  <0> d           0.268   3.868   1.270  0.00  0.00     0.039 H 
ATOM     11  H7  <0> d          -1.282   3.852   0.394  0.00  0.00     0.039 H 
BRANCH   9  12
ATOM     12  C2  <0> d          -1.460   3.977   2.517  0.00  0.00    -0.093 C 
ATOM     13  C3  <0> d          -0.768   4.292   3.584  0.00  0.00    -0.119 C 
ATOM     14  H4  <0> d          -1.273   4.640   4.472  0.00  0.00     0.067 H 
ATOM     15  H5  <0> d           0.309   4.204   3.574  0.00  0.00     0.067 H 
BRANCH  12  16
ATOM     16  C1  <0> d          -2.962   4.101   2.530  0.00  0.00    -0.055 C 
ATOM     17  H1  <0> d          -3.360   3.796   1.562  0.00  0.00     0.033 H 
ATOM     18  H2  <0> d          -3.373   3.459   3.310  0.00  0.00     0.033 H 
ATOM     19  H3  <0> d          -3.240   5.136   2.728  0.00  0.00     0.033 H 
ENDBRANCH  12  16
ENDBRANCH   9  12
ENDBRANCH   6   9
ENDBRANCH   1   6
TORSDOF 4
