REMARK  1 active torsions:
REMARK  status: ('A' for Active; 'I' for Inactive)
REMARK    1  A    between atoms: C5_7  and  N3_13 
ROOT
ATOM      1  C1  <0> d          -0.018   1.459   0.010  0.00  0.00    -0.054 A 
ATOM      2  C2  <0> d           1.262   1.870   0.000  0.00  0.00    -0.022 A 
ATOM      3  N1  <0> d           2.098   0.788  -0.014  0.00  0.00    -0.365 N 
ATOM      4  H1  <0> d           3.067   0.833  -0.023  0.00  0.00     0.165 HD
ATOM      5  C3  <0> d           1.359  -0.375  -0.013  0.00  0.00     0.046 A 
ATOM      6  C4  <0> d           0.002  -0.004   0.002  0.00  0.00     0.018 A 
ATOM      7  C5  <0> d          -0.999  -0.989   0.006  0.00  0.00     0.039 A 
ATOM      8  C6  <0> d          -0.646  -2.322  -0.002  0.00  0.00    -0.037 A 
ATOM      9  C7  <0> d           0.706  -2.693  -0.018  0.00  0.00     0.049 A 
ATOM     10  C8  <0> d           1.703  -1.720  -0.023  0.00  0.00    -0.036 A 
ATOM     11  C9  <0> d           1.065  -4.079  -0.028  0.00  0.00     0.099 C 
ATOM     12  N2  <0> d           1.349  -5.179  -0.036  0.00  0.00    -0.191 NA
ATOM     13  H2  <0> d          -0.895   2.089   0.018  0.00  0.00     0.087 H 
ATOM     14  H3  <0> d           1.582   2.901   0.002  0.00  0.00     0.111 H 
ATOM     15  H4  <0> d          -1.412  -3.083   0.002  0.00  0.00     0.089 H 
ATOM     16  H5  <0> d           2.743  -2.012  -0.034  0.00  0.00     0.089 H 
ENDROOT
BRANCH   7  17
ATOM     17  N3  <0> d          -2.345  -0.620   0.021  0.00  0.00    -0.398 N 
ATOM     18  H6  <0> d          -2.591   0.318   0.029  0.00  0.00     0.156 HD
ATOM     19  H7  <0> d          -3.035  -1.303   0.024  0.00  0.00     0.156 HD
ENDBRANCH   7  17
TORSDOF 1
