REMARK  5 active torsions:
REMARK  status: ('A' for Active; 'I' for Inactive)
REMARK    1  A    between atoms: C1_1  and  C2_2 
REMARK    2  A    between atoms: C2_2  and  C3_3 
REMARK    3  A    between atoms: C3_3  and  C4_4 
REMARK    4  A    between atoms: C6_6  and  C7_9 
REMARK    5  A    between atoms: C7_9  and  O2_10 
ROOT
ATOM      1  C4  <0> d           1.396   3.562   0.008  0.00  0.00     0.064 A 
ATOM      2  C5  <0> d           2.043   4.413   0.934  0.00  0.00    -0.024 A 
ATOM      3  C6  <0> d           1.721   5.660   0.513  0.00  0.00     0.104 A 
ATOM      4  O1  <0> d           0.948   5.506  -0.572  0.00  0.00    -0.215 OA
ATOM      5  N1  <0> d           0.784   4.338  -0.839  0.00  0.00    -0.133 NA
ATOM      6  H8  <0> d           2.653   4.133   1.780  0.00  0.00     0.090 H 
ENDROOT
BRANCH   1   7
ATOM      7  C3  <0> d           1.417   2.055  -0.000  0.00  0.00    -0.023 C 
ATOM      8  H6  <0> d           1.944   1.694   0.883  0.00  0.00     0.042 H 
ATOM      9  H7  <0> d           1.927   1.704  -0.897  0.00  0.00     0.042 H 
BRANCH   7  10
ATOM     10  C2  <0> d          -0.019   1.526   0.010  0.00  0.00    -0.063 C 
ATOM     11  H4  <0> d          -0.546   1.887  -0.873  0.00  0.00     0.033 H 
ATOM     12  H5  <0> d          -0.529   1.877   0.907  0.00  0.00     0.033 H 
BRANCH  10  13
ATOM     13  C1  <0> d           0.002  -0.004   0.002  0.00  0.00    -0.076 C 
ATOM     14  H1  <0> d          -1.020  -0.381   0.010  0.00  0.00     0.027 H 
ATOM     15  H2  <0> d           0.512  -0.356  -0.895  0.00  0.00     0.027 H 
ATOM     16  H3  <0> d           0.529  -0.365   0.885  0.00  0.00     0.027 H 
ENDBRANCH  10  13
ENDBRANCH   7  10
ENDBRANCH   1   7
BRANCH   3  17
ATOM     17  C7  <0> d           2.147   6.962   1.141  0.00  0.00     0.063 C 
ATOM     18  H9  <0> d           1.379   7.716   0.969  0.00  0.00     0.084 H 
ATOM     19  H10 <0> d           2.284   6.821   2.213  0.00  0.00     0.084 H 
BRANCH  17  20
ATOM     20  O2  <0> d           3.377   7.392   0.555  0.00  0.00    -0.394 OA
ATOM     21  H11 <0> d           3.712   8.226   0.912  0.00  0.00     0.209 HD
ENDBRANCH  17  20
ENDBRANCH   3  17
TORSDOF 5
