REMARK  3 active torsions:
REMARK  status: ('A' for Active; 'I' for Inactive)
REMARK    1  A    between atoms: C1_1  and  C2_2 
REMARK    2  A    between atoms: C4_4  and  N3_8 
REMARK    3  A    between atoms: N1_5  and  C5_7 
ROOT
ATOM      1  C2  <0> d           2.115   0.786  -0.014  0.00  0.00     0.075 A 
ATOM      2  C3  <0> d           1.338  -0.396  -0.013  0.00  0.00     0.115 A 
ATOM      3  C4  <0> d           0.002  -0.004   0.002  0.00  0.00     0.140 A 
ATOM      4  N1  <0> d          -0.016   1.345   0.009  0.00  0.00    -0.257 N 
ATOM      5  N2  <0> d           1.304   1.806  -0.001  0.00  0.00    -0.175 NA
ATOM      6  C6  <0> d           1.831  -1.740  -0.024  0.00  0.00     0.105 C 
ATOM      7  N4  <0> d           2.223  -2.806  -0.033  0.00  0.00    -0.191 NA
ENDROOT
BRANCH   1   8
ATOM      8  C1  <0> d           3.621   0.853  -0.028  0.00  0.00    -0.032 C 
ATOM      9  H1  <0> d           3.974   0.875  -1.059  0.00  0.00     0.035 H 
ATOM     10  H2  <0> d           3.949   1.756   0.488  0.00  0.00     0.035 H 
ATOM     11  H3  <0> d           4.028  -0.022   0.477  0.00  0.00     0.035 H 
ENDBRANCH   1   8
BRANCH   3  12
ATOM     12  N3  <0> d          -1.098  -0.840   0.009  0.00  0.00    -0.383 N 
ATOM     13  H7  <0> d          -1.993  -0.464   0.020  0.00  0.00     0.157 HD
ATOM     14  H8  <0> d          -0.976  -1.802   0.002  0.00  0.00     0.157 HD
ENDBRANCH   3  12
BRANCH   4  15
ATOM     15  C5  <0> d          -1.216   2.185   0.020  0.00  0.00     0.004 C 
ATOM     16  H4  <0> d          -1.509   2.388   1.050  0.00  0.00     0.059 H 
ATOM     17  H5  <0> d          -1.006   3.125  -0.490  0.00  0.00     0.059 H 
ATOM     18  H6  <0> d          -2.027   1.667  -0.493  0.00  0.00     0.059 H 
ENDBRANCH   4  15
TORSDOF 3
