REMARK  6 active torsions:
REMARK  status: ('A' for Active; 'I' for Inactive)
REMARK    1  A    between atoms: C1_1  and  C2_2 
REMARK    2  A    between atoms: C2_2  and  C3_3 
REMARK    3  A    between atoms: C3_3  and  C4_4 
REMARK    4  A    between atoms: C4_4  and  N1_5 
REMARK    5  A    between atoms: C5_6  and  N3_11 
REMARK    6  A    between atoms: C6_7  and  C8_10 
ROOT
ATOM      1  N1  <0> d          -1.391   2.988   0.030  0.00  0.00    -0.254 N 
ATOM      2  C5  <0> d          -1.226   1.645   0.017  0.00  0.00     0.124 A 
ATOM      3  C6  <0> d          -2.465   1.079   0.020  0.00  0.00     0.002 A 
ATOM      4  C7  <0> d          -3.406   2.112   0.031  0.00  0.00     0.031 A 
ATOM      5  N2  <0> d          -2.766   3.253   0.034  0.00  0.00    -0.183 NA
ATOM      6  H10 <0> d          -4.479   1.989   0.035  0.00  0.00     0.118 H 
ENDROOT
BRANCH   1   7
ATOM      7  C4  <0> d          -0.320   3.988   0.037  0.00  0.00     0.019 C 
ATOM      8  H8  <0> d          -0.660   4.881   0.560  0.00  0.00     0.067 H 
ATOM      9  H9  <0> d           0.554   3.580   0.544  0.00  0.00     0.067 H 
BRANCH   7  10
ATOM     10  C3  <0> d           0.049   4.350  -1.403  0.00  0.00    -0.049 C 
ATOM     11  H6  <0> d           0.389   3.456  -1.927  0.00  0.00     0.035 H 
ATOM     12  H7  <0> d          -0.826   4.757  -1.911  0.00  0.00     0.035 H 
BRANCH  10  13
ATOM     13  C2  <0> d           1.167   5.394  -1.396  0.00  0.00    -0.067 C 
ATOM     14  H4  <0> d           0.826   6.287  -0.873  0.00  0.00     0.032 H 
ATOM     15  H5  <0> d           2.041   4.987  -0.889  0.00  0.00     0.032 H 
BRANCH  13  16
ATOM     16  C1  <0> d           1.535   5.756  -2.837  0.00  0.00    -0.076 C 
ATOM     17  H1  <0> d           1.875   4.863  -3.360  0.00  0.00     0.027 H 
ATOM     18  H2  <0> d           0.661   6.163  -3.344  0.00  0.00     0.027 H 
ATOM     19  H3  <0> d           2.332   6.500  -2.832  0.00  0.00     0.027 H 
ENDBRANCH  13  16
ENDBRANCH  10  13
ENDBRANCH   7  10
ENDBRANCH   1   7
BRANCH   2  20
ATOM     20  N3  <0> d          -0.011   0.966   0.007  0.00  0.00    -0.384 N 
ATOM     21  H14 <0> d           0.002  -0.004   0.002  0.00  0.00     0.157 HD
ATOM     22  H15 <0> d           0.822   1.462   0.002  0.00  0.00     0.157 HD
ENDBRANCH   2  20
BRANCH   3  23
ATOM     23  C8  <0> d          -2.766  -0.397   0.013  0.00  0.00    -0.046 C 
ATOM     24  H11 <0> d          -2.833  -0.759   1.039  0.00  0.00     0.033 H 
ATOM     25  H12 <0> d          -3.713  -0.572  -0.497  0.00  0.00     0.033 H 
ATOM     26  H13 <0> d          -1.969  -0.928  -0.508  0.00  0.00     0.033 H 
ENDBRANCH   3  23
TORSDOF 6
