REMARK  3 active torsions:
REMARK  status: ('A' for Active; 'I' for Inactive)
REMARK    1  A    between atoms: C1_1  and  C2_2 
REMARK    2  A    between atoms: C2_2  and  C3_4 
REMARK    3  A    between atoms: C2_2  and  O2_12 
REMARK       I    between atoms: C3_4  and  N1_6 
ROOT
ATOM      1  C3  <0> d           3.149  -0.646   1.466  0.00  0.00     0.248 C 
ATOM      2  O1  <0> d           3.053  -1.853   1.526  0.00  0.00    -0.270 OA
ATOM      3  N1  <0> d           2.043   0.113   1.334  0.00  0.00    -0.350 N 
ATOM      4  C4  <0> d           0.714  -0.508   1.262  0.00  0.00    -0.002 C 
ATOM      5  C5  <0> d           0.002  -0.004   0.002  0.00  0.00    -0.050 C 
ATOM      6  C6  <0> d          -0.019   1.526   0.010  0.00  0.00    -0.062 C 
ATOM      7  C7  <0> d           1.417   2.058  -0.000  0.00  0.00    -0.050 C 
ATOM      8  C8  <0> d           2.144   1.577   1.259  0.00  0.00    -0.002 C 
ATOM      9  H5  <0> d           0.134  -0.234   2.143  0.00  0.00     0.064 H 
ATOM     10  H6  <0> d           0.817  -1.592   1.214  0.00  0.00     0.064 H 
ATOM     11  H7  <0> d          -1.020  -0.382  -0.014  0.00  0.00     0.035 H 
ATOM     12  H8  <0> d           0.534  -0.356  -0.882  0.00  0.00     0.035 H 
ATOM     13  H9  <0> d          -0.546   1.887  -0.873  0.00  0.00     0.033 H 
ATOM     14  H10 <0> d          -0.529   1.877   0.907  0.00  0.00     0.033 H 
ATOM     15  H11 <0> d           1.935   1.686  -0.884  0.00  0.00     0.035 H 
ATOM     16  H12 <0> d           1.401   3.147  -0.018  0.00  0.00     0.035 H 
ATOM     17  H13 <0> d           1.681   2.021   2.140  0.00  0.00     0.064 H 
ATOM     18  H14 <0> d           3.193   1.869   1.209  0.00  0.00     0.064 H 
ENDROOT
BRANCH   1  19
ATOM     19  C2  <0> d           4.506   0.006   1.539  0.00  0.00     0.109 C 
ATOM     20  H1  <0> d           4.649   0.647   0.668  0.00  0.00     0.097 H 
BRANCH  19  21
ATOM     21  C1  <0> d           4.599   0.849   2.813  0.00  0.00    -0.044 C 
ATOM     22  H2  <0> d           4.457   0.209   3.683  0.00  0.00     0.031 H 
ATOM     23  H3  <0> d           5.580   1.321   2.865  0.00  0.00     0.031 H 
ATOM     24  H4  <0> d           3.827   1.618   2.797  0.00  0.00     0.031 H 
ENDBRANCH  19  21
BRANCH  19  25
ATOM     25  O2  <0> d           5.519  -1.002   1.560  0.00  0.00    -0.387 OA
ATOM     26  H15 <0> d           5.453  -1.609   2.309  0.00  0.00     0.210 HD
ENDBRANCH  19  25
ENDBRANCH   1  19
TORSDOF 3
