REMARK  2 active torsions:
REMARK  status: ('A' for Active; 'I' for Inactive)
REMARK    1  A    between atoms: C1_1  and  C2_2 
REMARK    2  A    between atoms: C2_2  and  C9_11 
REMARK       I    between atoms: C9_11  and  N1_13 
ROOT
ATOM      1  C2  <0> d          -1.208   3.131   0.025  0.00  0.00     0.044 C 
ATOM      2  C3  <0> d          -0.626   3.690  -1.296  0.00  0.00    -0.043 C 
ATOM      3  C4  <0> d          -1.818   4.486  -1.917  0.00  0.00    -0.036 C 
ATOM      4  H1  <0> d          -1.743   4.742  -2.974  0.00  0.00     0.046 H 
ATOM      5  C5  <0> d          -3.022   3.567  -1.497  0.00  0.00    -0.051 C 
ATOM      6  C6  <0> d          -2.677   3.660   0.035  0.00  0.00    -0.022 C 
ATOM      7  H2  <0> d          -3.364   3.165   0.721  0.00  0.00     0.048 H 
ATOM      8  C7  <0> d          -2.526   5.179   0.177  0.00  0.00    -0.101 C 
ATOM      9  C8  <0> d          -2.030   5.655  -0.948  0.00  0.00    -0.102 C 
ATOM     10  H6  <0> d           0.215   4.354  -1.094  0.00  0.00     0.035 H 
ATOM     11  H7  <0> d          -0.323   2.877  -1.956  0.00  0.00     0.035 H 
ATOM     12  H8  <0> d          -2.929   2.553  -1.885  0.00  0.00     0.035 H 
ATOM     13  H9  <0> d          -3.989   4.012  -1.734  0.00  0.00     0.035 H 
ATOM     14  H10 <0> d          -2.781   5.760   1.051  0.00  0.00     0.077 H 
ATOM     15  H11 <0> d          -1.811   6.693  -1.152  0.00  0.00     0.076 H 
ENDROOT
BRANCH   1  16
ATOM     16  C1  <0> d          -0.433   3.671   1.229  0.00  0.00    -0.060 C 
ATOM     17  H3  <0> d           0.598   3.321   1.184  0.00  0.00     0.029 H 
ATOM     18  H4  <0> d          -0.449   4.761   1.211  0.00  0.00     0.029 H 
ATOM     19  H5  <0> d          -0.898   3.316   2.149  0.00  0.00     0.029 H 
ENDBRANCH   1  16
BRANCH   1  20
ATOM     20  C9  <0> d          -1.187   1.624   0.017  0.00  0.00     0.224 C 
ATOM     21  O1  <0> d          -2.229   1.003   0.018  0.00  0.00    -0.273 OA
ATOM     22  N1  <0> d          -0.011   0.966   0.007  0.00  0.00    -0.369 N 
ATOM     23  H12 <0> d           0.002  -0.004   0.002  0.00  0.00     0.159 HD
ATOM     24  H13 <0> d           0.822   1.462   0.002  0.00  0.00     0.159 HD
ENDBRANCH   1  20
TORSDOF 2
