REMARK  5 active torsions:
REMARK  status: ('A' for Active; 'I' for Inactive)
REMARK    1  A    between atoms: C1_1  and  C2_2 
REMARK    2  A    between atoms: C2_2  and  C3_3 
REMARK    3  A    between atoms: C4_4  and  C5_5 
REMARK    4  A    between atoms: C5_5  and  C6_6 
REMARK    5  A    between atoms: C6_6  and  O1_7 
ROOT
ATOM      1  C3  <0> d           0.002  -0.004   0.002  0.00  0.00    -0.107 C 
ATOM      2  C4  <0> d          -0.016   1.306   0.009  0.00  0.00    -0.105 C 
ATOM      3  H6  <0> d          -0.926  -0.557   0.008  0.00  0.00     0.076 H 
ATOM      4  H7  <0> d           0.912   1.859   0.003  0.00  0.00     0.076 H 
ENDROOT
BRANCH   2   5
ATOM      5  C5  <0> d          -1.331   2.042   0.019  0.00  0.00    -0.030 C 
ATOM      6  H8  <0> d          -1.440   2.603  -0.908  0.00  0.00     0.042 H 
ATOM      7  H9  <0> d          -2.147   1.325   0.109  0.00  0.00     0.042 H 
BRANCH   5   8
ATOM      8  C6  <0> d          -1.366   3.006   1.206  0.00  0.00     0.020 C 
ATOM      9  H10 <0> d          -1.257   2.445   2.134  0.00  0.00     0.074 H 
ATOM     10  H11 <0> d          -0.550   3.723   1.117  0.00  0.00     0.074 H 
BRANCH   8  11
ATOM     11  O1  <0> d          -2.614   3.704   1.216  0.00  0.00    -0.401 OA
ATOM     12  H12 <0> d          -2.706   4.334   1.944  0.00  0.00     0.209 HD
ENDBRANCH   8  11
ENDBRANCH   5   8
ENDBRANCH   2   5
BRANCH   1  13
ATOM     13  C2  <0> d           1.317  -0.740  -0.015  0.00  0.00    -0.053 C 
ATOM     14  H4  <0> d           1.413  -1.291  -0.950  0.00  0.00     0.038 H 
ATOM     15  H5  <0> d           2.135  -0.024   0.071  0.00  0.00     0.038 H 
BRANCH  13  16
ATOM     16  C1  <0> d           1.370  -1.717   1.161  0.00  0.00    -0.073 C 
ATOM     17  H1  <0> d           0.552  -2.433   1.076  0.00  0.00     0.027 H 
ATOM     18  H2  <0> d           2.321  -2.249   1.149  0.00  0.00     0.027 H 
ATOM     19  H3  <0> d           1.274  -1.166   2.097  0.00  0.00     0.027 H 
ENDBRANCH  13  16
ENDBRANCH   1  13
TORSDOF 5
