REMARK  2 active torsions:
REMARK  status: ('A' for Active; 'I' for Inactive)
REMARK    1  A    between atoms: C4_4  and  C6_9 
REMARK    2  A    between atoms: C6_9  and  O1_10 
ROOT
ATOM      1  C1  <0> d          -0.013   1.086   0.008  0.00  0.00    -0.043 C 
ATOM      2  C2  <0> d          -0.811   1.621   1.218  0.00  0.00    -0.021 C 
ATOM      3  C3  <0> d          -1.522   2.843   0.681  0.00  0.00     0.060 A 
ATOM      4  C4  <0> d          -2.173   3.968   1.056  0.00  0.00     0.106 A 
ATOM      5  N1  <0> d          -2.531   4.590  -0.073  0.00  0.00    -0.132 NA
ATOM      6  N2  <0> d          -2.129   3.896  -1.077  0.00  0.00    -0.066 NA
ATOM      7  N3  <0> d          -1.518   2.832  -0.669  0.00  0.00    -0.254 N 
ATOM      8  C5  <0> d          -0.833   1.634  -1.180  0.00  0.00     0.019 C 
ATOM      9  H1  <0> d           0.002  -0.004   0.002  0.00  0.00     0.036 H 
ATOM     10  H2  <0> d           1.000   1.488   0.001  0.00  0.00     0.036 H 
ATOM     11  H3  <0> d          -1.533   0.879   1.558  0.00  0.00     0.042 H 
ATOM     12  H4  <0> d          -0.136   1.898   2.029  0.00  0.00     0.042 H 
ATOM     13  H5  <0> d          -0.171   1.901  -2.003  0.00  0.00     0.067 H 
ATOM     14  H6  <0> d          -1.563   0.893  -1.507  0.00  0.00     0.067 H 
ENDROOT
BRANCH   4  15
ATOM     15  C6  <0> d          -2.442   4.429   2.465  0.00  0.00     0.060 C 
ATOM     16  H7  <0> d          -3.368   5.004   2.489  0.00  0.00     0.083 H 
ATOM     17  H8  <0> d          -2.536   3.562   3.119  0.00  0.00     0.083 H 
BRANCH  15  18
ATOM     18  O1  <0> d          -1.360   5.248   2.913  0.00  0.00    -0.395 OA
ATOM     19  H9  <0> d          -1.466   5.581   3.815  0.00  0.00     0.209 HD
ENDBRANCH  15  18
ENDBRANCH   4  15
TORSDOF 2
