REMARK  1 active torsions:
REMARK  status: ('A' for Active; 'I' for Inactive)
REMARK    1  A    between atoms: C2_2  and  C5_7 
ROOT
ATOM      1  C1  <0> d          -0.759   1.596  -1.230  0.00  0.00     0.036 C 
ATOM      2  C2  <0> d          -0.013   1.086   0.008  0.00  0.00     0.071 C 
ATOM      3  C3  <0> d          -0.735   1.583   1.265  0.00  0.00     0.036 C 
ATOM      4  O1  <0> d          -2.111   1.187   1.194  0.00  0.00    -0.366 OA
ATOM      5  C4  <0> d          -2.793   1.673   0.035  0.00  0.00     0.103 C 
ATOM      6  O2  <0> d          -2.131   1.199  -1.141  0.00  0.00    -0.366 OA
ATOM      7  H1  <0> d          -0.696   2.683  -1.271  0.00  0.00     0.075 H 
ATOM      8  H2  <0> d          -0.311   1.169  -2.127  0.00  0.00     0.075 H 
ATOM      9  H3  <0> d           0.002  -0.004   0.002  0.00  0.00     0.063 H 
ATOM     10  H4  <0> d          -0.272   1.145   2.149  0.00  0.00     0.075 H 
ATOM     11  H5  <0> d          -0.671   2.670   1.317  0.00  0.00     0.075 H 
ATOM     12  H6  <0> d          -2.788   2.763   0.040  0.00  0.00     0.117 H 
ATOM     13  H7  <0> d          -3.822   1.314   0.041  0.00  0.00     0.117 H 
ENDROOT
BRANCH   2  14
ATOM     14  C5  <0> d           1.400   1.610  -0.003  0.00  0.00     0.181 C 
ATOM     15  O3  <0> d           1.776   2.316  -0.909  0.00  0.00    -0.648 OA
ATOM     16  O4  <0> d           2.241   1.293   0.994  0.00  0.00    -0.648 OA
ENDBRANCH   2  14
TORSDOF 1
