REMARK  2 active torsions:
REMARK  status: ('A' for Active; 'I' for Inactive)
REMARK    1  A    between atoms: C1_1  and  C2_2 
REMARK    2  A    between atoms: C2_2  and  C3_3 
ROOT
ATOM      1  C3  <0> d          -1.202   3.134   0.040  0.00  0.00     0.066 A 
ATOM      2  C4  <0> d          -1.231   1.756   0.171  0.00  0.00    -0.066 A 
ATOM      3  C5  <0> d          -0.028   1.064   0.157  0.00  0.00    -0.067 A 
ATOM      4  C6  <0> d           1.152   1.764   0.001  0.00  0.00    -0.021 A 
ATOM      5  N1  <0> d           1.147   3.077  -0.128  0.00  0.00    -0.344 N 
ATOM      6  C7  <0> d           0.022   3.772  -0.113  0.00  0.00     0.191 A 
ATOM      7  O1  <0> d           0.063   5.121  -0.249  0.00  0.00    -0.171 OA
ATOM      8  H4  <0> d          -2.106   1.282   0.274  0.00  0.00     0.084 H 
ATOM      9  H5  <0> d          -0.010   0.069   0.257  0.00  0.00     0.085 H 
ATOM     10  H6  <0> d           2.025   1.276  -0.015  0.00  0.00     0.111 H 
ATOM     11  H7  <0> d           2.111   3.594  -0.249  0.00  0.00     0.167 HD
ENDROOT
BRANCH   1  12
ATOM     12  C2  <0> d          -2.481   3.930   0.063  0.00  0.00     0.271 C 
ATOM     13  F1  <0> d          -2.544   4.745  -1.073  0.00  0.00    -0.201 F 
ATOM     14  F2  <0> d          -3.574   3.057   0.071  0.00  0.00    -0.201 F 
BRANCH  12  15
ATOM     15  C1  <0> d          -2.516   4.803   1.319  0.00  0.00    -0.012 C 
ATOM     16  H1  <0> d          -2.467   4.163   2.212  0.00  0.00     0.036 H 
ATOM     17  H2  <0> d          -3.450   5.385   1.335  0.00  0.00     0.036 H 
ATOM     18  H3  <0> d          -1.657   5.490   1.312  0.00  0.00     0.036 H 
ENDBRANCH  12  15
ENDBRANCH   1  12
TORSDOF 2
