REMARK  2 active torsions:
REMARK  status: ('A' for Active; 'I' for Inactive)
REMARK    1  A    between atoms: C1_1  and  C2_2 
REMARK    2  A    between atoms: N2_5  and  C5_7 
ROOT
ATOM      1  C5  <0> d           2.467   1.456  -0.013  0.00  0.00     0.094 C 
ATOM      2  C6  <0> d           3.159   2.079  -1.153  0.00  0.00     0.081 C 
ATOM      3  N3  <0> d           3.693   2.560  -2.034  0.00  0.00    -0.195 NA
ATOM      4  H6  <0> d           2.950   1.760   0.915  0.00  0.00     0.089 H 
ATOM      5  H7  <0> d           2.513   0.372  -0.109  0.00  0.00     0.089 H 
ENDROOT
BRANCH   1   6
ATOM      6  N2  <0> d           1.067   1.886   0.002  0.00  0.00    -0.268 N 
ATOM      7  N1  <0> d           0.611   3.211   0.013  0.00  0.00    -0.184 NA
ATOM      8  C3  <0> d          -0.697   3.193   0.025  0.00  0.00     0.029 A 
ATOM      9  C2  <0> d          -1.116   1.859   0.017  0.00  0.00    -0.026 A 
ATOM     10  H4  <0> d          -1.342   4.059   0.035  0.00  0.00     0.118 H 
ATOM     11  C4  <0> d          -0.013   1.076   0.008  0.00  0.00     0.007 A 
ATOM     12  H5  <0> d           0.002  -0.004   0.002  0.00  0.00     0.115 H 
BRANCH   9  13
ATOM     13  C1  <0> d          -2.544   1.378   0.021  0.00  0.00    -0.049 C 
ATOM     14  H1  <0> d          -2.884   1.257   1.049  0.00  0.00     0.033 H 
ATOM     15  H2  <0> d          -3.175   2.108  -0.487  0.00  0.00     0.033 H 
ATOM     16  H3  <0> d          -2.607   0.421  -0.497  0.00  0.00     0.033 H 
ENDBRANCH   9  13
ENDBRANCH   1   6
TORSDOF 2
