REMARK  2 active torsions:
REMARK  status: ('A' for Active; 'I' for Inactive)
REMARK    1  A    between atoms: C2_2  and  C4_6 
REMARK    2  A    between atoms: C4_6  and  O2_7 
ROOT
ATOM      1  C1  <0> d           0.002  -0.004   0.002  0.00  0.00     0.035 A 
ATOM      2  C2  <0> d          -0.016   1.339   0.009  0.00  0.00     0.095 A 
ATOM      3  O1  <0> d           1.266   1.753  -0.001  0.00  0.00    -0.305 OA
ATOM      4  C3  <0> d           2.047   0.664  -0.014  0.00  0.00     0.103 A 
ATOM      5  N1  <0> d           1.289  -0.395  -0.012  0.00  0.00    -0.246 NA
ATOM      6  H1  <0> d          -0.861  -0.653   0.007  0.00  0.00     0.118 H 
ATOM      7  H2  <0> d           3.127   0.665  -0.024  0.00  0.00     0.155 H 
ENDROOT
BRANCH   2   8
ATOM      8  C4  <0> d          -1.240   2.218   0.020  0.00  0.00     0.062 C 
ATOM      9  H3  <0> d          -1.019   3.155  -0.490  0.00  0.00     0.084 H 
ATOM     10  H4  <0> d          -2.057   1.709  -0.492  0.00  0.00     0.084 H 
BRANCH   8  11
ATOM     11  O2  <0> d          -1.621   2.488   1.371  0.00  0.00    -0.394 OA
ATOM     12  H5  <0> d          -2.404   3.050   1.454  0.00  0.00     0.209 HD
ENDBRANCH   8  11
ENDBRANCH   2   8
TORSDOF 2
