REMARK  1 active torsions:
REMARK  status: ('A' for Active; 'I' for Inactive)
REMARK    1  A    between atoms: C3_3  and  N5_12 
ROOT
ATOM      1  C1  <0> d          -0.276   4.067   0.017  0.00  0.00     0.039 A 
ATOM      2  C2  <0> d          -1.254   3.048   0.024  0.00  0.00     0.074 A 
ATOM      3  C3  <0> d          -1.216   1.640   0.033  0.00  0.00     0.141 A 
ATOM      4  N1  <0> d          -2.366   0.976   0.049  0.00  0.00    -0.188 NA
ATOM      5  C4  <0> d          -3.528   1.616   0.058  0.00  0.00     0.281 A 
ATOM      6  N2  <0> d          -3.612   2.933   0.038  0.00  0.00    -0.303 N 
ATOM      7  C5  <0> d          -2.511   3.684   0.022  0.00  0.00     0.140 A 
ATOM      8  N3  <0> d          -2.268   5.025   0.022  0.00  0.00    -0.262 N 
ATOM      9  H1  <0> d          -3.108   5.736   0.025  0.00  0.00     0.191 HD
ATOM     10  N4  <0> d          -0.881   5.220   0.020  0.00  0.00    -0.184 NA
ATOM     11  O1  <0> d          -4.671   0.890   0.074  0.00  0.00    -0.149 OA
ATOM     12  H2  <0> d           0.793   3.915   0.015  0.00  0.00     0.119 H 
ATOM     13  H3  <0> d          -4.597   3.422   0.037  0.00  0.00     0.171 HD
ENDROOT
BRANCH   3  14
ATOM     14  N5  <0> d          -0.011   0.966   0.024  0.00  0.00    -0.383 N 
ATOM     15  H5  <0> d           0.004  -0.134   0.031  0.00  0.00     0.157 HD
ATOM     16  H4  <0> d           0.934   1.528   0.011  0.00  0.00     0.157 HD
ENDBRANCH   3  14
TORSDOF 1
