REMARK  1 active torsions:
REMARK  status: ('A' for Active; 'I' for Inactive)
REMARK    1  A    between atoms: C1_1  and  C2_2 
ROOT
ATOM      1  C2  <0> d           0.002  -0.004   0.002  0.00  0.00     0.032 A 
ATOM      2  C3  <0> d           0.006  -0.680  -1.208  0.00  0.00    -0.057 A 
ATOM      3  C4  <0> d           0.025  -2.065  -1.213  0.00  0.00    -0.041 A 
ATOM      4  C5  <0> d           0.040  -2.732   0.004  0.00  0.00     0.155 A 
ATOM      5  C6  <0> d           0.035  -1.986   1.185  0.00  0.00     0.175 A 
ATOM      6  N1  <0> d           0.022  -0.658   1.143  0.00  0.00    -0.240 NA
ATOM      7  C7  <0> d           0.051  -2.657   2.450  0.00  0.00     0.123 C 
ATOM      8  N2  <0> d           0.063  -3.189   3.454  0.00  0.00    -0.190 NA
ATOM      9  F1  <0> d           0.059  -4.082   0.047  0.00  0.00    -0.203 F 
ATOM     10  H4  <0> d          -0.007  -0.132  -2.138  0.00  0.00     0.086 H 
ATOM     11  H5  <0> d           0.028  -2.614  -2.143  0.00  0.00     0.088 H 
ENDROOT
BRANCH   1  12
ATOM     12  C1  <0> d          -0.018   1.503   0.010  0.00  0.00    -0.035 C 
ATOM     13  H1  <0> d           1.004   1.880   0.003  0.00  0.00     0.035 H 
ATOM     14  H2  <0> d          -0.545   1.864  -0.873  0.00  0.00     0.035 H 
ATOM     15  H3  <0> d          -0.529   1.854   0.907  0.00  0.00     0.035 H 
ENDBRANCH   1  12
TORSDOF 1
