REMARK  5 active torsions:
REMARK  status: ('A' for Active; 'I' for Inactive)
REMARK    1  A    between atoms: C1_1  and  C2_2 
REMARK    2  A    between atoms: C2_2  and  C3_3 
REMARK    3  A    between atoms: C2_2  and  C4_4 
REMARK    4  A    between atoms: C5_5  and  C6_6 
REMARK    5  A    between atoms: C6_6  and  C7_7 
ROOT
ATOM      1  C2  <0> d           1.317  -0.740  -0.015  0.00  0.00    -0.045 C 
ATOM      2  H4  <0> d           2.136  -0.020  -0.018  0.00  0.00     0.044 H 
ENDROOT
BRANCH   1   3
ATOM      3  C1  <0> d           1.422  -1.625   1.229  0.00  0.00    -0.070 C 
ATOM      4  H1  <0> d           1.364  -1.004   2.123  0.00  0.00     0.028 H 
ATOM      5  H2  <0> d           0.603  -2.344   1.233  0.00  0.00     0.028 H 
ATOM      6  H3  <0> d           2.373  -2.157   1.217  0.00  0.00     0.028 H 
ENDBRANCH   1   3
BRANCH   1   7
ATOM      7  C3  <0> d           1.398  -1.611  -1.269  0.00  0.00    -0.070 C 
ATOM      8  H5  <0> d           1.323  -0.981  -2.155  0.00  0.00     0.028 H 
ATOM      9  H6  <0> d           2.349  -2.143  -1.281  0.00  0.00     0.028 H 
ATOM     10  H7  <0> d           0.580  -2.331  -1.265  0.00  0.00     0.028 H 
ENDBRANCH   1   7
BRANCH   1  11
ATOM     11  C4  <0> d           0.002  -0.004   0.002  0.00  0.00    -0.103 C 
ATOM     12  C5  <0> d          -0.016   1.306   0.009  0.00  0.00    -0.097 C 
ATOM     13  H9  <0> d           0.912   1.859   0.003  0.00  0.00     0.077 H 
ATOM     14  H8  <0> d          -0.926  -0.557   0.008  0.00  0.00     0.076 H 
BRANCH  12  15
ATOM     15  C6  <0> d          -1.331   2.042   0.019  0.00  0.00     0.030 C 
ATOM     16  H10 <0> d          -1.440   2.603  -0.908  0.00  0.00     0.055 H 
ATOM     17  H11 <0> d          -2.147   1.325   0.109  0.00  0.00     0.055 H 
BRANCH  15  18
ATOM     18  C7  <0> d          -1.366   2.992   1.189  0.00  0.00     0.176 C 
ATOM     19  O1  <0> d          -0.420   3.064   1.937  0.00  0.00    -0.648 OA
ATOM     20  O2  <0> d          -2.448   3.757   1.399  0.00  0.00    -0.648 OA
ENDBRANCH  15  18
ENDBRANCH  12  15
ENDBRANCH   1  11
TORSDOF 5
