REMARK  1 active torsions:
REMARK  status: ('A' for Active; 'I' for Inactive)
REMARK    1  A    between atoms: C4_4  and  C5_7 
ROOT
ATOM      1  C1  <0> d          -0.013   1.086   0.008  0.00  0.00     0.036 C 
ATOM      2  C2  <0> d          -0.779   1.604  -1.188  0.00  0.00    -0.081 C 
ATOM      3  C3  <0> d          -1.559   2.581  -0.787  0.00  0.00    -0.067 C 
ATOM      4  C4  <0> d          -1.359   2.772   0.699  0.00  0.00     0.138 C 
ATOM      5  H1  <0> d          -0.717   3.633   0.884  0.00  0.00     0.107 H 
ATOM      6  O1  <0> d          -0.721   1.567   1.166  0.00  0.00    -0.368 OA
ATOM      7  H2  <0> d           0.002  -0.004   0.002  0.00  0.00     0.080 H 
ATOM      8  H3  <0> d           1.005   1.476   0.000  0.00  0.00     0.080 H 
ATOM      9  H4  <0> d          -0.699   1.233  -2.199  0.00  0.00     0.079 H 
ATOM     10  H5  <0> d          -2.229   3.151  -1.413  0.00  0.00     0.081 H 
ENDROOT
BRANCH   4  11
ATOM     11  C5  <0> d          -2.689   2.958   1.383  0.00  0.00     0.207 C 
ATOM     12  O2  <0> d          -3.081   2.135   2.176  0.00  0.00    -0.646 OA
ATOM     13  O3  <0> d          -3.438   4.038   1.111  0.00  0.00    -0.646 OA
ENDBRANCH   4  11
TORSDOF 1
