REMARK  4 active torsions:
REMARK  status: ('A' for Active; 'I' for Inactive)
REMARK    1  A    between atoms: C1_1  and  C2_2 
REMARK    2  A    between atoms: C2_2  and  O1_3 
REMARK    3  A    between atoms: O1_3  and  C3_4 
REMARK    4  A    between atoms: C3_4  and  C4_6 
ROOT
ATOM      1  C4  <0> d           0.002  -0.004   0.002  0.00  0.00     0.132 C 
ATOM      2  H1  <0> d          -0.069  -0.376  -1.020  0.00  0.00     0.100 H 
ATOM      3  C5  <0> d          -0.019   1.541   0.011  0.00  0.00    -0.023 C 
ATOM      4  C6  <0> d           1.492   1.873  -0.002  0.00  0.00     0.019 C 
ATOM      5  C7  <0> d           2.141   0.643   0.594  0.00  0.00     0.259 C 
ATOM      6  O3  <0> d           3.272   0.593   1.016  0.00  0.00    -0.265 OA
ATOM      7  O4  <0> d           1.279  -0.381   0.587  0.00  0.00    -0.306 OA
ATOM      8  H7  <0> d          -0.512   1.929  -0.881  0.00  0.00     0.038 H 
ATOM      9  H8  <0> d          -0.495   1.920   0.915  0.00  0.00     0.038 H 
ATOM     10  H9  <0> d           1.840   2.032  -1.023  0.00  0.00     0.048 H 
ATOM     11  H10 <0> d           1.696   2.749   0.613  0.00  0.00     0.048 H 
ENDROOT
BRANCH   1  12
ATOM     12  C3  <0> d          -1.132  -0.545   0.834  0.00  0.00     0.288 C 
ATOM     13  O2  <0> d          -0.897  -1.171   1.841  0.00  0.00    -0.262 OA
BRANCH  12  14
ATOM     14  O1  <0> d          -2.402  -0.331   0.458  0.00  0.00    -0.320 OA
BRANCH  14  15
ATOM     15  C2  <0> d          -3.443  -0.881   1.307  0.00  0.00     0.026 C 
ATOM     16  H5  <0> d          -3.333  -1.964   1.363  0.00  0.00     0.074 H 
ATOM     17  H6  <0> d          -3.359  -0.456   2.307  0.00  0.00     0.074 H 
BRANCH  15  18
ATOM     18  C1  <0> d          -4.814  -0.538   0.721  0.00  0.00    -0.056 C 
ATOM     19  H2  <0> d          -4.925   0.545   0.666  0.00  0.00     0.030 H 
ATOM     20  H3  <0> d          -4.899  -0.964  -0.279  0.00  0.00     0.030 H 
ATOM     21  H4  <0> d          -5.596  -0.951   1.359  0.00  0.00     0.030 H 
ENDBRANCH  15  18
ENDBRANCH  14  15
ENDBRANCH  12  14
ENDBRANCH   1  12
TORSDOF 4
