REMARK  3 active torsions:
REMARK  status: ('A' for Active; 'I' for Inactive)
REMARK    1  A    between atoms: C1_1  and  C2_2 
REMARK    2  A    between atoms: C3_3  and  N3_8 
REMARK    3  A    between atoms: N2_6  and  C5_7 
ROOT
ATOM      1  C2  <0> d           0.002  -0.004   0.002  0.00  0.00     0.054 A 
ATOM      2  C3  <0> d          -0.016   1.353   0.009  0.00  0.00     0.069 A 
ATOM      3  C4  <0> d           1.312   1.801  -0.001  0.00  0.00     0.049 A 
ATOM      4  N1  <0> d           2.100   0.756  -0.014  0.00  0.00    -0.183 NA
ATOM      5  N2  <0> d           1.304  -0.396  -0.013  0.00  0.00    -0.277 N 
ATOM      6  H4  <0> d           1.631   2.833   0.001  0.00  0.00     0.121 H 
ENDROOT
BRANCH   1   7
ATOM      7  C1  <0> d          -1.201  -0.911   0.009  0.00  0.00    -0.034 C 
ATOM      8  H1  <0> d          -1.502  -1.124  -1.017  0.00  0.00     0.035 H 
ATOM      9  H2  <0> d          -0.951  -1.843   0.515  0.00  0.00     0.035 H 
ATOM     10  H3  <0> d          -2.022  -0.422   0.533  0.00  0.00     0.035 H 
ENDBRANCH   1   7
BRANCH   5  11
ATOM     11  C5  <0> d           1.788  -1.779  -0.025  0.00  0.00     0.003 C 
ATOM     12  H5  <0> d           1.898  -2.116  -1.056  0.00  0.00     0.059 H 
ATOM     13  H6  <0> d           2.753  -1.831   0.479  0.00  0.00     0.059 H 
ATOM     14  H7  <0> d           1.073  -2.419   0.491  0.00  0.00     0.059 H 
ENDBRANCH   5  11
BRANCH   2  15
ATOM     15  N3  <0> d          -1.166   2.166   0.020  0.00  0.00    -0.396 N 
ATOM     16  H8  <0> d          -2.047   1.761   0.022  0.00  0.00     0.156 HD
ATOM     17  H9  <0> d          -1.076   3.132   0.024  0.00  0.00     0.156 HD
ENDBRANCH   2  15
TORSDOF 3
