REMARK  2 active torsions:
REMARK  status: ('A' for Active; 'I' for Inactive)
REMARK    1  A    between atoms: C1_1  and  N1_2 
REMARK    2  A    between atoms: C3_5  and  N4_7 
ROOT
ATOM      1  N1  <0> d          -1.111   1.849   0.017  0.00  0.00    -0.252 N 
ATOM      2  C2  <0> d          -0.013   1.076   0.008  0.00  0.00     0.101 A 
ATOM      3  N2  <0> d           1.037   1.857   0.002  0.00  0.00    -0.055 NA
ATOM      4  C3  <0> d           0.649   3.136   0.013  0.00  0.00     0.738 A 
ATOM      5  N3  <0> d          -0.663   3.179   0.025  0.00  0.00     0.021 NA
ATOM      6  H4  <0> d           0.002  -0.004   0.002  0.00  0.00     0.147 H 
ENDROOT
BRANCH   1   7
ATOM      7  C1  <0> d          -2.504   1.393   0.019  0.00  0.00     0.004 C 
ATOM      8  H1  <0> d          -2.845   1.274   1.048  0.00  0.00     0.059 H 
ATOM      9  H2  <0> d          -3.128   2.129  -0.488  0.00  0.00     0.059 H 
ATOM     10  H3  <0> d          -2.574   0.437  -0.500  0.00  0.00     0.059 H 
ENDBRANCH   1   7
BRANCH   4  11
ATOM     11  N4  <0> d           1.498   4.244   0.011  0.00  0.00    -0.230 N 
ATOM     12  H5  <0> d           2.460   4.118   0.002  0.00  0.00     0.174 HD
ATOM     13  H6  <0> d           1.127   5.140   0.020  0.00  0.00     0.174 HD
ENDBRANCH   4  11
TORSDOF 2
