REMARK  1 active torsions:
REMARK  status: ('A' for Active; 'I' for Inactive)
REMARK    1  A    between atoms: C3_6  and  C4_7 
ROOT
ATOM      1  C1  <0> d           2.066   0.708  -0.014  0.00  0.00    -0.036 A 
ATOM      2  C2  <0> d           1.292  -0.402  -0.012  0.00  0.00    -0.002 A 
ATOM      3  N1  <0> d           0.002  -0.004   0.002  0.00  0.00    -0.289 N 
ATOM      4  H1  <0> d          -0.804  -0.752   0.006  0.00  0.00     0.188 HD
ATOM      5  N2  <0> d          -0.017   1.397   0.010  0.00  0.00    -0.174 NA
ATOM      6  C3  <0> d           1.220   1.822   0.000  0.00  0.00     0.119 A 
ATOM      7  H2  <0> d           3.145   0.730  -0.024  0.00  0.00     0.089 H 
ATOM      8  H3  <0> d           1.643  -1.423  -0.021  0.00  0.00     0.113 H 
ENDROOT
BRANCH   6   9
ATOM      9  C4  <0> d           1.659   3.264   0.004  0.00  0.00     0.251 C 
ATOM     10  F1  <0> d           2.437   3.512   1.140  0.00  0.00    -0.207 F 
ATOM     11  F2  <0> d           2.414   3.525  -1.145  0.00  0.00    -0.207 F 
ATOM     12  H4  <0> d           0.822   3.978   0.016  0.00  0.00     0.155 H 
ENDBRANCH   6   9
TORSDOF 1
