REMARK  3 active torsions:
REMARK  status: ('A' for Active; 'I' for Inactive)
REMARK    1  A    between atoms: C1_1  and  O1_2 
REMARK    2  A    between atoms: O1_2  and  C2_3 
REMARK    3  A    between atoms: C2_3  and  C3_5 
ROOT
ATOM      1  C3  <0> d           0.679  -2.115   1.088  0.00  0.00     0.122 C 
ATOM      2  H1  <0> d           1.119  -2.498   0.168  0.00  0.00     0.099 H 
ATOM      3  C4  <0> d          -0.736  -2.677   1.249  0.00  0.00    -0.032 C 
ATOM      4  C5  <0> d          -0.661  -4.202   1.369  0.00  0.00    -0.060 C 
ATOM      5  C6  <0> d           0.246  -4.566   2.549  0.00  0.00    -0.045 C 
ATOM      6  C7  <0> d           1.623  -3.932   2.338  0.00  0.00     0.021 C 
ATOM      7  O3  <0> d           1.479  -2.516   2.203  0.00  0.00    -0.376 OA
ATOM      8  H5  <0> d          -1.193  -2.263   2.148  0.00  0.00     0.037 H 
ATOM      9  H6  <0> d          -1.336  -2.410   0.379  0.00  0.00     0.037 H 
ATOM     10  H7  <0> d          -1.660  -4.604   1.540  0.00  0.00     0.033 H 
ATOM     11  H8  <0> d          -0.250  -4.621   0.450  0.00  0.00     0.033 H 
ATOM     12  H9  <0> d          -0.190  -4.191   3.474  0.00  0.00     0.036 H 
ATOM     13  H10 <0> d           0.350  -5.650   2.607  0.00  0.00     0.036 H 
ATOM     14  H11 <0> d           2.260  -4.152   3.194  0.00  0.00     0.074 H 
ATOM     15  H12 <0> d           2.077  -4.338   1.433  0.00  0.00     0.074 H 
ENDROOT
BRANCH   1  16
ATOM     16  C2  <0> d           0.618  -0.611   1.029  0.00  0.00     0.287 C 
ATOM     17  O2  <0> d           1.124   0.049   1.905  0.00  0.00    -0.262 OA
BRANCH  16  18
ATOM     18  O1  <0> d           0.002  -0.004   0.002  0.00  0.00    -0.324 OA
BRANCH  18  19
ATOM     19  C1  <0> d          -0.017   1.425   0.010  0.00  0.00     0.013 C 
ATOM     20  H2  <0> d           1.005   1.802   0.002  0.00  0.00     0.067 H 
ATOM     21  H3  <0> d          -0.544   1.786  -0.873  0.00  0.00     0.067 H 
ATOM     22  H4  <0> d          -0.527   1.776   0.907  0.00  0.00     0.067 H 
ENDBRANCH  18  19
ENDBRANCH  16  18
ENDBRANCH   1  16
TORSDOF 3
