REMARK  4 active torsions:
REMARK  status: ('A' for Active; 'I' for Inactive)
REMARK    1  A    between atoms: C2_2  and  C3_3 
REMARK    2  A    between atoms: C3_3  and  C4_4 
REMARK    3  A    between atoms: C3_3  and  C7_7 
REMARK    4  A    between atoms: C3_3  and  O1_10 
ROOT
ATOM      1  C3  <0> d           0.002  -0.004   0.002  0.00  0.00     0.082 C 
ENDROOT
BRANCH   1   2
ATOM      2  C2  <0> d           0.731  -0.503   1.223  0.00  0.00    -0.079 C 
ATOM      3  C1  <0> d           1.225   0.350   2.085  0.00  0.00    -0.122 C 
ATOM      4  H1  <0> d           1.111   1.411   1.921  0.00  0.00     0.066 H 
ATOM      5  H2  <0> d           1.748  -0.008   2.960  0.00  0.00     0.066 H 
ATOM      6  H3  <0> d           0.846  -1.565   1.387  0.00  0.00     0.080 H 
ENDBRANCH   1   2
BRANCH   1   7
ATOM      7  C4  <0> d          -1.433  -0.534   0.013  0.00  0.00    -0.020 A 
ATOM      8  C6  <0> d          -2.320  -0.146   1.198  0.00  0.00    -0.058 A 
ATOM      9  C5  <0> d          -2.562   0.481  -0.177  0.00  0.00    -0.058 A 
ATOM     10  H7  <0> d          -3.042  -0.884   1.548  0.00  0.00     0.033 H 
ATOM     11  H8  <0> d          -1.881   0.486   1.970  0.00  0.00     0.033 H 
ATOM     12  H5  <0> d          -2.282   1.526  -0.310  0.00  0.00     0.033 H 
ATOM     13  H6  <0> d          -3.443   0.156  -0.731  0.00  0.00     0.033 H 
ATOM     14  H4  <0> d          -1.571  -1.526  -0.416  0.00  0.00     0.045 H 
ENDBRANCH   1   7
BRANCH   1  15
ATOM     15  C7  <0> d           0.718  -0.497  -1.257  0.00  0.00    -0.020 A 
ATOM     16  C9  <0> d           2.207  -0.173  -1.396  0.00  0.00    -0.058 A 
ATOM     17  C8  <0> d           1.761  -1.605  -1.088  0.00  0.00    -0.058 A 
ATOM     18  H12 <0> d           2.586   0.032  -2.397  0.00  0.00     0.033 H 
ATOM     19  H13 <0> d           2.676   0.392  -0.590  0.00  0.00     0.033 H 
ATOM     20  H10 <0> d           1.936  -1.982  -0.081  0.00  0.00     0.033 H 
ATOM     21  H11 <0> d           1.847  -2.341  -1.887  0.00  0.00     0.033 H 
ATOM     22  H9  <0> d           0.118  -0.506  -2.167  0.00  0.00     0.045 H 
ENDBRANCH   1  15
BRANCH   1  23
ATOM     23  O1  <0> d          -0.017   1.425   0.010  0.00  0.00    -0.385 OA
ATOM     24  H14 <0> d           0.861   1.830   0.004  0.00  0.00     0.211 HD
ENDBRANCH   1  23
TORSDOF 4
