REMARK  2 active torsions:
REMARK  status: ('A' for Active; 'I' for Inactive)
REMARK    1  A    between atoms: C1_1  and  C2_2 
REMARK    2  A    between atoms: C2_2  and  C3_3 
ROOT
ATOM      1  C3  <0> d          -1.379  -0.514   0.013  0.00  0.00    -0.091 C 
ATOM      2  C4  <0> d          -2.480  -0.920   0.021  0.00  0.00     0.013 C 
ATOM      3  C5  <0> d          -3.772  -1.397   0.031  0.00  0.00     0.152 C 
ATOM      4  N1  <0> d          -4.838  -1.790   0.039  0.00  0.00    -0.182 NA
ENDROOT
BRANCH   1   5
ATOM      5  C2  <0> d           0.002  -0.004   0.002  0.00  0.00    -0.011 C 
ATOM      6  H4  <0> d           0.512  -0.356  -0.895  0.00  0.00     0.051 H 
ATOM      7  H5  <0> d           0.529  -0.365   0.885  0.00  0.00     0.051 H 
BRANCH   5   8
ATOM      8  C1  <0> d          -0.019   1.526   0.010  0.00  0.00    -0.066 C 
ATOM      9  H1  <0> d           1.004   1.903   0.003  0.00  0.00     0.028 H 
ATOM     10  H2  <0> d          -0.546   1.887  -0.873  0.00  0.00     0.028 H 
ATOM     11  H3  <0> d          -0.529   1.877   0.907  0.00  0.00     0.028 H 
ENDBRANCH   5   8
ENDBRANCH   1   5
TORSDOF 2
