REMARK  8 active torsions:
REMARK  status: ('A' for Active; 'I' for Inactive)
REMARK    1  A    between atoms: C1_1  and  C2_2 
REMARK    2  A    between atoms: C2_2  and  C3_4 
REMARK    3  A    between atoms: C2_2  and  O4_12 
REMARK    4  A    between atoms: C3_4  and  C4_6 
REMARK    5  A    between atoms: C3_4  and  O3_11 
REMARK    6  A    between atoms: C4_6  and  C5_8 
REMARK    7  A    between atoms: C4_6  and  O2_10 
REMARK    8  A    between atoms: C5_8  and  O1_9 
ROOT
ATOM      1  C3  <0> d           1.286   1.562  -0.002  0.00  0.00     0.086 C 
ATOM      2  H2  <0> d           1.186   2.647   0.005  0.00  0.00     0.090 H 
ENDROOT
BRANCH   1   3
ATOM      3  C2  <0> d           2.040   1.127  -1.261  0.00  0.00     0.059 C 
ATOM      4  H1  <0> d           2.140   0.042  -1.268  0.00  0.00     0.086 H 
BRANCH   3   5
ATOM      5  C1  <0> d           1.262   1.575  -2.500  0.00  0.00    -0.050 C 
ATOM      6  H4  <0> d           1.162   2.660  -2.493  0.00  0.00     0.031 H 
ATOM      7  H5  <0> d           1.799   1.266  -3.397  0.00  0.00     0.031 H 
ATOM      8  H6  <0> d           0.273   1.118  -2.493  0.00  0.00     0.031 H 
ENDBRANCH   3   5
BRANCH   3   9
ATOM      9  O4  <0> d           3.337   1.726  -1.270  0.00  0.00    -0.393 OA
ATOM     10  H12 <0> d           3.872   1.494  -2.041  0.00  0.00     0.210 HD
ENDBRANCH   3   9
ENDBRANCH   1   3
BRANCH   1  11
ATOM     11  C4  <0> d           2.064   1.114   1.238  0.00  0.00     0.083 C 
ATOM     12  H3  <0> d           3.018   1.639   1.277  0.00  0.00     0.090 H 
BRANCH  11  13
ATOM     13  C5  <0> d           1.251   1.437   2.493  0.00  0.00     0.043 C 
ATOM     14  H7  <0> d           0.997   2.497   2.499  0.00  0.00     0.078 H 
ATOM     15  H8  <0> d           0.337   0.845   2.497  0.00  0.00     0.078 H 
BRANCH  13  16
ATOM     16  O1  <0> d           2.025   1.126   3.654  0.00  0.00    -0.398 OA
ATOM     17  H9  <0> d           1.571   1.307   4.489  0.00  0.00     0.209 HD
ENDBRANCH  13  16
ENDBRANCH  11  13
BRANCH  11  18
ATOM     18  O2  <0> d           2.297  -0.294   1.171  0.00  0.00    -0.391 OA
ATOM     19  H10 <0> d           1.490  -0.825   1.133  0.00  0.00     0.210 HD
ENDBRANCH  11  18
ENDBRANCH   1  11
BRANCH   1  20
ATOM     20  O3  <0> d          -0.011   0.963   0.007  0.00  0.00    -0.390 OA
ATOM     21  H11 <0> d           0.002  -0.004   0.002  0.00  0.00     0.210 HD
ENDBRANCH   1  20
TORSDOF 8
