REMARK  3 active torsions:
REMARK  status: ('A' for Active; 'I' for Inactive)
REMARK    1  A    between atoms: C1_1  and  C2_2 
REMARK    2  A    between atoms: C4_5  and  C6_10 
REMARK    3  A    between atoms: C6_10  and  C7_12 
ROOT
ATOM      1  C2  <0> d           1.475   2.460  -1.312  0.00  0.00     0.045 C 
ATOM      2  H1  <0> d           1.976   3.414  -1.146  0.00  0.00     0.083 H 
ATOM      3  C3  <0> d           1.428   1.644  -0.003  0.00  0.00    -0.022 C 
ATOM      4  C4  <0> d          -0.013   1.086   0.008  0.00  0.00     0.090 C 
ATOM      5  H2  <0> d           0.017   0.086   0.031  0.00  0.00     0.067 H 
ATOM      6  C5  <0> d          -0.637   1.613  -1.268  0.00  0.00     0.270 C 
ATOM      7  O1  <0> d          -1.607   1.156  -1.824  0.00  0.00    -0.264 OA
ATOM      8  O2  <0> d           0.078   2.678  -1.675  0.00  0.00    -0.316 OA
ATOM      9  H6  <0> d           1.597   2.289   0.860  0.00  0.00     0.038 H 
ATOM     10  H7  <0> d           2.155   0.833  -0.028  0.00  0.00     0.038 H 
ENDROOT
BRANCH   4  11
ATOM     11  C6  <0> d          -0.764   1.593   1.212  0.00  0.00     0.136 C 
ATOM     12  O3  <0> d          -0.474   2.660   1.699  0.00  0.00    -0.297 OA
BRANCH  11  13
ATOM     13  C7  <0> d          -1.877   0.770   1.808  0.00  0.00    -0.020 C 
ATOM     14  H8  <0> d          -1.982  -0.076   1.286  0.00  0.00     0.037 H 
ATOM     15  H9  <0> d          -1.636   0.530   2.844  0.00  0.00     0.037 H 
ATOM     16  H10 <0> d          -2.807   1.337   1.773  0.00  0.00     0.037 H 
ENDBRANCH  11  13
ENDBRANCH   4  11
BRANCH   1  17
ATOM     17  C1  <0> d           2.193   1.668  -2.406  0.00  0.00    -0.052 C 
ATOM     18  H3  <0> d           1.661   0.735  -2.588  0.00  0.00     0.030 H 
ATOM     19  H4  <0> d           2.219   2.256  -3.324  0.00  0.00     0.030 H 
ATOM     20  H5  <0> d           3.212   1.448  -2.087  0.00  0.00     0.030 H 
ENDBRANCH   1  17
TORSDOF 3
