REMARK  3 active torsions:
REMARK  status: ('A' for Active; 'I' for Inactive)
REMARK    1  A    between atoms: C1_1  and  C2_2 
REMARK    2  A    between atoms: C1_1  and  O1_8 
REMARK    3  A    between atoms: C3_3  and  C4_4 
ROOT
ATOM      1  C2  <0> d          -0.718   1.572   1.248  0.00  0.00    -0.076 C 
ATOM      2  C3  <0> d          -0.935   0.749   2.244  0.00  0.00    -0.003 C 
ATOM      3  H3  <0> d          -1.045   2.599   1.316  0.00  0.00     0.080 H 
ATOM      4  H4  <0> d          -0.608  -0.279   2.176  0.00  0.00     0.090 H 
ENDROOT
BRANCH   1   5
ATOM      5  C1  <0> d          -0.013   1.086   0.008  0.00  0.00     0.032 C 
ATOM      6  H1  <0> d           0.002  -0.004   0.002  0.00  0.00     0.080 H 
ATOM      7  H2  <0> d           1.010   1.463   0.000  0.00  0.00     0.080 H 
BRANCH   5   8
ATOM      8  O1  <0> d          -0.704   1.559  -1.150  0.00  0.00    -0.397 OA
ATOM      9  H5  <0> d          -0.304   1.284  -1.986  0.00  0.00     0.209 HD
ENDBRANCH   5   8
ENDBRANCH   1   5
BRANCH   2  10
ATOM     10  C4  <0> d          -1.640   1.234   3.483  0.00  0.00     0.407 C 
ATOM     11  F1  <0> d          -1.963   2.588   3.336  0.00  0.00    -0.167 F 
ATOM     12  F2  <0> d          -2.811   0.494   3.674  0.00  0.00    -0.167 F 
ATOM     13  F3  <0> d          -0.800   1.073   4.591  0.00  0.00    -0.167 F 
ENDBRANCH   2  10
TORSDOF 3
