REMARK  4 active torsions:
REMARK  status: ('A' for Active; 'I' for Inactive)
REMARK    1  A    between atoms: C1_1  and  O1_2 
REMARK    2  A    between atoms: O1_2  and  C2_3 
REMARK    3  A    between atoms: C3_4  and  N4_10 
REMARK    4  A    between atoms: C4_5  and  N3_9 
ROOT
ATOM      1  C2  <0> d           1.115   2.013   0.002  0.00  0.00     0.196 A 
ATOM      2  C3  <0> d           2.331   1.332  -0.013  0.00  0.00     0.125 A 
ATOM      3  C4  <0> d           2.305  -0.065  -0.020  0.00  0.00     0.153 A 
ATOM      4  N1  <0> d           1.129  -0.687  -0.012  0.00  0.00    -0.222 NA
ATOM      5  C5  <0> d           0.002  -0.004   0.002  0.00  0.00     0.091 A 
ATOM      6  N2  <0> d          -0.016   1.314   0.009  0.00  0.00    -0.216 NA
ATOM      7  H4  <0> d          -0.935  -0.540   0.009  0.00  0.00     0.146 H 
ENDROOT
BRANCH   1   8
ATOM      8  O1  <0> d           1.085   3.369   0.009  0.00  0.00    -0.338 OA
BRANCH   8   9
ATOM      9  C1  <0> d          -0.202   3.990   0.025  0.00  0.00     0.012 C 
ATOM     10  H1  <0> d          -0.744   3.681   0.918  0.00  0.00     0.067 H 
ATOM     11  H2  <0> d          -0.082   5.074   0.029  0.00  0.00     0.067 H 
ATOM     12  H3  <0> d          -0.760   3.690  -0.862  0.00  0.00     0.067 H 
ENDBRANCH   8   9
ENDBRANCH   1   8
BRANCH   2  13
ATOM     13  N4  <0> d           3.549   2.030  -0.021  0.00  0.00    -0.393 N 
ATOM     14  H7  <0> d           4.387   1.543  -0.032  0.00  0.00     0.156 HD
ATOM     15  H8  <0> d           3.551   3.000  -0.016  0.00  0.00     0.156 HD
ENDBRANCH   2  13
BRANCH   3  16
ATOM     16  N3  <0> d           3.488  -0.793  -0.035  0.00  0.00    -0.382 N 
ATOM     17  H5  <0> d           3.461  -1.763  -0.040  0.00  0.00     0.157 HD
ATOM     18  H6  <0> d           4.341  -0.332  -0.041  0.00  0.00     0.157 HD
ENDBRANCH   3  16
TORSDOF 4
