REMARK  2 active torsions:
REMARK  status: ('A' for Active; 'I' for Inactive)
REMARK    1  A    between atoms: C1_1  and  N1_2 
REMARK    2  A    between atoms: C1_1  and  O2_6 
REMARK       I    between atoms: N1_2  and  C2_3 
REMARK       I    between atoms: C2_3  and  N2_5 
ROOT
ATOM      1  N1  <0> d           0.002  -0.004   0.002  0.00  0.00    -0.322 N 
ATOM      2  C2  <0> d          -0.016   1.344   0.009  0.00  0.00     0.315 C 
ATOM      3  O1  <0> d           1.028   1.966   0.003  0.00  0.00    -0.248 OA
ATOM      4  N2  <0> d          -1.192   2.002   0.019  0.00  0.00    -0.352 N 
ATOM      5  H3  <0> d          -0.831  -0.500   0.007  0.00  0.00     0.166 HD
ATOM      6  H4  <0> d          -2.026   1.505   0.020  0.00  0.00     0.160 HD
ATOM      7  H5  <0> d          -1.206   2.971   0.024  0.00  0.00     0.160 HD
ENDROOT
BRANCH   1   8
ATOM      8  C1  <0> d           1.281  -0.719  -0.014  0.00  0.00     0.078 C 
ATOM      9  H1  <0> d           1.181  -1.628  -0.607  0.00  0.00     0.106 H 
ATOM     10  H2  <0> d           2.048  -0.081  -0.452  0.00  0.00     0.106 H 
BRANCH   8  11
ATOM     11  O2  <0> d           1.652  -1.061   1.323  0.00  0.00    -0.382 OA
ATOM     12  H6  <0> d           2.490  -1.538   1.388  0.00  0.00     0.211 HD
ENDBRANCH   8  11
ENDBRANCH   1   8
TORSDOF 2
