REMARK  0 active torsions:
REMARK  status: ('A' for Active; 'I' for Inactive)
ROOT
ATOM      1  C1  <0> d          -0.017   1.380   0.010  0.00  0.00    -0.044 A 
ATOM      2  C2  <0> d           1.171   2.087   0.002  0.00  0.00    -0.059 A 
ATOM      3  C3  <0> d           2.378   1.412  -0.013  0.00  0.00     0.034 A 
ATOM      4  C4  <0> d           2.397   0.029  -0.021  0.00  0.00    -0.059 A 
ATOM      5  C5  <0> d           1.211  -0.679  -0.013  0.00  0.00    -0.044 A 
ATOM      6  C6  <0> d           0.002  -0.004   0.002  0.00  0.00     0.116 A 
ATOM      7  F1  <0> d          -1.158  -0.696   0.010  0.00  0.00    -0.206 F 
ATOM      8 Cl1  <0> d           3.869   2.301  -0.023  0.00  0.00    -0.084 Cl
ATOM      9  H1  <0> d          -0.959   1.908   0.026  0.00  0.00     0.088 H 
ATOM     10  H2  <0> d           1.156   3.167   0.008  0.00  0.00     0.086 H 
ATOM     11  H3  <0> d           3.340  -0.498  -0.033  0.00  0.00     0.086 H 
ATOM     12  H4  <0> d           1.226  -1.759  -0.019  0.00  0.00     0.088 H 
ENDROOT
TORSDOF 0
