REMARK  4 active torsions:
REMARK  status: ('A' for Active; 'I' for Inactive)
REMARK    1  A    between atoms: C1_1  and  C2_2 
REMARK    2  A    between atoms: C2_2  and  C3_3 
REMARK    3  A    between atoms: C2_2  and  C4_6 
REMARK    4  A    between atoms: C2_2  and  O1_9 
ROOT
ATOM      1  C2  <0> d          -0.733   1.888   1.268  0.00  0.00     0.171 C 
ENDROOT
BRANCH   1   2
ATOM      2  C1  <0> d           0.007   1.381   2.508  0.00  0.00    -0.038 C 
ATOM      3  H1  <0> d           1.030   1.759   2.500  0.00  0.00     0.032 H 
ATOM      4  H2  <0> d          -0.503   1.733   3.405  0.00  0.00     0.032 H 
ATOM      5  H3  <0> d           0.022   0.291   2.502  0.00  0.00     0.032 H 
ENDBRANCH   1   2
BRANCH   1   6
ATOM      6  C3  <0> d          -0.017   1.395   0.010  0.00  0.00     0.242 C 
ATOM      7  F1  <0> d           0.002  -0.004   0.002  0.00  0.00    -0.211 F 
ATOM      8  F2  <0> d           1.296   1.879  -0.000  0.00  0.00    -0.211 F 
ATOM      9  H4  <0> d          -0.544   1.756  -0.873  0.00  0.00     0.150 H 
ENDBRANCH   1   6
BRANCH   1  10
ATOM     10  C4  <0> d          -2.168   1.359   1.279  0.00  0.00     0.242 C 
ATOM     11  F3  <0> d          -2.149  -0.040   1.272  0.00  0.00    -0.211 F 
ATOM     12  F4  <0> d          -2.823   1.810   2.430  0.00  0.00    -0.211 F 
ATOM     13  H5  <0> d          -2.696   1.720   0.396  0.00  0.00     0.150 H 
ENDBRANCH   1  10
BRANCH   1  14
ATOM     14  O1  <0> d          -0.752   3.317   1.276  0.00  0.00    -0.379 OA
ATOM     15  H6  <0> d          -1.207   3.708   0.518  0.00  0.00     0.211 HD
ENDBRANCH   1  14
TORSDOF 4
