REMARK  3 active torsions:
REMARK  status: ('A' for Active; 'I' for Inactive)
REMARK    1  A    between atoms: C1_1  and  C2_2 
REMARK    2  A    between atoms: C5_6  and  O2_12 
REMARK    3  A    between atoms: C6_8  and  O1_11 
ROOT
ATOM      1  C2  <0> d          -0.729   1.579   1.267  0.00  0.00    -0.055 C 
ATOM      2  H1  <0> d          -0.744   2.669   1.273  0.00  0.00     0.039 H 
ATOM      3  C3  <0> d          -2.164   1.050   1.278  0.00  0.00    -0.060 C 
ATOM      4  C4  <0> d          -2.880   1.543   2.537  0.00  0.00    -0.038 C 
ATOM      5  C5  <0> d          -2.140   1.036   3.776  0.00  0.00     0.060 C 
ATOM      6  H2  <0> d          -2.126  -0.054   3.770  0.00  0.00     0.086 H 
ATOM      7  C6  <0> d          -0.705   1.566   3.765  0.00  0.00     0.060 C 
ATOM      8  H3  <0> d          -0.178   1.205   4.648  0.00  0.00     0.086 H 
ATOM      9  C7  <0> d           0.011   1.072   2.506  0.00  0.00    -0.036 C 
ATOM     10  H7  <0> d          -2.691   1.411   0.395  0.00  0.00     0.033 H 
ATOM     11  H8  <0> d          -2.149  -0.040   1.272  0.00  0.00     0.033 H 
ATOM     12  H9  <0> d          -3.903   1.166   2.544  0.00  0.00     0.036 H 
ATOM     13  H10 <0> d          -2.895   2.633   2.542  0.00  0.00     0.036 H 
ATOM     14  H11 <0> d           0.026  -0.018   2.500  0.00  0.00     0.037 H 
ATOM     15  H12 <0> d           1.034   1.450   2.499  0.00  0.00     0.037 H 
ENDROOT
BRANCH   1  16
ATOM     16  C1  <0> d          -0.013   1.086   0.008  0.00  0.00    -0.073 C 
ATOM     17  H4  <0> d           0.002  -0.004   0.002  0.00  0.00     0.028 H 
ATOM     18  H5  <0> d           1.010   1.463   0.000  0.00  0.00     0.028 H 
ATOM     19  H6  <0> d          -0.540   1.447  -0.875  0.00  0.00     0.028 H 
ENDBRANCH   1  16
BRANCH   7  20
ATOM     20  O1  <0> d          -0.724   2.995   3.773  0.00  0.00    -0.393 OA
ATOM     21  H13 <0> d          -1.164   3.378   4.544  0.00  0.00     0.210 HD
ENDBRANCH   7  20
BRANCH   5  22
ATOM     22  O2  <0> d          -2.809   1.497   4.952  0.00  0.00    -0.393 OA
ATOM     23  H14 <0> d          -3.726   1.199   5.025  0.00  0.00     0.210 HD
ENDBRANCH   5  22
TORSDOF 3
