REMARK  3 active torsions:
REMARK  status: ('A' for Active; 'I' for Inactive)
REMARK    1  A    between atoms: C1_1  and  C2_2 
REMARK    2  A    between atoms: C4_5  and  C6_8 
REMARK    3  A    between atoms: C6_8  and  O1_9 
ROOT
ATOM      1  C2  <0> d          -2.006   2.460   3.417  0.00  0.00     0.048 A 
ATOM      2  C3  <0> d          -0.869   1.679   3.529  0.00  0.00     0.026 A 
ATOM      3  N1  <0> d          -0.251   1.252   2.442  0.00  0.00    -0.260 NA
ATOM      4  C4  <0> d          -0.718   1.572   1.248  0.00  0.00     0.075 A 
ATOM      5  C5  <0> d          -1.851   2.357   1.136  0.00  0.00     0.028 A 
ATOM      6  N2  <0> d          -2.473   2.779   2.223  0.00  0.00    -0.262 NA
ATOM      7  H4  <0> d          -0.487   1.418   4.505  0.00  0.00     0.117 H 
ATOM      8  H5  <0> d          -2.231   2.622   0.160  0.00  0.00     0.118 H 
ENDROOT
BRANCH   4   9
ATOM      9  C6  <0> d          -0.013   1.086   0.008  0.00  0.00     0.058 C 
ATOM     10  H6  <0> d           1.019   1.466   0.000  0.00  0.00     0.083 H 
ATOM     11  H7  <0> d           0.002  -0.014   0.002  0.00  0.00     0.083 H 
BRANCH   9  12
ATOM     12  O1  <0> d          -0.704   1.559  -1.150  0.00  0.00    -0.395 OA
ATOM     13  H8  <0> d          -0.334   1.304  -2.154  0.00  0.00     0.209 HD
ENDBRANCH   9  12
ENDBRANCH   4   9
BRANCH   1  14
ATOM     14  C1  <0> d          -2.711   2.947   4.657  0.00  0.00    -0.034 C 
ATOM     15  H1  <0> d          -2.179   2.582   5.548  0.00  0.00     0.035 H 
ATOM     16  H2  <0> d          -3.743   2.567   4.665  0.00  0.00     0.035 H 
ATOM     17  H3  <0> d          -2.725   4.047   4.663  0.00  0.00     0.035 H 
ENDBRANCH   1  14
TORSDOF 3
