REMARK  2 active torsions:
REMARK  status: ('A' for Active; 'I' for Inactive)
REMARK    1  A    between atoms: C1_1  and  C2_2 
REMARK    2  A    between atoms: C4_7  and  N3_8 
ROOT
ATOM      1  C2  <0> d           0.002  -0.004   0.002  0.00  0.00     0.033 A 
ATOM      2  H1  <0> d          -1.013  -0.401  -0.003  0.00  0.00     0.059 H 
ATOM      3  C3  <0> d           0.784  -0.521  -1.189  0.00  0.00     0.012 A 
ATOM      4  N1  <0> d           1.776  -1.190  -0.704  0.00  0.00    -0.189 NA
ATOM      5  N2  <0> d           1.781  -1.203   0.687  0.00  0.00    -0.267 N 
ATOM      6  C4  <0> d           0.777  -0.535   1.192  0.00  0.00     0.100 A 
ATOM      7  H5  <0> d           0.556  -0.363  -2.233  0.00  0.00     0.111 H 
ATOM      8  H8  <0> d           2.452  -1.657   1.221  0.00  0.00     0.190 HD
ENDROOT
BRANCH   1   9
ATOM      9  C1  <0> d          -0.019   1.526   0.010  0.00  0.00    -0.062 C 
ATOM     10  H2  <0> d           1.004   1.903   0.003  0.00  0.00     0.028 H 
ATOM     11  H3  <0> d          -0.546   1.887  -0.873  0.00  0.00     0.028 H 
ATOM     12  H4  <0> d          -0.529   1.877   0.907  0.00  0.00     0.028 H 
ENDBRANCH   1   9
BRANCH   6  13
ATOM     13  N3  <0> d           0.486  -0.349   2.516  0.00  0.00    -0.387 N 
ATOM     14  H6  <0> d          -0.290   0.171   2.774  0.00  0.00     0.157 HD
ATOM     15  H7  <0> d           1.057  -0.739   3.197  0.00  0.00     0.157 HD
ENDBRANCH   6  13
TORSDOF 2
