REMARK  5 active torsions:
REMARK  status: ('A' for Active; 'I' for Inactive)
REMARK    1  A    between atoms: C1_1  and  C2_2 
REMARK    2  A    between atoms: C3_3  and  C4_4 
REMARK    3  A    between atoms: C4_4  and  O1_5 
REMARK    4  A    between atoms: O1_5  and  C5_6 
REMARK    5  A    between atoms: C5_6  and  C6_8 
ROOT
ATOM      1  C4  <0> d           2.367   1.117  -0.015  0.00  0.00     0.083 C 
ATOM      2  H4  <0> d           2.409   0.484   0.872  0.00  0.00     0.095 H 
ATOM      3  H5  <0> d           2.392   0.493  -0.908  0.00  0.00     0.095 H 
ENDROOT
BRANCH   1   4
ATOM      4  C3  <0> d           3.522   2.029  -0.021  0.00  0.00    -0.080 C 
ATOM      5  C2  <0> d           4.443   2.757  -0.026  0.00  0.00    -0.109 C 
BRANCH   5   6
ATOM      6  C1  <0> d           5.598   3.670  -0.032  0.00  0.00    -0.021 C 
ATOM      7  H1  <0> d           6.521   3.088  -0.044  0.00  0.00     0.044 H 
ATOM      8  H2  <0> d           5.557   4.303  -0.918  0.00  0.00     0.044 H 
ATOM      9  H3  <0> d           5.574   4.293   0.862  0.00  0.00     0.044 H 
ENDBRANCH   5   6
ENDBRANCH   1   4
BRANCH   1  10
ATOM     10  O1  <0> d           1.139   1.891   0.001  0.00  0.00    -0.310 OA
BRANCH  10  11
ATOM     11  C5  <0> d          -0.014   1.204   0.009  0.00  0.00     0.255 C 
ATOM     12  O2  <0> d           0.002  -0.004   0.002  0.00  0.00    -0.266 OA
BRANCH  11  13
ATOM     13  C6  <0> d          -1.329   1.940   0.019  0.00  0.00     0.004 C 
ATOM     14  H6  <0> d          -1.642   2.111   1.049  0.00  0.00     0.041 H 
ATOM     15  H7  <0> d          -1.214   2.897  -0.490  0.00  0.00     0.041 H 
ATOM     16  H8  <0> d          -2.083   1.343  -0.495  0.00  0.00     0.041 H 
ENDBRANCH  11  13
ENDBRANCH  10  11
ENDBRANCH   1  10
TORSDOF 5
