REMARK  3 active torsions:
REMARK  status: ('A' for Active; 'I' for Inactive)
REMARK    1  A    between atoms: C1_1  and  S1_2 
REMARK    2  A    between atoms: S1_2  and  C2_3 
REMARK    3  A    between atoms: C4_7  and  N4_9 
ROOT
ATOM      1  C2  <0> d          -2.443   0.933   1.257  0.00  0.00     0.207 A 
ATOM      2  N1  <0> d          -2.678   0.197   0.173  0.00  0.00    -0.215 NA
ATOM      3  C3  <0> d          -3.863  -0.359  -0.005  0.00  0.00     0.108 A 
ATOM      4  N2  <0> d          -4.823  -0.179   0.886  0.00  0.00    -0.056 NA
ATOM      5  C4  <0> d          -4.597   0.560   1.970  0.00  0.00     0.723 A 
ATOM      6  N3  <0> d          -3.405   1.117   2.155  0.00  0.00    -0.037 NA
ATOM      7  H4  <0> d          -4.050  -0.960  -0.884  0.00  0.00     0.147 H 
ENDROOT
BRANCH   1   8
ATOM      8  S1  <0> d          -0.860   1.669   1.497  0.00  0.00    -0.094 SA
BRANCH   8   9
ATOM      9  C1  <0> d          -0.013   1.086   0.008  0.00  0.00    -0.027 C 
ATOM     10  H1  <0> d           0.002  -0.004   0.002  0.00  0.00     0.042 H 
ATOM     11  H2  <0> d           1.010   1.463   0.000  0.00  0.00     0.042 H 
ATOM     12  H3  <0> d          -0.540   1.447  -0.875  0.00  0.00     0.042 H 
ENDBRANCH   8   9
ENDBRANCH   1   8
BRANCH   5  13
ATOM     13  N4  <0> d          -5.600   0.748   2.899  0.00  0.00    -0.231 N 
ATOM     14  H5  <0> d          -5.434   1.286   3.688  0.00  0.00     0.174 HD
ATOM     15  H6  <0> d          -6.470   0.341   2.763  0.00  0.00     0.174 HD
ENDBRANCH   5  13
TORSDOF 3
