REMARK  2 active torsions:
REMARK  status: ('A' for Active; 'I' for Inactive)
REMARK    1  A    between atoms: C1_1  and  C2_2 
REMARK    2  A    between atoms: C5_8  and  N5_12 
ROOT
ATOM      1  C2  <0> d          -0.907   5.186   0.035  0.00  0.00     0.102 A 
ATOM      2  N1  <0> d          -2.260   5.024   0.041  0.00  0.00    -0.327 N 
ATOM      3  H1  <0> d          -2.943   5.754   0.048  0.00  0.00     0.169 HD
ATOM      4  C3  <0> d          -2.513   3.676   0.034  0.00  0.00     0.162 A 
ATOM      5  C4  <0> d          -1.257   3.046   0.030  0.00  0.00     0.144 A 
ATOM      6  N2  <0> d          -0.320   4.024   0.025  0.00  0.00    -0.229 NA
ATOM      7  C5  <0> d          -1.219   1.641   0.017  0.00  0.00     0.135 A 
ATOM      8  N3  <0> d          -2.370   0.977   0.019  0.00  0.00    -0.228 NA
ATOM      9  C6  <0> d          -3.527   1.613   0.028  0.00  0.00     0.090 A 
ATOM     10  N4  <0> d          -3.611   2.927   0.035  0.00  0.00    -0.222 NA
ATOM     11  H5  <0> d          -4.438   1.034   0.029  0.00  0.00     0.146 H 
ENDROOT
BRANCH   1  12
ATOM     12  C1  <0> d          -0.195   6.514   0.038  0.00  0.00    -0.021 C 
ATOM     13  H2  <0> d          -0.018   6.829   1.067  0.00  0.00     0.037 H 
ATOM     14  H3  <0> d           0.759   6.417  -0.481  0.00  0.00     0.037 H 
ATOM     15  H4  <0> d          -0.810   7.258  -0.469  0.00  0.00     0.037 H 
ENDBRANCH   1  12
BRANCH   7  16
ATOM     16  N5  <0> d          -0.011   0.966   0.007  0.00  0.00    -0.285 NA
ATOM     17  H6  <0> d           0.055   0.391   0.823  0.00  0.00     0.125 HD
ATOM     18  H7  <0> d           0.822   1.462   0.002  0.00  0.00     0.125 HD
ENDBRANCH   7  16
TORSDOF 2
