REMARK  2 active torsions:
REMARK  status: ('A' for Active; 'I' for Inactive)
REMARK    1  A    between atoms: C1_1  and  C2_2 
REMARK    2  A    between atoms: C6_6  and  C8_8 
ROOT
ATOM      1  C2  <0> d           1.178   1.781   0.000  0.00  0.00    -0.061 A 
ATOM      2  C3  <0> d          -0.013   1.076   0.008  0.00  0.00    -0.077 A 
ATOM      3  C4  <0> d          -1.222   1.748   0.017  0.00  0.00    -0.082 A 
ATOM      4  C5  <0> d          -1.247   3.127   0.030  0.00  0.00    -0.070 A 
ATOM      5  C6  <0> d          -0.050   3.845   0.022  0.00  0.00    -0.002 A 
ATOM      6  C7  <0> d           1.167   3.160   0.007  0.00  0.00    -0.065 A 
ATOM      7  H4  <0> d           0.002  -0.004   0.002  0.00  0.00     0.084 H 
ATOM      8  H5  <0> d          -2.147   1.192   0.019  0.00  0.00     0.083 H 
ATOM      9  H6  <0> d          -2.192   3.651   0.042  0.00  0.00     0.084 H 
ATOM     10  H7  <0> d           2.096   3.709   0.001  0.00  0.00     0.085 H 
ENDROOT
BRANCH   5  11
ATOM     11  C8  <0> d          -0.070   5.322   0.030  0.00  0.00     0.085 A 
ATOM     12  O1  <0> d           1.010   6.128   0.024  0.00  0.00    -0.322 OA
ATOM     13  C11 <0> d           0.610   7.410   0.034  0.00  0.00     0.019 A 
ATOM     14  C10 <0> d          -0.737   7.442   0.047  0.00  0.00    -0.059 A 
ATOM     15  H10 <0> d           1.261   8.272   0.032  0.00  0.00     0.123 H 
ATOM     16  C9  <0> d          -1.182   6.105   0.039  0.00  0.00    -0.048 A 
ATOM     17  H9  <0> d          -1.357   8.326   0.057  0.00  0.00     0.086 H 
ATOM     18  H8  <0> d          -2.208   5.768   0.042  0.00  0.00     0.087 H 
ENDBRANCH   5  11
BRANCH   1  19
ATOM     19  C1  <0> d           2.490   1.040  -0.016  0.00  0.00    -0.051 C 
ATOM     20  H1  <0> d           2.797   0.867  -1.048  0.00  0.00     0.033 H 
ATOM     21  H2  <0> d           3.249   1.634   0.494  0.00  0.00     0.033 H 
ATOM     22  H3  <0> d           2.374   0.084   0.494  0.00  0.00     0.033 H 
ENDBRANCH   1  19
TORSDOF 2
