REMARK  3 active torsions:
REMARK  status: ('A' for Active; 'I' for Inactive)
REMARK    1  A    between atoms: C1_1  and  C2_2 
REMARK    2  A    between atoms: C4_5  and  C5_7 
REMARK    3  A    between atoms: C7_9  and  N2_12 
ROOT
ATOM      1  C2  <0> d           0.002  -0.004   0.002  0.00  0.00    -0.048 A 
ATOM      2  H1  <0> d          -0.882  -0.484  -0.417  0.00  0.00     0.040 H 
ATOM      3  C3  <0> d           1.351  -0.691  -0.221  0.00  0.00    -0.052 A 
ATOM      4  C4  <0> d           0.703  -0.708   1.166  0.00  0.00    -0.006 A 
ATOM      5  H2  <0> d           1.150  -0.080   1.938  0.00  0.00     0.050 H 
ATOM      6  H6  <0> d           1.354  -1.623  -0.786  0.00  0.00     0.034 H 
ATOM      7  H7  <0> d           2.223  -0.053  -0.362  0.00  0.00     0.034 H 
ENDROOT
BRANCH   4   8
ATOM      8  C5  <0> d           0.118  -2.011   1.645  0.00  0.00     0.070 A 
ATOM      9  N1  <0> d          -0.720  -2.155   2.635  0.00  0.00    -0.131 NA
ATOM     10  O1  <0> d          -1.024  -3.533   2.757  0.00  0.00    -0.196 OA
ATOM     11  C7  <0> d          -0.332  -4.192   1.813  0.00  0.00     0.168 A 
ATOM     12  C6  <0> d           0.385  -3.277   1.109  0.00  0.00    -0.006 A 
ATOM     13  H8  <0> d           1.044  -3.489   0.280  0.00  0.00     0.093 H 
BRANCH  11  14
ATOM     14  N2  <0> d          -0.346  -5.558   1.597  0.00  0.00    -0.378 N 
ATOM     15  H9  <0> d           0.191  -5.942   0.886  0.00  0.00     0.158 HD
ATOM     16  H10 <0> d          -0.893  -6.132   2.156  0.00  0.00     0.158 HD
ENDBRANCH  11  14
ENDBRANCH   4   8
BRANCH   1  17
ATOM     17  C1  <0> d          -0.019   1.526   0.010  0.00  0.00    -0.072 C 
ATOM     18  H3  <0> d           1.004   1.903   0.003  0.00  0.00     0.028 H 
ATOM     19  H4  <0> d          -0.546   1.887  -0.873  0.00  0.00     0.028 H 
ATOM     20  H5  <0> d          -0.529   1.877   0.907  0.00  0.00     0.028 H 
ENDBRANCH   1  17
TORSDOF 3
