REMARK  3 active torsions:
REMARK  status: ('A' for Active; 'I' for Inactive)
REMARK    1  A    between atoms: C1_1  and  C2_2 
REMARK    2  A    between atoms: C2_2  and  C3_4 
REMARK    3  A    between atoms: C6_8  and  N3_10 
ROOT
ATOM      1  C3  <0> d          -0.000  -0.737  -1.283  0.00  0.00     0.122 A 
ATOM      2  C4  <0> d           0.013  -2.134  -1.303  0.00  0.00    -0.033 A 
ATOM      3  C5  <0> d           0.010  -2.776  -2.534  0.00  0.00     0.023 A 
ATOM      4  N1  <0> d          -0.004  -2.053  -3.639  0.00  0.00    -0.075 NA
ATOM      5  C6  <0> d          -0.017  -0.728  -3.589  0.00  0.00     0.720 A 
ATOM      6  N2  <0> d          -0.020  -0.075  -2.439  0.00  0.00    -0.060 NA
ATOM      7  H4  <0> d           0.025  -2.700  -0.384  0.00  0.00     0.089 H 
ATOM      8  H5  <0> d           0.020  -3.854  -2.587  0.00  0.00     0.115 H 
ENDROOT
BRANCH   1   9
ATOM      9  C2  <0> d           0.002  -0.004   0.002  0.00  0.00     0.174 C 
ATOM     10  O1  <0> d           0.020  -0.614   1.045  0.00  0.00    -0.291 OA
BRANCH   9  11
ATOM     11  C1  <0> d          -0.018   1.503   0.010  0.00  0.00    -0.015 C 
ATOM     12  H1  <0> d           1.004   1.880   0.003  0.00  0.00     0.038 H 
ATOM     13  H2  <0> d          -0.545   1.864  -0.873  0.00  0.00     0.038 H 
ATOM     14  H3  <0> d          -0.529   1.854   0.907  0.00  0.00     0.038 H 
ENDBRANCH   9  11
ENDBRANCH   1   9
BRANCH   5  15
ATOM     15  N3  <0> d          -0.032  -0.009  -4.772  0.00  0.00    -0.231 N 
ATOM     16  H6  <0> d          -0.033  -0.474  -5.623  0.00  0.00     0.174 HD
ATOM     17  H7  <0> d          -0.041   0.961  -4.750  0.00  0.00     0.174 HD
ENDBRANCH   5  15
TORSDOF 3
