REMARK  1 active torsions:
REMARK  status: ('A' for Active; 'I' for Inactive)
REMARK    1  A    between atoms: C1_1  and  C2_2 
ROOT
ATOM      1  C2  <0> d           0.002  -0.004   0.002  0.00  0.00     0.154 A 
ATOM      2  N1  <0> d           0.008  -0.774  -1.091  0.00  0.00    -0.181 NA
ATOM      3  C3  <0> d           0.027  -2.040  -0.747  0.00  0.00     0.343 A 
ATOM      4  O1  <0> d           0.038  -3.092  -1.594  0.00  0.00    -0.139 OA
ATOM      5  O2  <0> d           0.034  -2.107   0.594  0.00  0.00    -0.164 OA
ATOM      6  N2  <0> d           0.023  -0.766   1.058  0.00  0.00    -0.109 NA
ENDROOT
BRANCH   1   7
ATOM      7  C1  <0> d          -0.018   1.503   0.010  0.00  0.00    -0.017 C 
ATOM      8  H1  <0> d           1.004   1.880   0.003  0.00  0.00     0.038 H 
ATOM      9  H2  <0> d          -0.545   1.864  -0.873  0.00  0.00     0.038 H 
ATOM     10  H3  <0> d          -0.529   1.854   0.907  0.00  0.00     0.038 H 
ENDBRANCH   1   7
TORSDOF 1
