REMARK  5 active torsions:
REMARK  status: ('A' for Active; 'I' for Inactive)
REMARK    1  A    between atoms: C1_1  and  N1_2 
REMARK       I    between atoms: N1_2  and  C2_3 
REMARK    2  A    between atoms: C2_3  and  C3_5 
REMARK    3  A    between atoms: C3_5  and  C4_6 
REMARK    4  A    between atoms: C4_6  and  C5_7 
REMARK       I    between atoms: C5_7  and  N2_9 
REMARK    5  A    between atoms: N2_9  and  C6_10 
ROOT
ATOM      1  C3  <0> d          -1.330   1.944   0.019  0.00  0.00     0.017 C 
ATOM      2  H5  <0> d          -1.392   2.565   0.913  0.00  0.00     0.047 H 
ATOM      3  H6  <0> d          -1.400   2.575  -0.867  0.00  0.00     0.047 H 
ENDROOT
BRANCH   1   4
ATOM      4  C2  <0> d          -0.014   1.209   0.009  0.00  0.00     0.217 C 
ATOM      5  N1  <0> d           1.143   1.898   0.001  0.00  0.00    -0.365 N 
ATOM      6  H4  <0> d           1.130   2.868   0.007  0.00  0.00     0.161 HD
ATOM      7  O1  <0> d           0.002  -0.004   0.002  0.00  0.00    -0.274 OA
BRANCH   5   8
ATOM      8  C1  <0> d           2.422   1.183  -0.015  0.00  0.00    -0.018 C 
ATOM      9  H1  <0> d           2.497   0.553   0.871  0.00  0.00     0.056 H 
ATOM     10  H2  <0> d           2.480   0.562  -0.909  0.00  0.00     0.056 H 
ATOM     11  H3  <0> d           3.241   1.903  -0.019  0.00  0.00     0.056 H 
ENDBRANCH   5   8
ENDBRANCH   1   4
BRANCH   1  12
ATOM     12  C4  <0> d          -2.479   0.934   0.019  0.00  0.00     0.017 C 
ATOM     13  H7  <0> d          -2.417   0.313  -0.875  0.00  0.00     0.047 H 
ATOM     14  H8  <0> d          -2.408   0.304   0.905  0.00  0.00     0.047 H 
BRANCH  12  15
ATOM     15  C5  <0> d          -3.794   1.670   0.029  0.00  0.00     0.217 C 
ATOM     16  O2  <0> d          -3.811   2.883   0.036  0.00  0.00    -0.274 OA
ATOM     17  N2  <0> d          -4.952   0.980   0.031  0.00  0.00    -0.365 N 
ATOM     18  H9  <0> d          -4.939   0.011   0.025  0.00  0.00     0.161 HD
BRANCH  17  19
ATOM     19  C6  <0> d          -6.231   1.696   0.041  0.00  0.00    -0.018 C 
ATOM     20  H10 <0> d          -7.049   0.976   0.041  0.00  0.00     0.056 H 
ATOM     21  H11 <0> d          -6.293   2.317   0.934  0.00  0.00     0.056 H 
ATOM     22  H12 <0> d          -6.301   2.326  -0.845  0.00  0.00     0.056 H 
ENDBRANCH  17  19
ENDBRANCH  12  15
ENDBRANCH   1  12
TORSDOF 5
