REMARK  2 active torsions:
REMARK  status: ('A' for Active; 'I' for Inactive)
REMARK    1  A    between atoms: C1_1  and  C2_2 
REMARK    2  A    between atoms: C10_10  and  O1_12 
ROOT
ATOM      1  C2  <0> d          -1.899   5.353   0.048  0.00  0.00    -0.050 A 
ATOM      2  C3  <0> d          -2.351   4.111   0.046  0.00  0.00    -0.068 A 
ATOM      3  C4  <0> d          -1.239   3.142   0.030  0.00  0.00    -0.027 A 
ATOM      4  C5  <0> d          -1.218   1.745   0.017  0.00  0.00    -0.072 A 
ATOM      5  C6  <0> d          -0.013   1.076   0.008  0.00  0.00    -0.082 A 
ATOM      6  C7  <0> d           1.179   1.780   0.000  0.00  0.00    -0.082 A 
ATOM      7  C8  <0> d           1.167   3.165   0.007  0.00  0.00    -0.073 A 
ATOM      8  C9  <0> d          -0.031   3.841   0.022  0.00  0.00    -0.015 A 
ATOM      9  C10 <0> d          -0.389   5.307   0.033  0.00  0.00     0.083 A 
ATOM     10  H1  <0> d          -0.005   5.796  -0.862  0.00  0.00     0.098 H 
ATOM     11  H5  <0> d          -3.397   3.841   0.055  0.00  0.00     0.085 H 
ATOM     12  H6  <0> d          -2.145   1.190   0.019  0.00  0.00     0.084 H 
ATOM     13  H7  <0> d           0.002  -0.004   0.002  0.00  0.00     0.083 H 
ATOM     14  H8  <0> d           2.119   1.249  -0.011  0.00  0.00     0.083 H 
ATOM     15  H9  <0> d           2.097   3.713   0.001  0.00  0.00     0.084 H 
ENDROOT
BRANCH   1  16
ATOM     16  C1  <0> d          -2.745   6.600   0.063  0.00  0.00    -0.052 C 
ATOM     17  H2  <0> d          -2.959   6.906  -0.961  0.00  0.00     0.033 H 
ATOM     18  H3  <0> d          -3.680   6.398   0.585  0.00  0.00     0.033 H 
ATOM     19  H4  <0> d          -2.208   7.397   0.576  0.00  0.00     0.033 H 
ENDBRANCH   1  16
BRANCH   9  20
ATOM     20  O1  <0> d           0.136   5.936   1.204  0.00  0.00    -0.386 OA
ATOM     21  H10 <0> d          -0.063   6.880   1.266  0.00  0.00     0.210 HD
ENDBRANCH   9  20
TORSDOF 2
