REMARK  0 active torsions:
REMARK  status: ('A' for Active; 'I' for Inactive)
ROOT
ATOM      1  C1  <0> d           1.150   1.775   0.001  0.00  0.00    -0.060 A 
ATOM      2  C2  <0> d          -0.013   1.076   0.008  0.00  0.00    -0.051 A 
ATOM      3  C3  <0> d          -1.241   1.770   0.018  0.00  0.00     0.096 A 
ATOM      4  C4  <0> d          -1.211   3.248   0.031  0.00  0.00     0.021 A 
ATOM      5  C5  <0> d           0.031   3.908   0.022  0.00  0.00    -0.048 A 
ATOM      6  C6  <0> d           1.174   3.174   0.008  0.00  0.00     0.035 A 
ATOM      7 Cl1  <0> d           2.705   3.993  -0.002  0.00  0.00    -0.084 Cl
ATOM      8  C7  <0> d          -2.546   3.589   0.046  0.00  0.00     0.056 A 
ATOM      9  O1  <0> d          -3.225   2.437   0.047  0.00  0.00    -0.224 OA
ATOM     10  N1  <0> d          -2.515   1.455   0.035  0.00  0.00    -0.128 NA
ATOM     11  H1  <0> d           2.085   1.235  -0.011  0.00  0.00     0.086 H 
ATOM     12  H2  <0> d           0.002  -0.004   0.002  0.00  0.00     0.087 H 
ATOM     13  H3  <0> d           0.075   4.987   0.028  0.00  0.00     0.087 H 
ATOM     14  H4  <0> d          -2.961   4.586   0.055  0.00  0.00     0.128 H 
ENDROOT
TORSDOF 0
