REMARK  2 active torsions:
REMARK  status: ('A' for Active; 'I' for Inactive)
REMARK    1  A    between atoms: C1_1  and  N4_9 
REMARK    2  A    between atoms: C2_7  and  N3_8 
ROOT
ATOM      1  C1  <0> d          -2.008   2.454  -0.705  0.00  0.00     0.182 A 
ATOM      2  N1  <0> d          -0.969   1.914  -1.270  0.00  0.00    -0.123 NA
ATOM      3  S1  <0> d          -0.017   1.417   0.010  0.00  0.00     0.368 S 
ATOM      4  O1  <0> d           0.002  -0.004   0.002  0.00  0.00    -0.178 OA
ATOM      5  O2  <0> d           1.160   2.213   0.003  0.00  0.00    -0.178 OA
ATOM      6  N2  <0> d          -0.945   1.901   1.313  0.00  0.00    -0.123 NA
ATOM      7  C2  <0> d          -1.997   2.446   0.765  0.00  0.00     0.182 A 
ENDROOT
BRANCH   1   8
ATOM      8  N4  <0> d          -3.045   2.996  -1.432  0.00  0.00    -0.380 N 
ATOM      9  H3  <0> d          -3.017   2.982  -2.402  0.00  0.00     0.158 HD
ATOM     10  H4  <0> d          -3.804   3.390  -0.975  0.00  0.00     0.158 HD
ENDBRANCH   1   8
BRANCH   7  11
ATOM     11  N3  <0> d          -3.024   2.980   1.513  0.00  0.00    -0.380 N 
ATOM     12  H1  <0> d          -3.789   3.379   1.071  0.00  0.00     0.158 HD
ATOM     13  H2  <0> d          -2.981   2.956   2.482  0.00  0.00     0.158 HD
ENDBRANCH   7  11
TORSDOF 2
