REMARK  4 active torsions:
REMARK  status: ('A' for Active; 'I' for Inactive)
REMARK    1  A    between atoms: C1_1  and  C2_2 
REMARK    2  A    between atoms: C5_6  and  C8_11 
REMARK    3  A    between atoms: C8_11  and  C9_12 
REMARK    4  A    between atoms: C8_11  and  C10_13 
ROOT
ATOM      1  C2  <0> d           0.002  -0.004   0.002  0.00  0.00    -0.051 C 
ATOM      2  H1  <0> d          -1.020  -0.382   0.010  0.00  0.00     0.040 H 
ATOM      3  C3  <0> d           0.719  -0.498  -1.256  0.00  0.00    -0.061 C 
ATOM      4  C4  <0> d           0.666  -2.025  -1.317  0.00  0.00    -0.055 C 
ATOM      5  C5  <0> d           1.433  -2.609  -0.126  0.00  0.00     0.007 C 
ATOM      6  H2  <0> d           2.490  -2.355  -0.211  0.00  0.00     0.052 H 
ATOM      7  C6  <0> d           0.869  -2.016   1.146  0.00  0.00     0.131 C 
ATOM      8  O1  <0> d           0.527  -2.726   2.061  0.00  0.00    -0.298 OA
ATOM      9  C7  <0> d           0.744  -0.512   1.243  0.00  0.00    -0.006 C 
ATOM     10  H6  <0> d           0.230  -0.083  -2.138  0.00  0.00     0.033 H 
ATOM     11  H7  <0> d           1.758  -0.172  -1.232  0.00  0.00     0.033 H 
ATOM     12  H8  <0> d          -0.372  -2.355  -1.278  0.00  0.00     0.034 H 
ATOM     13  H9  <0> d           1.122  -2.368  -2.246  0.00  0.00     0.034 H 
ATOM     14  H10 <0> d           1.737  -0.064   1.285  0.00  0.00     0.044 H 
ATOM     15  H11 <0> d           0.182  -0.248   2.139  0.00  0.00     0.044 H 
ENDROOT
BRANCH   5  16
ATOM     16  C8  <0> d           1.270  -4.130  -0.106  0.00  0.00    -0.051 C 
ATOM     17  H12 <0> d           0.213  -4.381  -0.014  0.00  0.00     0.040 H 
BRANCH  16  18
ATOM     18  C9  <0> d           1.823  -4.720  -1.405  0.00  0.00    -0.072 C 
ATOM     19  H13 <0> d           2.880  -4.469  -1.496  0.00  0.00     0.028 H 
ATOM     20  H14 <0> d           1.707  -5.804  -1.390  0.00  0.00     0.028 H 
ATOM     21  H15 <0> d           1.276  -4.307  -2.252  0.00  0.00     0.028 H 
ENDBRANCH  16  18
BRANCH  16  22
ATOM     22  C10 <0> d           2.037  -4.709   1.085  0.00  0.00    -0.072 C 
ATOM     23  H16 <0> d           1.643  -4.289   2.010  0.00  0.00     0.028 H 
ATOM     24  H17 <0> d           1.920  -5.793   1.099  0.00  0.00     0.028 H 
ATOM     25  H18 <0> d           3.093  -4.458   0.993  0.00  0.00     0.028 H 
ENDBRANCH  16  22
ENDBRANCH   5  16
BRANCH   1  26
ATOM     26  C1  <0> d          -0.019   1.526   0.010  0.00  0.00    -0.073 C 
ATOM     27  H3  <0> d           1.004   1.903   0.003  0.00  0.00     0.028 H 
ATOM     28  H4  <0> d          -0.546   1.887  -0.873  0.00  0.00     0.028 H 
ATOM     29  H5  <0> d          -0.529   1.877   0.907  0.00  0.00     0.028 H 
ENDBRANCH   1  26
TORSDOF 4
