REMARK  3 active torsions:
REMARK  status: ('A' for Active; 'I' for Inactive)
REMARK    1  A    between atoms: C1_1  and  C2_2 
REMARK    2  A    between atoms: C3_3  and  C7_9 
REMARK    3  A    between atoms: C5_6  and  C6_8 
REMARK       I    between atoms: C7_9  and  N3_11 
ROOT
ATOM      1  C2  <0> d           1.323   2.063  -0.007  0.00  0.00     0.050 A 
ATOM      2  C3  <0> d           0.074   1.489   0.258  0.00  0.00     0.073 A 
ATOM      3  C4  <0> d          -0.026   0.094   0.247  0.00  0.00     0.021 A 
ATOM      4  N1  <0> d           1.054  -0.623  -0.012  0.00  0.00    -0.245 NA
ATOM      5  C5  <0> d           2.212  -0.041  -0.257  0.00  0.00     0.122 A 
ATOM      6  N2  <0> d           2.350   1.271  -0.257  0.00  0.00    -0.238 NA
ATOM      7  H4  <0> d          -0.970  -0.390   0.447  0.00  0.00     0.116 H 
ENDROOT
BRANCH   2   8
ATOM      8  C7  <0> d          -1.107   2.334   0.537  0.00  0.00     0.252 C 
ATOM      9  O1  <0> d          -0.980   3.537   0.652  0.00  0.00    -0.268 OA
ATOM     10  N3  <0> d          -2.324   1.770   0.663  0.00  0.00    -0.366 N 
ATOM     11  H8  <0> d          -2.425   0.809   0.572  0.00  0.00     0.159 HD
ATOM     12  H9  <0> d          -3.099   2.324   0.846  0.00  0.00     0.159 HD
ENDBRANCH   2   8
BRANCH   1  13
ATOM     13  C1  <0> d           1.492   3.561  -0.010  0.00  0.00    -0.034 C 
ATOM     14  H1  <0> d           1.646   3.911   1.011  0.00  0.00     0.035 H 
ATOM     15  H2  <0> d           2.356   3.828  -0.620  0.00  0.00     0.035 H 
ATOM     16  H3  <0> d           0.598   4.027  -0.423  0.00  0.00     0.035 H 
ENDBRANCH   1  13
BRANCH   5  17
ATOM     17  C6  <0> d           3.414  -0.901  -0.547  0.00  0.00    -0.019 C 
ATOM     18  H5  <0> d           3.480  -1.085  -1.619  0.00  0.00     0.037 H 
ATOM     19  H6  <0> d           4.316  -0.391  -0.210  0.00  0.00     0.037 H 
ATOM     20  H7  <0> d           3.316  -1.851  -0.021  0.00  0.00     0.037 H 
ENDBRANCH   5  17
TORSDOF 3
