REMARK  4 active torsions:
REMARK  status: ('A' for Active; 'I' for Inactive)
REMARK    1  A    between atoms: C1_1  and  C2_2 
REMARK    2  A    between atoms: C3_3  and  C6_10 
REMARK    3  A    between atoms: C4_6  and  S1_8 
REMARK    4  A    between atoms: S1_8  and  C5_9 
ROOT
ATOM      1  C2  <0> d          -2.088   1.792   1.234  0.00  0.00     0.059 A 
ATOM      2  C3  <0> d          -0.718   1.572   1.248  0.00  0.00     0.077 A 
ATOM      3  N1  <0> d          -0.037   1.798   2.358  0.00  0.00    -0.151 NA
ATOM      4  N2  <0> d          -0.637   2.213   3.419  0.00  0.00    -0.122 NA
ATOM      5  C4  <0> d          -1.948   2.425   3.431  0.00  0.00     0.209 A 
ATOM      6  N3  <0> d          -2.678   2.214   2.342  0.00  0.00    -0.225 NA
ENDROOT
BRANCH   5   7
ATOM      7  S1  <0> d          -2.726   2.994   4.906  0.00  0.00    -0.093 SA
BRANCH   7   8
ATOM      8  C5  <0> d          -1.288   3.094   6.001  0.00  0.00    -0.027 C 
ATOM      9  H4  <0> d          -0.832   2.109   6.093  0.00  0.00     0.042 H 
ATOM     10  H5  <0> d          -0.563   3.793   5.585  0.00  0.00     0.042 H 
ATOM     11  H6  <0> d          -1.605   3.441   6.985  0.00  0.00     0.042 H 
ENDBRANCH   7   8
ENDBRANCH   5   7
BRANCH   1  12
ATOM     12  C1  <0> d          -2.891   1.550  -0.018  0.00  0.00    -0.034 C 
ATOM     13  H1  <0> d          -3.244   0.519  -0.029  0.00  0.00     0.035 H 
ATOM     14  H2  <0> d          -3.745   2.227  -0.038  0.00  0.00     0.035 H 
ATOM     15  H3  <0> d          -2.265   1.730  -0.892  0.00  0.00     0.035 H 
ENDBRANCH   1  12
BRANCH   2  16
ATOM     16  C6  <0> d          -0.013   1.086   0.008  0.00  0.00    -0.032 C 
ATOM     17  H7  <0> d           0.002  -0.004   0.002  0.00  0.00     0.035 H 
ATOM     18  H8  <0> d           1.010   1.463   0.000  0.00  0.00     0.035 H 
ATOM     19  H9  <0> d          -0.540   1.447  -0.875  0.00  0.00     0.035 H 
ENDBRANCH   2  16
TORSDOF 4
