REMARK  3 active torsions:
REMARK  status: ('A' for Active; 'I' for Inactive)
REMARK    1  A    between atoms: C1_1  and  C2_2 
REMARK       I    between atoms: C2_2  and  N1_4 
REMARK    2  A    between atoms: N1_4  and  C3_5 
REMARK    3  A    between atoms: C3_5  and  C4_6 
ROOT
ATOM      1  C4  <0> d          -0.018   1.468   0.010  0.00  0.00     0.029 C 
ATOM      2  C5  <0> d           0.002  -0.004   0.002  0.00  0.00     0.060 C 
ATOM      3  N2  <0> d           0.018  -1.140  -0.004  0.00  0.00    -0.197 NA
ATOM      4  H7  <0> d           1.005   1.845   0.002  0.00  0.00     0.057 H 
ATOM      5  H8  <0> d          -0.545   1.829  -0.873  0.00  0.00     0.057 H 
ENDROOT
BRANCH   1   6
ATOM      6  C3  <0> d          -0.734   1.961   1.269  0.00  0.00     0.006 C 
ATOM      7  H5  <0> d          -1.757   1.584   1.277  0.00  0.00     0.065 H 
ATOM      8  H6  <0> d          -0.207   1.600   2.152  0.00  0.00     0.065 H 
BRANCH   6   9
ATOM      9  N1  <0> d          -0.754   3.426   1.277  0.00  0.00    -0.360 N 
ATOM     10  C2  <0> d          -1.337   4.087   2.297  0.00  0.00     0.213 C 
ATOM     11  O1  <0> d          -1.845   3.468   3.208  0.00  0.00    -0.274 OA
ATOM     12  H4  <0> d          -0.347   3.921   0.548  0.00  0.00     0.162 HD
BRANCH  10  13
ATOM     13  C1  <0> d          -1.357   5.593   2.305  0.00  0.00    -0.003 C 
ATOM     14  H1  <0> d          -0.857   5.968   1.413  0.00  0.00     0.040 H 
ATOM     15  H2  <0> d          -2.390   5.943   2.317  0.00  0.00     0.040 H 
ATOM     16  H3  <0> d          -0.840   5.959   3.192  0.00  0.00     0.040 H 
ENDBRANCH  10  13
ENDBRANCH   6   9
ENDBRANCH   1   6
TORSDOF 3
