REMARK  7 active torsions:
REMARK  status: ('A' for Active; 'I' for Inactive)
REMARK    1  A    between atoms: C1_1  and  C2_2 
REMARK    2  A    between atoms: C2_2  and  C3_4 
REMARK    3  A    between atoms: C2_2  and  O2_9 
REMARK    4  A    between atoms: C3_4  and  C4_5 
REMARK    5  A    between atoms: C3_4  and  C5_6 
REMARK    6  A    between atoms: C3_4  and  C6_7 
REMARK    7  A    between atoms: C6_7  and  O1_8 
ROOT
ATOM      1  C3  <0> d           1.423   1.615  -0.003  0.00  0.00    -0.001 C 
ENDROOT
BRANCH   1   2
ATOM      2  C2  <0> d          -0.013   1.086   0.008  0.00  0.00     0.041 C 
ATOM      3  H1  <0> d           0.002  -0.004   0.002  0.00  0.00     0.083 H 
BRANCH   2   4
ATOM      4  C1  <0> d          -0.729   1.579   1.267  0.00  0.00    -0.052 C 
ATOM      5  H2  <0> d          -1.751   1.202   1.275  0.00  0.00     0.030 H 
ATOM      6  H3  <0> d          -0.202   1.218   2.150  0.00  0.00     0.030 H 
ATOM      7  H4  <0> d          -0.744   2.669   1.273  0.00  0.00     0.030 H 
ENDBRANCH   2   4
BRANCH   2   8
ATOM      8  O2  <0> d          -0.704   1.559  -1.150  0.00  0.00    -0.395 OA
ATOM      9  H14 <0> d          -1.622   1.262  -1.209  0.00  0.00     0.210 HD
ENDBRANCH   2   8
ENDBRANCH   1   2
BRANCH   1  10
ATOM     10  C4  <0> d           2.139   1.122  -1.262  0.00  0.00    -0.065 C 
ATOM     11  H5  <0> d           1.612   1.483  -2.145  0.00  0.00     0.028 H 
ATOM     12  H6  <0> d           3.161   1.499  -1.269  0.00  0.00     0.028 H 
ATOM     13  H7  <0> d           2.154   0.032  -1.268  0.00  0.00     0.028 H 
ENDBRANCH   1  10
BRANCH   1  14
ATOM     14  C5  <0> d           1.402   3.145   0.006  0.00  0.00    -0.065 C 
ATOM     15  H8  <0> d           0.892   3.497   0.902  0.00  0.00     0.028 H 
ATOM     16  H9  <0> d           2.425   3.522  -0.002  0.00  0.00     0.028 H 
ATOM     17  H10 <0> d           0.875   3.506  -0.877  0.00  0.00     0.028 H 
ENDBRANCH   1  14
BRANCH   1  18
ATOM     18  C6  <0> d           2.163   1.109   1.237  0.00  0.00     0.025 C 
ATOM     19  H11 <0> d           1.653   1.460   2.134  0.00  0.00     0.075 H 
ATOM     20  H12 <0> d           2.178   0.019   1.231  0.00  0.00     0.075 H 
BRANCH  18  21
ATOM     21  O1  <0> d           3.503   1.603   1.226  0.00  0.00    -0.400 OA
ATOM     22  H13 <0> d           4.032   1.321   1.985  0.00  0.00     0.209 HD
ENDBRANCH  18  21
ENDBRANCH   1  18
TORSDOF 7
