REMARK  5 active torsions:
REMARK  status: ('A' for Active; 'I' for Inactive)
REMARK    1  A    between atoms: C1_1  and  C2_2 
REMARK    2  A    between atoms: C2_2  and  O2_4 
REMARK    3  A    between atoms: O2_4  and  C3_5 
REMARK    4  A    between atoms: C3_5  and  C4_6 
REMARK    5  A    between atoms: C3_5  and  C5_7 
ROOT
ATOM      1  C3  <0> d           2.367   1.117  -0.015  0.00  0.00     0.151 C 
ATOM      2  C6  <0> d           3.522   2.029  -0.021  0.00  0.00     0.097 C 
ATOM      3  N1  <0> d           4.414   2.733  -0.025  0.00  0.00    -0.194 NA
ENDROOT
BRANCH   1   4
ATOM      4  O2  <0> d           1.139   1.891   0.001  0.00  0.00    -0.296 OA
BRANCH   4   5
ATOM      5  C2  <0> d          -0.014   1.204   0.009  0.00  0.00     0.256 C 
ATOM      6  O1  <0> d           0.002  -0.004   0.002  0.00  0.00    -0.266 OA
BRANCH   5   7
ATOM      7  C1  <0> d          -1.329   1.940   0.019  0.00  0.00     0.004 C 
ATOM      8  H1  <0> d          -2.148   1.220   0.019  0.00  0.00     0.041 H 
ATOM      9  H2  <0> d          -1.391   2.561   0.913  0.00  0.00     0.041 H 
ATOM     10  H3  <0> d          -1.400   2.570  -0.867  0.00  0.00     0.041 H 
ENDBRANCH   5   7
ENDBRANCH   4   5
ENDBRANCH   1   4
BRANCH   1  11
ATOM     11  C4  <0> d           2.426   0.228   1.229  0.00  0.00    -0.035 C 
ATOM     12  H4  <0> d           1.571  -0.448   1.234  0.00  0.00     0.033 H 
ATOM     13  H5  <0> d           3.348  -0.353   1.218  0.00  0.00     0.033 H 
ATOM     14  H6  <0> d           2.401   0.852   2.123  0.00  0.00     0.033 H 
ENDBRANCH   1  11
BRANCH   1  15
ATOM     15  C5  <0> d           2.402   0.241  -1.269  0.00  0.00    -0.035 C 
ATOM     16  H7  <0> d           2.360   0.875  -2.155  0.00  0.00     0.033 H 
ATOM     17  H8  <0> d           3.324  -0.340  -1.281  0.00  0.00     0.033 H 
ATOM     18  H9  <0> d           1.547  -0.434  -1.264  0.00  0.00     0.033 H 
ENDBRANCH   1  15
TORSDOF 5
