REMARK  6 active torsions:
REMARK  status: ('A' for Active; 'I' for Inactive)
REMARK    1  A    between atoms: C1_1  and  O1_2 
REMARK    2  A    between atoms: O1_2  and  C2_3 
REMARK    3  A    between atoms: C2_3  and  C3_5 
REMARK    4  A    between atoms: C5_8  and  C6_10 
REMARK    5  A    between atoms: C6_10  and  O4_12 
REMARK    6  A    between atoms: O4_12  and  C7_13 
ROOT
ATOM      1  C3  <0> d          -1.150   1.781  -0.743  0.00  0.00     0.043 A 
ATOM      2  H1  <0> d          -0.922   2.722  -1.243  0.00  0.00     0.056 H 
ATOM      3  C4  <0> d          -0.013   1.086   0.008  0.00  0.00    -0.040 A 
ATOM      4  C5  <0> d          -1.136   1.773   0.788  0.00  0.00     0.043 A 
ATOM      5  H2  <0> d          -1.859   1.135   1.295  0.00  0.00     0.056 H 
ATOM      6  H6  <0> d           0.002  -0.004   0.002  0.00  0.00     0.035 H 
ATOM      7  H7  <0> d           0.964   1.569   0.001  0.00  0.00     0.035 H 
ENDROOT
BRANCH   1   8
ATOM      8  C2  <0> d          -2.164   0.907  -1.434  0.00  0.00     0.263 C 
ATOM      9  O2  <0> d          -2.926   0.233  -0.781  0.00  0.00    -0.265 OA
BRANCH   8  10
ATOM     10  O1  <0> d          -2.221   0.875  -2.775  0.00  0.00    -0.326 OA
BRANCH  10  11
ATOM     11  C1  <0> d          -3.223   0.011  -3.372  0.00  0.00     0.013 C 
ATOM     12  H3  <0> d          -3.161   0.079  -4.458  0.00  0.00     0.067 H 
ATOM     13  H4  <0> d          -3.045  -1.019  -3.063  0.00  0.00     0.067 H 
ATOM     14  H5  <0> d          -4.214   0.323  -3.044  0.00  0.00     0.067 H 
ENDBRANCH  10  11
ENDBRANCH   8  10
ENDBRANCH   1   8
BRANCH   4  15
ATOM     15  C6  <0> d          -0.806   3.066   1.487  0.00  0.00     0.263 C 
ATOM     16  O3  <0> d          -0.567   4.059   0.841  0.00  0.00    -0.265 OA
BRANCH  15  17
ATOM     17  O4  <0> d          -0.779   3.116   2.829  0.00  0.00    -0.326 OA
BRANCH  17  18
ATOM     18  C7  <0> d          -0.455   4.395   3.434  0.00  0.00     0.013 C 
ATOM     19  H8  <0> d          -0.467   4.297   4.520  0.00  0.00     0.067 H 
ATOM     20  H9  <0> d           0.537   4.710   3.109  0.00  0.00     0.067 H 
ATOM     21  H10 <0> d          -1.190   5.139   3.128  0.00  0.00     0.067 H 
ENDBRANCH  17  18
ENDBRANCH  15  17
ENDBRANCH   4  15
TORSDOF 6
