REMARK  0 active torsions:
REMARK  status: ('A' for Active; 'I' for Inactive)
ROOT
ATOM      1  C1  <0> d          -0.013   1.076   0.008  0.00  0.00    -0.079 A 
ATOM      2  C2  <0> d           1.165   1.762   0.000  0.00  0.00    -0.072 A 
ATOM      3  C3  <0> d           1.147   3.164   0.008  0.00  0.00    -0.020 A 
ATOM      4  C4  <0> d           2.328   3.929   0.001  0.00  0.00    -0.055 A 
ATOM      5  C5  <0> d           2.227   5.287   0.010  0.00  0.00     0.003 A 
ATOM      6  N1  <0> d           1.052   5.901   0.025  0.00  0.00    -0.272 NA
ATOM      7  C6  <0> d          -0.089   5.252   0.032  0.00  0.00     0.015 A 
ATOM      8  C7  <0> d          -0.096   3.849   0.024  0.00  0.00     0.030 A 
ATOM      9  C8  <0> d          -1.290   3.108   0.031  0.00  0.00     0.128 A 
ATOM     10  C9  <0> d          -1.234   1.744   0.017  0.00  0.00    -0.045 A 
ATOM     11  F1  <0> d          -2.484   3.740   0.046  0.00  0.00    -0.205 F 
ATOM     12  H1  <0> d           0.002  -0.004   0.002  0.00  0.00     0.083 H 
ATOM     13  H2  <0> d           2.104   1.230  -0.012  0.00  0.00     0.084 H 
ATOM     14  H3  <0> d           3.296   3.449  -0.010  0.00  0.00     0.087 H 
ATOM     15  H4  <0> d           3.129   5.880   0.005  0.00  0.00     0.114 H 
ATOM     16  H5  <0> d          -1.021   5.798   0.043  0.00  0.00     0.116 H 
ATOM     17  H6  <0> d          -2.151   1.175   0.018  0.00  0.00     0.088 H 
ENDROOT
TORSDOF 0
