REMARK  6 active torsions:
REMARK  status: ('A' for Active; 'I' for Inactive)
REMARK    1  A    between atoms: C1_1  and  C2_2 
REMARK    2  A    between atoms: C3_4  and  C7_12 
REMARK    3  A    between atoms: N2_5  and  C4_7 
REMARK    4  A    between atoms: C4_7  and  C5_9 
REMARK    5  A    between atoms: C4_7  and  C6_10 
REMARK    6  A    between atoms: C6_10  and  O1_11 
ROOT
ATOM      1  C2  <0> d           0.997   0.044  -3.969  0.00  0.00     0.144 A 
ATOM      2  N1  <0> d           1.105   1.338  -4.270  0.00  0.00    -0.218 NA
ATOM      3  C3  <0> d           0.508   2.058  -3.355  0.00  0.00     0.121 A 
ATOM      4  N2  <0> d          -0.002   1.222  -2.434  0.00  0.00    -0.248 N 
ATOM      5  N3  <0> d           0.332  -0.077  -2.850  0.00  0.00    -0.155 NA
ENDROOT
BRANCH   4   6
ATOM      6  C4  <0> d          -0.753   1.593  -1.232  0.00  0.00     0.053 C 
ATOM      7  H1  <0> d          -0.845   2.678  -1.181  0.00  0.00     0.078 H 
BRANCH   6   8
ATOM      8  C5  <0> d          -2.147   0.964  -1.286  0.00  0.00    -0.053 C 
ATOM      9  H5  <0> d          -2.674   1.325  -2.169  0.00  0.00     0.030 H 
ATOM     10  H6  <0> d          -2.054  -0.121  -1.336  0.00  0.00     0.030 H 
ATOM     11  H7  <0> d          -2.705   1.240  -0.391  0.00  0.00     0.030 H 
ENDBRANCH   6   8
BRANCH   6  12
ATOM     12  C6  <0> d          -0.013   1.086   0.008  0.00  0.00     0.037 C 
ATOM     13  H8  <0> d           0.002  -0.004   0.002  0.00  0.00     0.077 H 
ATOM     14  H9  <0> d           1.010   1.463   0.000  0.00  0.00     0.077 H 
BRANCH  12  15
ATOM     15  O1  <0> d          -0.682   1.547   1.184  0.00  0.00    -0.399 OA
ATOM     16  H10 <0> d          -0.266   1.262   2.009  0.00  0.00     0.209 HD
ENDBRANCH  12  15
ENDBRANCH   6  12
ENDBRANCH   4   6
BRANCH   3  17
ATOM     17  C7  <0> d           0.410   3.561  -3.337  0.00  0.00    -0.020 C 
ATOM     18  H11 <0> d           1.263   3.975  -2.799  0.00  0.00     0.037 H 
ATOM     19  H12 <0> d           0.407   3.938  -4.359  0.00  0.00     0.037 H 
ATOM     20  H13 <0> d          -0.513   3.859  -2.838  0.00  0.00     0.037 H 
ENDBRANCH   3  17
BRANCH   1  21
ATOM     21  C1  <0> d           1.557  -1.094  -4.783  0.00  0.00    -0.018 C 
ATOM     22  H2  <0> d           2.570  -1.317  -4.447  0.00  0.00     0.038 H 
ATOM     23  H3  <0> d           0.929  -1.975  -4.655  0.00  0.00     0.038 H 
ATOM     24  H4  <0> d           1.577  -0.812  -5.835  0.00  0.00     0.038 H 
ENDBRANCH   1  21
TORSDOF 6
