REMARK  1 active torsions:
REMARK  status: ('A' for Active; 'I' for Inactive)
REMARK    1  A    between atoms: C7_10  and  N3_11 
ROOT
ATOM      1  C1  <0> d           3.316  -1.739  -0.038  0.00  0.00    -0.052 A 
ATOM      2  C2  <0> d           4.087  -0.583  -0.039  0.00  0.00    -0.043 A 
ATOM      3  C3  <0> d           3.497   0.649  -0.028  0.00  0.00     0.130 A 
ATOM      4  C4  <0> d           2.097   0.755  -0.014  0.00  0.00     0.052 A 
ATOM      5  C5  <0> d           1.202   1.852   0.001  0.00  0.00     0.037 A 
ATOM      6  N1  <0> d          -0.017   1.396   0.010  0.00  0.00    -0.186 NA
ATOM      7  N2  <0> d           0.002  -0.004   0.002  0.00  0.00    -0.275 N 
ATOM      8  H1  <0> d          -0.799  -0.602   0.006  0.00  0.00     0.189 HD
ATOM      9  C6  <0> d           1.312  -0.412  -0.013  0.00  0.00     0.091 A 
ATOM     10  C7  <0> d           1.936  -1.663  -0.025  0.00  0.00     0.055 A 
ATOM     11  F1  <0> d           4.259   1.764  -0.028  0.00  0.00    -0.205 F 
ATOM     12  H2  <0> d           3.799  -2.705  -0.047  0.00  0.00     0.087 H 
ATOM     13  H3  <0> d           5.164  -0.659  -0.050  0.00  0.00     0.088 H 
ATOM     14  H4  <0> d           1.484   2.894   0.003  0.00  0.00     0.118 H 
ENDROOT
BRANCH  10  15
ATOM     15  N3  <0> d           1.167  -2.833  -0.023  0.00  0.00    -0.397 N 
ATOM     16  H5  <0> d           0.199  -2.776  -0.014  0.00  0.00     0.156 HD
ATOM     17  H6  <0> d           1.603  -3.699  -0.032  0.00  0.00     0.156 HD
ENDBRANCH  10  15
TORSDOF 1
