REMARK  4 active torsions:
REMARK  status: ('A' for Active; 'I' for Inactive)
REMARK    1  A    between atoms: C1_1  and  C2_2 
REMARK    2  A    between atoms: C4_5  and  O4_14 
REMARK    3  A    between atoms: C5_7  and  O3_13 
REMARK    4  A    between atoms: C6_9  and  O2_12 
ROOT
ATOM      1  C2  <0> d           3.243   3.207  -1.341  0.00  0.00     0.040 C 
ATOM      2  H1  <0> d           2.682   3.518  -2.222  0.00  0.00     0.083 H 
ATOM      3  C3  <0> d           2.539   3.717  -0.081  0.00  0.00    -0.015 C 
ATOM      4  C4  <0> d           1.146   3.087   0.008  0.00  0.00     0.067 C 
ATOM      5  H2  <0> d           0.660   3.403   0.931  0.00  0.00     0.087 H 
ATOM      6  C5  <0> d           1.286   1.562  -0.002  0.00  0.00     0.107 C 
ATOM      7  H3  <0> d           1.842   1.242   0.880  0.00  0.00     0.094 H 
ATOM      8  C6  <0> d           2.038   1.134  -1.265  0.00  0.00     0.155 C 
ATOM      9  H4  <0> d           2.179   0.053  -1.256  0.00  0.00     0.133 H 
ATOM     10  O1  <0> d           3.313   1.780  -1.301  0.00  0.00    -0.354 OA
ATOM     11  H8  <0> d           2.446   4.802  -0.130  0.00  0.00     0.040 H 
ATOM     12  H9  <0> d           3.121   3.441   0.799  0.00  0.00     0.040 H 
ENDROOT
BRANCH   1  13
ATOM     13  C1  <0> d           4.658   3.785  -1.405  0.00  0.00    -0.052 C 
ATOM     14  H5  <0> d           5.218   3.473  -0.524  0.00  0.00     0.030 H 
ATOM     15  H6  <0> d           5.159   3.421  -2.302  0.00  0.00     0.030 H 
ATOM     16  H7  <0> d           4.604   4.873  -1.435  0.00  0.00     0.030 H 
ENDBRANCH   1  13
BRANCH   8  17
ATOM     17  O2  <0> d           1.282   1.507  -2.419  0.00  0.00    -0.369 OA
ATOM     18  H10 <0> d           1.700   1.267  -3.257  0.00  0.00     0.212 HD
ENDBRANCH   8  17
BRANCH   4  19
ATOM     19  O4  <0> d           0.362   3.502  -1.112  0.00  0.00    -0.393 OA
ATOM     20  H12 <0> d          -0.533   3.134  -1.124  0.00  0.00     0.210 HD
ENDBRANCH   4  19
BRANCH   6  21
ATOM     21  O3  <0> d          -0.011   0.963   0.007  0.00  0.00    -0.388 OA
ATOM     22  H11 <0> d           0.002  -0.004   0.002  0.00  0.00     0.210 HD
ENDBRANCH   6  21
TORSDOF 4
