REMARK  4 active torsions:
REMARK  status: ('A' for Active; 'I' for Inactive)
REMARK    1  A    between atoms: C1_1  and  C2_2 
REMARK    2  A    between atoms: C1_1  and  N1_5 
REMARK    3  A    between atoms: N1_5  and  C3_6 
REMARK    4  A    between atoms: C3_6  and  C4_7 
ROOT
ATOM      1  N1  <0> d           1.359   2.034   0.000  0.00  0.00     0.094 N 
ATOM      2  H4  <0> d           1.888   1.662   0.774  0.00  0.00     0.316 HD
ENDROOT
BRANCH   1   3
ATOM      3  C1  <0> d          -0.019   1.526   0.010  0.00  0.00     0.165 C 
ATOM      4  H1  <0> d          -0.546   1.887  -0.873  0.00  0.00     0.088 H 
ATOM      5  H2  <0> d          -0.529   1.877   0.907  0.00  0.00     0.088 H 
BRANCH   3   6
ATOM      6  C2  <0> d           0.002  -0.004   0.002  0.00  0.00     0.233 C 
ATOM      7  F1  <0> d           0.657  -0.455  -1.149  0.00  0.00    -0.213 F 
ATOM      8  F2  <0> d           0.679  -0.468   1.135  0.00  0.00    -0.213 F 
ATOM      9  H3  <0> d          -1.020  -0.381   0.010  0.00  0.00     0.147 H 
ENDBRANCH   3   6
ENDBRANCH   1   3
BRANCH   1  10
ATOM     10  C3  <0> d           1.379   3.503   0.008  0.00  0.00     0.165 C 
ATOM     11  H5  <0> d           0.861   3.878  -0.875  0.00  0.00     0.088 H 
ATOM     12  H6  <0> d           0.878   3.868   0.904  0.00  0.00     0.088 H 
BRANCH  10  13
ATOM     13  C4  <0> d           2.828   3.994  -0.004  0.00  0.00     0.233 C 
ATOM     14  F3  <0> d           3.492   3.513   1.130  0.00  0.00    -0.213 F 
ATOM     15  F4  <0> d           3.470   3.525  -1.155  0.00  0.00    -0.213 F 
ATOM     16  H7  <0> d           2.842   5.084   0.002  0.00  0.00     0.147 H 
ENDBRANCH  10  13
ENDBRANCH   1  10
TORSDOF 4
