REMARK  1 active torsions:
REMARK  status: ('A' for Active; 'I' for Inactive)
REMARK    1  A    between atoms: C5_6  and  C6_7 
ROOT
ATOM      1  C6  <0> d          -2.530   3.893   0.046  0.00  0.00     0.038 C 
ATOM      2  C7  <0> d          -2.965   4.148  -1.337  0.00  0.00     0.063 C 
ATOM      3  N2  <0> d          -3.302   4.345  -2.404  0.00  0.00    -0.197 NA
ATOM      4  H5  <0> d          -3.289   3.308   0.564  0.00  0.00     0.062 H 
ATOM      5  H6  <0> d          -2.387   4.842   0.563  0.00  0.00     0.062 H 
ENDROOT
BRANCH   1   6
ATOM      6  C5  <0> d          -1.231   3.129   0.030  0.00  0.00    -0.042 A 
ATOM      7  C1  <0> d          -1.223   1.742   0.017  0.00  0.00    -0.059 A 
ATOM      8  C2  <0> d          -0.013   1.076   0.008  0.00  0.00     0.002 A 
ATOM      9  H1  <0> d          -2.151   1.190   0.018  0.00  0.00     0.086 H 
ATOM     10  N1  <0> d           1.125   1.743   0.001  0.00  0.00    -0.273 NA
ATOM     11  H2  <0> d           0.002  -0.004   0.002  0.00  0.00     0.114 H 
ATOM     12  C3  <0> d           1.155   3.061   0.007  0.00  0.00     0.002 A 
ATOM     13  C4  <0> d          -0.015   3.796   0.022  0.00  0.00    -0.059 A 
ATOM     14  H3  <0> d           2.107   3.573   0.001  0.00  0.00     0.114 H 
ATOM     15  H4  <0> d           0.016   4.875   0.027  0.00  0.00     0.086 H 
ENDBRANCH   1   6
TORSDOF 1
