REMARK  0 active torsions:
REMARK  status: ('A' for Active; 'I' for Inactive)
ROOT
ATOM      1  C1  <0> d          -0.627   4.331   0.400  0.00  0.00    -0.062 C 
ATOM      2  C2  <0> d          -1.170   3.092   1.052  0.00  0.00    -0.053 C 
ATOM      3  C3  <0> d          -1.375   1.921   0.109  0.00  0.00     0.030 C 
ATOM      4  C4  <0> d          -1.921   2.209  -1.266  0.00  0.00    -0.053 C 
ATOM      5  C5  <0> d          -1.056   3.105  -2.110  0.00  0.00    -0.062 C 
ATOM      6  C6  <0> d           0.415   2.775  -2.188  0.00  0.00    -0.040 C 
ATOM      7  C7  <0> d           1.173   3.083  -0.910  0.00  0.00     0.048 C 
ATOM      8  C8  <0> d           0.763   4.334  -0.166  0.00  0.00    -0.040 C 
ATOM      9  O1  <0> d           1.068   1.910   0.002  0.00  0.00    -0.316 OA
ATOM     10  C9  <0> d          -0.014   1.180   0.009  0.00  0.00     0.263 C 
ATOM     11  O2  <0> d           0.002  -0.004   0.002  0.00  0.00    -0.265 OA
ATOM     12  H1  <0> d          -1.339   4.697  -0.337  0.00  0.00     0.033 H 
ATOM     13  H2  <0> d          -0.638   5.119   1.186  0.00  0.00     0.033 H 
ATOM     14  H3  <0> d          -2.131   3.328   1.524  0.00  0.00     0.034 H 
ATOM     15  H4  <0> d          -0.485   2.779   1.850  0.00  0.00     0.034 H 
ATOM     16  H5  <0> d          -2.062   1.225   0.603  0.00  0.00     0.055 H 
ATOM     17  H6  <0> d          -2.912   2.672  -1.165  0.00  0.00     0.034 H 
ATOM     18  H7  <0> d          -2.066   1.259  -1.797  0.00  0.00     0.034 H 
ATOM     19  H8  <0> d          -1.185   4.144  -1.841  0.00  0.00     0.033 H 
ATOM     20  H9  <0> d          -1.443   3.028  -3.146  0.00  0.00     0.033 H 
ATOM     21  H10 <0> d           0.862   3.349  -3.005  0.00  0.00     0.036 H 
ATOM     22  H11 <0> d           0.529   1.713  -2.418  0.00  0.00     0.036 H 
ATOM     23  H12 <0> d           2.224   3.183  -1.171  0.00  0.00     0.084 H 
ATOM     24  H13 <0> d           1.476   4.498   0.653  0.00  0.00     0.036 H 
ATOM     25  H14 <0> d           0.864   5.189  -0.848  0.00  0.00     0.036 H 
ENDROOT
TORSDOF 0
