REMARK  4 active torsions:
REMARK  status: ('A' for Active; 'I' for Inactive)
REMARK    1  A    between atoms: C1_1  and  S1_2 
REMARK    2  A    between atoms: S1_2  and  C2_3 
REMARK    3  A    between atoms: C5_6  and  C8_9 
REMARK    4  A    between atoms: C8_9  and  O1_10 
ROOT
ATOM      1  C2  <0> d          -2.013   2.464   3.525  0.00  0.00    -0.000 A 
ATOM      2  C3  <0> d          -2.368   1.248   2.953  0.00  0.00    -0.066 A 
ATOM      3  C4  <0> d          -1.720   0.806   1.817  0.00  0.00    -0.073 A 
ATOM      4  C5  <0> d          -0.718   1.572   1.248  0.00  0.00    -0.035 A 
ATOM      5  C6  <0> d          -0.358   2.780   1.817  0.00  0.00    -0.073 A 
ATOM      6  C7  <0> d          -1.006   3.230   2.951  0.00  0.00    -0.066 A 
ATOM      7  H4  <0> d          -3.150   0.650   3.396  0.00  0.00     0.085 H 
ATOM      8  H5  <0> d          -1.995  -0.138   1.371  0.00  0.00     0.084 H 
ATOM      9  H6  <0> d           0.427   3.373   1.373  0.00  0.00     0.084 H 
ATOM     10  H7  <0> d          -0.727   4.176   3.393  0.00  0.00     0.085 H 
ENDROOT
BRANCH   1  11
ATOM     11  S1  <0> d          -2.838   3.033   4.974  0.00  0.00    -0.134 SA
BRANCH  11  12
ATOM     12  C1  <0> d          -2.046   4.625   5.334  0.00  0.00    -0.030 C 
ATOM     13  H1  <0> d          -2.496   5.060   6.226  0.00  0.00     0.042 H 
ATOM     14  H2  <0> d          -0.981   4.470   5.502  0.00  0.00     0.042 H 
ATOM     15  H3  <0> d          -2.187   5.299   4.490  0.00  0.00     0.042 H 
ENDBRANCH  11  12
ENDBRANCH   1  11
BRANCH   4  16
ATOM     16  C8  <0> d          -0.013   1.086   0.008  0.00  0.00     0.040 C 
ATOM     17  H8  <0> d           0.002  -0.004   0.002  0.00  0.00     0.081 H 
ATOM     18  H9  <0> d           1.010   1.463   0.000  0.00  0.00     0.081 H 
BRANCH  16  19
ATOM     19  O1  <0> d          -0.704   1.559  -1.150  0.00  0.00    -0.396 OA
ATOM     20  H10 <0> d          -0.304   1.284  -1.986  0.00  0.00     0.209 HD
ENDBRANCH  16  19
ENDBRANCH   4  16
TORSDOF 4
