REMARK  0 active torsions:
REMARK  status: ('A' for Active; 'I' for Inactive)
ROOT
ATOM      1  C1  <0> d           0.002  -0.004   0.002  0.00  0.00    -0.037 C 
ATOM      2  C2  <0> d          -0.018   1.516   0.010  0.00  0.00    -0.106 C 
ATOM      3  C3  <0> d           1.039   2.267   0.004  0.00  0.00    -0.105 C 
ATOM      4  C4  <0> d           2.468   1.767  -0.095  0.00  0.00    -0.030 C 
ATOM      5  C5  <0> d           2.377   0.346  -0.593  0.00  0.00     0.027 C 
ATOM      6  H1  <0> d           2.002   0.314  -1.616  0.00  0.00     0.074 H 
ATOM      7  C6  <0> d           1.406  -0.393   0.369  0.00  0.00     0.046 C 
ATOM      8  H2  <0> d           1.638  -0.022   1.367  0.00  0.00     0.058 H 
ATOM      9  C7  <0> d           2.161  -1.611   0.106  0.00  0.00     0.224 C 
ATOM     10  O1  <0> d           1.973  -2.805   0.196  0.00  0.00    -0.273 OA
ATOM     11  N1  <0> d           3.182  -0.784  -0.287  0.00  0.00    -0.355 N 
ATOM     12  H3  <0> d          -0.701  -0.394   0.738  0.00  0.00     0.040 H 
ATOM     13  H4  <0> d          -0.247  -0.378  -0.991  0.00  0.00     0.040 H 
ATOM     14  H5  <0> d          -0.982   2.004   0.018  0.00  0.00     0.076 H 
ATOM     15  H6  <0> d           0.890   3.334   0.075  0.00  0.00     0.076 H 
ATOM     16  H7  <0> d           2.944   1.791   0.885  0.00  0.00     0.042 H 
ATOM     17  H8  <0> d           3.031   2.377  -0.802  0.00  0.00     0.042 H 
ATOM     18  H9  <0> d           4.140  -0.925  -0.340  0.00  0.00     0.162 HD
ENDROOT
TORSDOF 0
