REMARK  3 active torsions:
REMARK  status: ('A' for Active; 'I' for Inactive)
REMARK    1  A    between atoms: C1_1  and  C2_2 
REMARK    2  A    between atoms: C1_1  and  C4_9 
REMARK    3  A    between atoms: C3_4  and  N4_8 
ROOT
ATOM      1  C2  <0> d          -0.016   1.329   0.009  0.00  0.00     0.175 A 
ATOM      2  N1  <0> d           0.002  -0.004   0.002  0.00  0.00    -0.046 NA
ATOM      3  C3  <0> d           1.247  -0.431  -0.012  0.00  0.00     0.716 A 
ATOM      4  N2  <0> d           2.055   0.651  -0.014  0.00  0.00    -0.106 N 
ATOM      5  H1  <0> d           3.025   0.652  -0.024  0.00  0.00     0.208 HD
ATOM      6  N3  <0> d           1.212   1.774   0.000  0.00  0.00    -0.143 NA
ENDROOT
BRANCH   1   7
ATOM      7  C1  <0> d          -1.256   2.187   0.020  0.00  0.00     0.074 C 
ATOM      8  H2  <0> d          -1.051   3.128  -0.490  0.00  0.00     0.061 H 
ATOM      9  H3  <0> d          -2.063   1.664  -0.493  0.00  0.00     0.061 H 
BRANCH   7  10
ATOM     10  C4  <0> d          -1.662   2.465   1.444  0.00  0.00     0.180 C 
ATOM     11  O1  <0> d          -1.011   2.013   2.357  0.00  0.00    -0.648 OA
ATOM     12  O2  <0> d          -2.746   3.214   1.699  0.00  0.00    -0.648 OA
ENDBRANCH   7  10
ENDBRANCH   1   7
BRANCH   3  13
ATOM     13  N4  <0> d           1.655  -1.752  -0.023  0.00  0.00    -0.231 N 
ATOM     14  H4  <0> d           0.995  -2.463  -0.020  0.00  0.00     0.174 HD
ATOM     15  H5  <0> d           2.600  -1.968  -0.033  0.00  0.00     0.174 HD
ENDBRANCH   3  13
TORSDOF 3
