REMARK  2 active torsions:
REMARK  status: ('A' for Active; 'I' for Inactive)
REMARK    1  A    between atoms: C5_5  and  C7_7 
REMARK    2  A    between atoms: C7_7  and  C8_8 
REMARK       I    between atoms: C8_8  and  N1_10 
ROOT
ATOM      1  C1  <0> d          -4.094  -0.334  -1.173  0.00  0.00    -0.082 A 
ATOM      2  C2  <0> d          -4.540  -0.876   0.018  0.00  0.00    -0.080 A 
ATOM      3  C3  <0> d          -3.947  -0.506   1.211  0.00  0.00    -0.045 A 
ATOM      4  C4  <0> d          -2.907   0.407   1.212  0.00  0.00     0.123 A 
ATOM      5  C5  <0> d          -2.462   0.950   0.019  0.00  0.00    -0.011 A 
ATOM      6  C6  <0> d          -3.059   0.582  -1.172  0.00  0.00    -0.073 A 
ATOM      7  F1  <0> d          -2.328   0.770   2.378  0.00  0.00    -0.206 F 
ATOM      8  H1  <0> d          -4.557  -0.624  -2.104  0.00  0.00     0.083 H 
ATOM      9  H2  <0> d          -5.351  -1.589   0.017  0.00  0.00     0.083 H 
ATOM     10  H3  <0> d          -4.296  -0.930   2.141  0.00  0.00     0.088 H 
ATOM     11  H4  <0> d          -2.715   1.008  -2.103  0.00  0.00     0.084 H 
ENDROOT
BRANCH   5  12
ATOM     12  C7  <0> d          -1.330   1.944   0.019  0.00  0.00     0.036 C 
ATOM     13  H5  <0> d          -1.401   2.581  -0.875  0.00  0.00     0.054 H 
ATOM     14  H6  <0> d          -1.392   2.571   0.921  0.00  0.00     0.054 H 
BRANCH  12  15
ATOM     15  C8  <0> d          -0.014   1.209   0.009  0.00  0.00     0.219 C 
ATOM     16  O1  <0> d           0.002  -0.004   0.002  0.00  0.00    -0.273 OA
ATOM     17  N1  <0> d           1.143   1.898   0.001  0.00  0.00    -0.370 N 
ATOM     18  H7  <0> d           2.103   1.361  -0.006  0.00  0.00     0.159 HD
ATOM     19  H8  <0> d           1.129   2.998   0.003  0.00  0.00     0.159 HD
ENDBRANCH  12  15
ENDBRANCH   5  12
TORSDOF 2
