REMARK  0 active torsions:
REMARK  status: ('A' for Active; 'I' for Inactive)
ROOT
ATOM      1  C1  <0> d          -0.013   1.076   0.008  0.00  0.00     0.020 A 
ATOM      2  C2  <0> d          -1.123   1.851   0.017  0.00  0.00     0.003 A 
ATOM      3  N1  <0> d          -0.708   3.147   0.025  0.00  0.00    -0.312 N 
ATOM      4  C3  <0> d          -1.361   4.348   0.037  0.00  0.00     0.003 A 
ATOM      5  C4  <0> d          -0.652   5.496   0.035  0.00  0.00     0.019 A 
ATOM      6  N2  <0> d           0.684   5.486   0.023  0.00  0.00    -0.244 NA
ATOM      7  C5  <0> d           1.358   4.360   0.011  0.00  0.00     0.172 A 
ATOM      8  C6  <0> d           0.665   3.131   0.012  0.00  0.00     0.174 A 
ATOM      9  N3  <0> d           1.060   1.869   0.002  0.00  0.00    -0.238 NA
ATOM     10 Cl1  <0> d           3.094   4.383  -0.004  0.00  0.00    -0.058 Cl
ATOM     11  H1  <0> d           0.002  -0.004   0.002  0.00  0.00     0.117 H 
ATOM     12  H2  <0> d          -2.146   1.506   0.019  0.00  0.00     0.114 H 
ATOM     13  H3  <0> d          -2.440   4.378   0.048  0.00  0.00     0.114 H 
ATOM     14  H4  <0> d          -1.174   6.442   0.045  0.00  0.00     0.117 H 
ENDROOT
TORSDOF 0
