REMARK  3 active torsions:
REMARK  status: ('A' for Active; 'I' for Inactive)
REMARK    1  A    between atoms: C3_4  and  C5_7 
REMARK    2  A    between atoms: C5_7  and  C6_8 
REMARK    3  A    between atoms: C6_8  and  C7_9 
ROOT
ATOM      1  C1  <0> d           1.297   0.245   4.673  0.00  0.00     0.019 A 
ATOM      2  C2  <0> d           0.865  -0.651   3.710  0.00  0.00     0.019 A 
ATOM      3  N1  <0> d           0.222  -0.214   2.642  0.00  0.00    -0.263 NA
ATOM      4  C3  <0> d           0.000   1.080   2.488  0.00  0.00     0.052 A 
ATOM      5  C4  <0> d           0.432   1.975   3.450  0.00  0.00     0.025 A 
ATOM      6  N2  <0> d           1.070   1.538   4.521  0.00  0.00    -0.270 NA
ATOM      7  H1  <0> d           1.819  -0.113   5.548  0.00  0.00     0.117 H 
ATOM      8  H2  <0> d           1.050  -1.708   3.834  0.00  0.00     0.117 H 
ATOM      9  H3  <0> d           0.246   3.032   3.326  0.00  0.00     0.117 H 
ENDROOT
BRANCH   4  10
ATOM     10  C5  <0> d          -0.729   1.579   1.267  0.00  0.00    -0.014 C 
ATOM     11  H4  <0> d          -0.744   2.669   1.273  0.00  0.00     0.043 H 
ATOM     12  H5  <0> d          -1.751   1.202   1.275  0.00  0.00     0.043 H 
BRANCH  10  13
ATOM     13  C6  <0> d          -0.013   1.086   0.008  0.00  0.00     0.021 C 
ATOM     14  H6  <0> d           0.002  -0.004   0.002  0.00  0.00     0.049 H 
ATOM     15  H7  <0> d           1.010   1.463   0.000  0.00  0.00     0.049 H 
BRANCH  13  16
ATOM     16  C7  <0> d          -0.742   1.585  -1.213  0.00  0.00     0.172 C 
ATOM     17  O1  <0> d          -1.732   2.266  -1.089  0.00  0.00    -0.648 OA
ATOM     18  O2  <0> d          -0.290   1.274  -2.438  0.00  0.00    -0.648 OA
ENDBRANCH  13  16
ENDBRANCH  10  13
ENDBRANCH   4  10
TORSDOF 3
