REMARK  0 active torsions:
REMARK  status: ('A' for Active; 'I' for Inactive)
ROOT
ATOM      1  C1  <0> d          -0.017   1.398   0.010  0.00  0.00    -0.076 A 
ATOM      2  C2  <0> d           1.157   2.089   0.002  0.00  0.00    -0.035 A 
ATOM      3  C3  <0> d           2.371   1.380  -0.013  0.00  0.00     0.177 A 
ATOM      4  N1  <0> d           3.645   1.748  -0.024  0.00  0.00    -0.109 NA
ATOM      5  N2  <0> d           4.405   0.711  -0.037  0.00  0.00    -0.022 NA
ATOM      6  N3  <0> d           3.705  -0.372  -0.036  0.00  0.00    -0.038 NA
ATOM      7  N4  <0> d           2.357   0.012  -0.020  0.00  0.00    -0.183 N 
ATOM      8  C4  <0> d           1.181  -0.670  -0.013  0.00  0.00     0.131 A 
ATOM      9  C5  <0> d           0.002  -0.004   0.002  0.00  0.00    -0.043 A 
ATOM     10 Cl1  <0> d           1.190  -2.406  -0.023  0.00  0.00    -0.062 Cl
ATOM     11  H1  <0> d          -0.958   1.928   0.026  0.00  0.00     0.083 H 
ATOM     12  H2  <0> d           1.155   3.169   0.008  0.00  0.00     0.089 H 
ATOM     13  H3  <0> d          -0.927  -0.555   0.008  0.00  0.00     0.088 H 
ENDROOT
TORSDOF 0
