REMARK  1 active torsions:
REMARK  status: ('A' for Active; 'I' for Inactive)
REMARK    1  A    between atoms: N1_4  and  C5_6 
ROOT
ATOM      1  C1  <0> d          -0.688   3.194   0.024  0.00  0.00    -0.066 A 
ATOM      2  C2  <0> d          -1.116   1.852   0.017  0.00  0.00    -0.066 A 
ATOM      3  C3  <0> d          -0.013   1.076   0.008  0.00  0.00    -0.015 A 
ATOM      4  N1  <0> d           1.082   1.891   0.002  0.00  0.00    -0.332 N 
ATOM      5  C4  <0> d           0.661   3.189   0.012  0.00  0.00    -0.015 A 
ATOM      6  H1  <0> d          -1.324   4.067   0.035  0.00  0.00     0.085 H 
ATOM      7  H2  <0> d          -2.140   1.507   0.020  0.00  0.00     0.085 H 
ATOM      8  H3  <0> d           0.002  -0.004   0.002  0.00  0.00     0.112 H 
ATOM      9  H4  <0> d           1.298   4.061   0.010  0.00  0.00     0.112 H 
ENDROOT
BRANCH   4  10
ATOM     10  C5  <0> d           2.423   1.463  -0.012  0.00  0.00     0.045 A 
ATOM     11  C8  <0> d           2.727   0.138  -0.015  0.00  0.00    -0.019 A 
ATOM     12  S1  <0> d           4.512   0.168  -0.036  0.00  0.00    -0.111 SA
ATOM     13  H7  <0> d           2.061  -0.712  -0.008  0.00  0.00     0.098 H 
ATOM     14  C7  <0> d           4.737   1.938  -0.030  0.00  0.00    -0.043 A 
ATOM     15  C6  <0> d           3.458   2.386  -0.017  0.00  0.00    -0.050 A 
ATOM     16  H6  <0> d           5.655   2.507  -0.036  0.00  0.00     0.095 H 
ATOM     17  H5  <0> d           3.248   3.445  -0.011  0.00  0.00     0.087 H 
ENDBRANCH   4  10
TORSDOF 1
