REMARK  10 active torsions:
REMARK  status: ('A' for Active; 'I' for Inactive)
REMARK    1  A    between atoms: C1_1  and  C2_2 
REMARK    2  A    between atoms: C2_2  and  C3_3 
REMARK    3  A    between atoms: C3_3  and  C4_5 
REMARK    4  A    between atoms: C3_3  and  C5_6 
REMARK    5  A    between atoms: C5_6  and  C6_7 
REMARK    6  A    between atoms: C6_7  and  C7_8 
REMARK    7  A    between atoms: C7_8  and  C8_9 
REMARK    8  A    between atoms: C7_8  and  C9_10 
REMARK    9  A    between atoms: C7_8  and  O1_12 
REMARK   10  A    between atoms: C9_10  and  C10_11 
ROOT
ATOM      1  C6  <0> d          -0.866   3.543   1.217  0.00  0.00    -0.036 C 
ATOM      2  H12 <0> d           0.126   3.991   1.164  0.00  0.00     0.037 H 
ATOM      3  H13 <0> d          -1.441   3.828   0.337  0.00  0.00     0.037 H 
ENDROOT
BRANCH   1   4
ATOM      4  C5  <0> d          -1.582   4.036   2.476  0.00  0.00    -0.059 C 
ATOM      5  H10 <0> d          -2.574   3.588   2.529  0.00  0.00     0.033 H 
ATOM      6  H11 <0> d          -1.007   3.751   3.357  0.00  0.00     0.033 H 
BRANCH   4   7
ATOM      7  C3  <0> d          -1.713   5.560   2.424  0.00  0.00    -0.058 C 
ATOM      8  H1  <0> d          -2.211   5.850   1.499  0.00  0.00     0.039 H 
BRANCH   7   9
ATOM      9  C2  <0> d          -2.537   6.042   3.620  0.00  0.00    -0.065 C 
ATOM     10  H5  <0> d          -3.496   5.523   3.633  0.00  0.00     0.033 H 
ATOM     11  H6  <0> d          -1.997   5.830   4.543  0.00  0.00     0.033 H 
BRANCH   9  12
ATOM     12  C1  <0> d          -2.774   7.548   3.502  0.00  0.00    -0.076 C 
ATOM     13  H2  <0> d          -3.361   7.892   4.353  0.00  0.00     0.027 H 
ATOM     14  H3  <0> d          -1.815   8.067   3.489  0.00  0.00     0.027 H 
ATOM     15  H4  <0> d          -3.314   7.760   2.579  0.00  0.00     0.027 H 
ENDBRANCH   9  12
ENDBRANCH   7   9
BRANCH   7  16
ATOM     16  C4  <0> d          -0.321   6.193   2.476  0.00  0.00    -0.073 C 
ATOM     17  H7  <0> d           0.266   5.850   1.624  0.00  0.00     0.028 H 
ATOM     18  H8  <0> d          -0.415   7.279   2.439  0.00  0.00     0.028 H 
ATOM     19  H9  <0> d           0.176   5.903   3.401  0.00  0.00     0.028 H 
ENDBRANCH   7  16
ENDBRANCH   4   7
ENDBRANCH   1   4
BRANCH   1  20
ATOM     20  C7  <0> d          -0.735   2.019   1.269  0.00  0.00     0.054 C 
BRANCH  20  21
ATOM     21  C8  <0> d          -2.127   1.390   1.344  0.00  0.00    -0.048 C 
ATOM     22  H14 <0> d          -2.034   0.304   1.381  0.00  0.00     0.031 H 
ATOM     23  H15 <0> d          -2.638   1.741   2.240  0.00  0.00     0.031 H 
ATOM     24  H16 <0> d          -2.703   1.675   0.463  0.00  0.00     0.031 H 
ENDBRANCH  20  21
BRANCH  20  25
ATOM     25  C9  <0> d          -0.019   1.526   0.010  0.00  0.00    -0.040 C 
ATOM     26  H17 <0> d           1.004   1.903   0.003  0.00  0.00     0.036 H 
ATOM     27  H18 <0> d          -0.546   1.887  -0.873  0.00  0.00     0.036 H 
BRANCH  25  28
ATOM     28  C10 <0> d           0.002  -0.004   0.002  0.00  0.00    -0.074 C 
ATOM     29  H19 <0> d           0.512  -0.356  -0.895  0.00  0.00     0.027 H 
ATOM     30  H20 <0> d           0.529  -0.365   0.885  0.00  0.00     0.027 H 
ATOM     31  H21 <0> d          -1.020  -0.381   0.010  0.00  0.00     0.027 H 
ENDBRANCH  25  28
ENDBRANCH  20  25
BRANCH  20  32
ATOM     32  O1  <0> d           0.019   1.645   2.424  0.00  0.00    -0.390 OA
ATOM     33  H22 <0> d           0.915   2.009   2.444  0.00  0.00     0.210 HD
ENDBRANCH  20  32
ENDBRANCH   1  20
TORSDOF 10
