REMARK  7 active torsions:
REMARK  status: ('A' for Active; 'I' for Inactive)
REMARK    1  A    between atoms: C1_1  and  C2_2 
REMARK    2  A    between atoms: C2_2  and  C3_3 
REMARK    3  A    between atoms: C2_2  and  C4_4 
REMARK    4  A    between atoms: C4_4  and  C5_5 
REMARK    5  A    between atoms: C5_5  and  C6_6 
REMARK    6  A    between atoms: C5_5  and  C7_7 
REMARK    7  A    between atoms: C5_5  and  O1_9 
ROOT
ATOM      1  C7  <0> d          -0.630   0.157   0.266  0.00  0.00    -0.080 C 
ATOM      2  C8  <0> d          -0.562  -1.007   0.401  0.00  0.00    -0.151 C 
ATOM      3  H13 <0> d          -0.502  -2.048   0.521  0.00  0.00     0.166 H 
ENDROOT
BRANCH   1   4
ATOM      4  C5  <0> d          -0.715   1.617   0.097  0.00  0.00     0.117 C 
BRANCH   4   5
ATOM      5  C4  <0> d          -1.192   2.255   1.404  0.00  0.00    -0.023 C 
ATOM      6  H8  <0> d          -1.369   3.319   1.245  0.00  0.00     0.039 H 
ATOM      7  H9  <0> d          -2.116   1.776   1.726  0.00  0.00     0.039 H 
BRANCH   5   8
ATOM      8  C2  <0> d          -0.120   2.071   2.481  0.00  0.00    -0.058 C 
ATOM      9  H4  <0> d           0.837   2.433   2.106  0.00  0.00     0.039 H 
BRANCH   8  10
ATOM     10  C1  <0> d          -0.511   2.864   3.729  0.00  0.00    -0.073 C 
ATOM     11  H1  <0> d          -1.469   2.503   4.104  0.00  0.00     0.028 H 
ATOM     12  H2  <0> d           0.252   2.733   4.497  0.00  0.00     0.028 H 
ATOM     13  H3  <0> d          -0.595   3.921   3.477  0.00  0.00     0.028 H 
ENDBRANCH   8  10
BRANCH   8  14
ATOM     14  C3  <0> d          -0.003   0.588   2.835  0.00  0.00    -0.073 C 
ATOM     15  H5  <0> d          -0.998   0.169   2.983  0.00  0.00     0.028 H 
ATOM     16  H6  <0> d           0.497   0.059   2.023  0.00  0.00     0.028 H 
ATOM     17  H7  <0> d           0.578   0.478   3.751  0.00  0.00     0.028 H 
ENDBRANCH   8  14
ENDBRANCH   5   8
ENDBRANCH   4   5
BRANCH   4  18
ATOM     18  C6  <0> d           0.664   2.170  -0.268  0.00  0.00    -0.037 C 
ATOM     19  H10 <0> d           0.626   3.259  -0.286  0.00  0.00     0.033 H 
ATOM     20  H11 <0> d           1.393   1.844   0.474  0.00  0.00     0.033 H 
ATOM     21  H12 <0> d           0.956   1.800  -1.250  0.00  0.00     0.033 H 
ENDBRANCH   4  18
BRANCH   4  22
ATOM     22  O1  <0> d          -1.642   1.922  -0.947  0.00  0.00    -0.378 OA
ATOM     23  H14 <0> d          -2.539   1.601  -0.783  0.00  0.00     0.211 HD
ENDBRANCH   4  22
ENDBRANCH   1   4
TORSDOF 7
