REMARK  1 active torsions:
REMARK  status: ('A' for Active; 'I' for Inactive)
REMARK    1  A    between atoms: C5_7  and  O1_9 
ROOT
ATOM      1  C1  <0> d           1.335   3.228  -2.116  0.00  0.00    -0.058 A 
ATOM      2  C2  <0> d          -0.022   3.057  -1.429  0.00  0.00    -0.048 A 
ATOM      3  H1  <0> d          -0.718   3.895  -1.408  0.00  0.00     0.040 H 
ATOM      4  C3  <0> d           1.272   3.070  -0.596  0.00  0.00    -0.048 A 
ATOM      5  H2  <0> d           1.543   3.913   0.040  0.00  0.00     0.040 H 
ATOM      6  C4  <0> d           1.428   1.654  -0.003  0.00  0.00    -0.037 C 
ATOM      7  C5  <0> d          -0.013   1.086   0.008  0.00  0.00     0.036 C 
ATOM      8  C6  <0> d          -0.606   1.634  -1.313  0.00  0.00    -0.037 C 
ATOM      9  H3  <0> d           1.578   4.215  -2.510  0.00  0.00     0.034 H 
ATOM     10  H4  <0> d           1.715   2.385  -2.694  0.00  0.00     0.034 H 
ATOM     11  H5  <0> d           1.825   1.707   1.011  0.00  0.00     0.037 H 
ATOM     12  H6  <0> d           2.074   1.045  -0.635  0.00  0.00     0.037 H 
ATOM     13  H7  <0> d           0.002  -0.004   0.002  0.00  0.00     0.082 H 
ATOM     14  H8  <0> d          -0.289   1.021  -2.157  0.00  0.00     0.037 H 
ATOM     15  H9  <0> d          -1.694   1.672  -1.256  0.00  0.00     0.037 H 
ENDROOT
BRANCH   7  16
ATOM     16  O1  <0> d          -0.742   1.574   1.136  0.00  0.00    -0.396 OA
ATOM     17  H10 <0> d          -1.662   1.278   1.168  0.00  0.00     0.210 HD
ENDBRANCH   7  16
TORSDOF 1
