REMARK  5 active torsions:
REMARK  status: ('A' for Active; 'I' for Inactive)
REMARK    1  A    between atoms: C2_2  and  C4_7 
REMARK    2  A    between atoms: C4_7  and  C5_8 
REMARK    3  A    between atoms: C5_8  and  C6_9 
REMARK    4  A    between atoms: C6_9  and  C7_10 
REMARK    5  A    between atoms: C7_10  and  O3_11 
ROOT
ATOM      1  C4  <0> d          -0.037   1.099  -2.490  0.00  0.00    -0.039 C 
ATOM      2  H6  <0> d           0.986   1.476  -2.498  0.00  0.00     0.036 H 
ATOM      3  H7  <0> d          -0.022   0.009  -2.496  0.00  0.00     0.036 H 
ENDROOT
BRANCH   1   4
ATOM      4  C2  <0> d          -0.777   1.606  -3.730  0.00  0.00     0.061 C 
ATOM      5  C1  <0> d          -0.003   1.226  -5.008  0.00  0.00     0.046 C 
ATOM      6  O2  <0> d          -0.907   0.383  -5.753  0.00  0.00    -0.364 OA
ATOM      7  H2  <0> d           0.241   2.120  -5.583  0.00  0.00     0.078 H 
ATOM      8  H3  <0> d           0.905   0.680  -4.754  0.00  0.00     0.078 H 
ATOM      9  C3  <0> d          -2.221   0.747  -5.278  0.00  0.00     0.103 C 
ATOM     10  O1  <0> d          -2.053   0.946  -3.857  0.00  0.00    -0.360 OA
ATOM     11  H4  <0> d          -2.554   1.669  -5.753  0.00  0.00     0.117 H 
ATOM     12  H5  <0> d          -2.930  -0.058  -5.468  0.00  0.00     0.117 H 
ATOM     13  H1  <0> d          -0.911   2.686  -3.675  0.00  0.00     0.086 H 
ENDBRANCH   1   4
BRANCH   1  14
ATOM     14  C5  <0> d          -0.753   1.593  -1.232  0.00  0.00    -0.061 C 
ATOM     15  H8  <0> d          -1.775   1.215  -1.224  0.00  0.00     0.033 H 
ATOM     16  H9  <0> d          -0.767   2.683  -1.226  0.00  0.00     0.033 H 
BRANCH  14  17
ATOM     17  C6  <0> d          -0.013   1.086   0.008  0.00  0.00    -0.045 C 
ATOM     18  H10 <0> d           0.002  -0.004   0.002  0.00  0.00     0.036 H 
ATOM     19  H11 <0> d           1.010   1.463   0.000  0.00  0.00     0.036 H 
BRANCH  17  20
ATOM     20  C7  <0> d          -0.729   1.579   1.267  0.00  0.00     0.017 C 
ATOM     21  H12 <0> d          -0.744   2.669   1.273  0.00  0.00     0.073 H 
ATOM     22  H13 <0> d          -1.751   1.202   1.275  0.00  0.00     0.073 H 
BRANCH  20  23
ATOM     23  O3  <0> d          -0.038   1.106   2.425  0.00  0.00    -0.401 OA
ATOM     24  H14 <0> d          -0.437   1.381   3.261  0.00  0.00     0.209 HD
ENDBRANCH  20  23
ENDBRANCH  17  20
ENDBRANCH  14  17
ENDBRANCH   1  14
TORSDOF 5
