REMARK  4 active torsions:
REMARK  status: ('A' for Active; 'I' for Inactive)
REMARK    1  A    between atoms: C1_1  and  N1_2 
REMARK    2  A    between atoms: N1_2  and  C2_3 
REMARK    3  A    between atoms: C5_6  and  N2_9 
REMARK    4  A    between atoms: N2_9  and  C8_10 
ROOT
ATOM      1  C2  <0> d          -1.233   1.649   0.017  0.00  0.00     0.027 A 
ATOM      2  C3  <0> d          -1.252   3.038   0.030  0.00  0.00    -0.055 A 
ATOM      3  C4  <0> d          -2.457   3.712   0.035  0.00  0.00    -0.055 A 
ATOM      4  C5  <0> d          -3.650   3.001   0.036  0.00  0.00     0.027 A 
ATOM      5  C6  <0> d          -3.631   1.613   0.028  0.00  0.00    -0.055 A 
ATOM      6  C7  <0> d          -2.426   0.939   0.019  0.00  0.00    -0.055 A 
ATOM      7  H5  <0> d          -0.324   3.590   0.033  0.00  0.00     0.087 H 
ATOM      8  H6  <0> d          -2.471   4.792   0.041  0.00  0.00     0.087 H 
ATOM      9  H7  <0> d          -4.559   1.060   0.029  0.00  0.00     0.087 H 
ATOM     10  H8  <0> d          -2.411  -0.141   0.012  0.00  0.00     0.087 H 
ENDROOT
BRANCH   1  11
ATOM     11  N1  <0> d          -0.011   0.966   0.007  0.00  0.00    -0.394 N 
ATOM     12  H4  <0> d           0.002  -0.004   0.002  0.00  0.00     0.159 HD
BRANCH  11  13
ATOM     13  C1  <0> d           1.248   1.716  -0.001  0.00  0.00    -0.021 C 
ATOM     14  H1  <0> d           1.305   2.338   0.892  0.00  0.00     0.056 H 
ATOM     15  H2  <0> d           2.086   1.019  -0.012  0.00  0.00     0.056 H 
ATOM     16  H3  <0> d           1.288   2.348  -0.888  0.00  0.00     0.056 H 
ENDBRANCH  11  13
ENDBRANCH   1  11
BRANCH   4  17
ATOM     17  N2  <0> d          -4.872   3.685   0.045  0.00  0.00    -0.394 N 
ATOM     18  H9  <0> d          -5.705   3.188   0.045  0.00  0.00     0.159 HD
BRANCH  17  19
ATOM     19  C8  <0> d          -4.892   5.150   0.053  0.00  0.00    -0.021 C 
ATOM     20  H10 <0> d          -5.924   5.499   0.059  0.00  0.00     0.056 H 
ATOM     21  H11 <0> d          -4.379   5.515   0.943  0.00  0.00     0.056 H 
ATOM     22  H12 <0> d          -4.386   5.525  -0.837  0.00  0.00     0.056 H 
ENDBRANCH  17  19
ENDBRANCH   4  17
TORSDOF 4
