REMARK  3 active torsions:
REMARK  status: ('A' for Active; 'I' for Inactive)
REMARK    1  A    between atoms: C2_2  and  N4_9 
REMARK    2  A    between atoms: C4_5  and  N3_8 
REMARK    3  A    between atoms: C5_6  and  N2_7 
ROOT
ATOM      1  C1  <0> d           2.382   1.367  -0.014  0.00  0.00    -0.027 A 
ATOM      2  C2  <0> d           1.164   2.044   0.002  0.00  0.00     0.045 A 
ATOM      3  C3  <0> d          -0.016   1.317   0.009  0.00  0.00     0.030 A 
ATOM      4  N1  <0> d           0.002  -0.004   0.002  0.00  0.00    -0.239 NA
ATOM      5  C4  <0> d           1.135  -0.684  -0.012  0.00  0.00     0.147 A 
ATOM      6  C5  <0> d           2.365  -0.021  -0.021  0.00  0.00     0.074 A 
ATOM      7  H1  <0> d           3.316   1.908  -0.020  0.00  0.00     0.090 H 
ATOM      8  H2  <0> d          -0.962   1.837   0.017  0.00  0.00     0.118 H 
ENDROOT
BRANCH   2   9
ATOM      9  N4  <0> d           1.132   3.444   0.009  0.00  0.00    -0.398 N 
ATOM     10  H7  <0> d           0.168   3.973   0.022  0.00  0.00     0.156 HD
ATOM     11  H8  <0> d           2.072   4.016   0.003  0.00  0.00     0.156 HD
ENDBRANCH   2   9
BRANCH   6  12
ATOM     12  N2  <0> d           3.562  -0.746  -0.037  0.00  0.00    -0.396 N 
ATOM     13  H3  <0> d           3.539  -1.846  -0.043  0.00  0.00     0.156 HD
ATOM     14  H4  <0> d           4.526  -0.215  -0.044  0.00  0.00     0.156 HD
ENDBRANCH   6  12
BRANCH   5  15
ATOM     15  N3  <0> d           1.103  -2.080  -0.020  0.00  0.00    -0.382 N 
ATOM     16  H5  <0> d           2.042  -2.652  -0.032  0.00  0.00     0.157 HD
ATOM     17  H6  <0> d           0.138  -2.608  -0.013  0.00  0.00     0.157 HD
ENDBRANCH   5  15
TORSDOF 3
