REMARK  1 active torsions:
REMARK  status: ('A' for Active; 'I' for Inactive)
REMARK    1  A    between atoms: C5_6  and  C6_7 
ROOT
ATOM      1  C1  <0> d          -1.192   3.441   0.032  0.00  0.00    -0.046 A 
ATOM      2  C2  <0> d           0.034   4.076   0.024  0.00  0.00     0.003 A 
ATOM      3  N1  <0> d           1.156   3.384   0.010  0.00  0.00    -0.270 NA
ATOM      4  C3  <0> d           1.167   2.067   0.002  0.00  0.00     0.040 A 
ATOM      5  C4  <0> d          -0.016   1.347   0.009  0.00  0.00     0.150 A 
ATOM      6  C5  <0> d          -1.233   2.042   0.019  0.00  0.00     0.082 A 
ATOM      7  F1  <0> d           0.002  -0.004   0.002  0.00  0.00    -0.203 F 
ATOM      8  H1  <0> d          -2.107   4.015   0.043  0.00  0.00     0.087 H 
ATOM      9  H2  <0> d           0.074   5.155   0.030  0.00  0.00     0.114 H 
ATOM     10  H3  <0> d           2.110   1.541  -0.010  0.00  0.00     0.119 H 
ENDROOT
BRANCH   6  11
ATOM     11  C6  <0> d          -2.522   1.319   0.021  0.00  0.00     0.212 C 
ATOM     12  O1  <0> d          -2.538   0.104   0.014  0.00  0.00    -0.644 OA
ATOM     13  O2  <0> d          -3.680   2.007   0.030  0.00  0.00    -0.644 OA
ENDBRANCH   6  11
TORSDOF 1
