REMARK  3 active torsions:
REMARK  status: ('A' for Active; 'I' for Inactive)
REMARK    1  A    between atoms: C1_1  and  C2_2 
REMARK    2  A    between atoms: C5_5  and  N1_9 
REMARK    3  A    between atoms: C6_6  and  C8_8 
ROOT
ATOM      1  C2  <0> d           0.002  -0.004   0.002  0.00  0.00    -0.061 A 
ATOM      2  C3  <0> d           0.006  -0.687  -1.200  0.00  0.00    -0.075 A 
ATOM      3  C4  <0> d           0.024  -2.068  -1.212  0.00  0.00    -0.057 A 
ATOM      4  C5  <0> d           0.040  -2.771  -0.013  0.00  0.00     0.031 A 
ATOM      5  C6  <0> d           0.036  -2.081   1.192  0.00  0.00    -0.035 A 
ATOM      6  C7  <0> d           0.023  -0.700   1.196  0.00  0.00    -0.069 A 
ATOM      7  H4  <0> d          -0.006  -0.141  -2.132  0.00  0.00     0.084 H 
ATOM      8  H5  <0> d           0.027  -2.601  -2.151  0.00  0.00     0.086 H 
ATOM      9  H6  <0> d           0.024  -0.163   2.134  0.00  0.00     0.085 H 
ENDROOT
BRANCH   1  10
ATOM     10  C1  <0> d          -0.018   1.503   0.010  0.00  0.00    -0.051 C 
ATOM     11  H1  <0> d           1.004   1.880   0.003  0.00  0.00     0.033 H 
ATOM     12  H2  <0> d          -0.545   1.864  -0.873  0.00  0.00     0.033 H 
ATOM     13  H3  <0> d          -0.529   1.854   0.907  0.00  0.00     0.033 H 
ENDBRANCH   1  10
BRANCH   5  14
ATOM     14  C8  <0> d           0.052  -2.839   2.495  0.00  0.00    -0.049 C 
ATOM     15  H7  <0> d           1.083  -3.009   2.804  0.00  0.00     0.033 H 
ATOM     16  H8  <0> d          -0.466  -2.260   3.259  0.00  0.00     0.033 H 
ATOM     17  H9  <0> d          -0.450  -3.798   2.364  0.00  0.00     0.033 H 
ENDBRANCH   5  14
BRANCH   4  18
ATOM     18  N1  <0> d           0.058  -4.167  -0.021  0.00  0.00    -0.399 N 
ATOM     19  H10 <0> d           0.060  -4.648  -0.864  0.00  0.00     0.156 HD
ATOM     20  H11 <0> d           0.069  -4.657   0.816  0.00  0.00     0.156 HD
ENDBRANCH   4  18
TORSDOF 3
