REMARK  0 active torsions:
REMARK  status: ('A' for Active; 'I' for Inactive)
ROOT
ATOM      1  C1  <0> d          -1.353   3.039   0.030  0.00  0.00     0.023 C 
ATOM      2  C2  <0> d          -0.943   1.992   1.082  0.00  0.00     0.105 C 
ATOM      3  H1  <0> d          -0.410   2.414   1.934  0.00  0.00     0.072 H 
ATOM      4  C3  <0> d          -0.017   1.395   0.010  0.00  0.00     0.324 C 
ATOM      5  C4  <0> d          -0.963   2.004  -1.038  0.00  0.00     0.310 C 
ATOM      6  F1  <0> d          -0.300   2.557  -2.139  0.00  0.00    -0.200 F 
ATOM      7  F2  <0> d          -2.012   1.155  -1.407  0.00  0.00    -0.200 F 
ATOM      8  F3  <0> d           0.002  -0.004   0.002  0.00  0.00    -0.198 F 
ATOM      9  F4  <0> d           1.265   1.956   0.001  0.00  0.00    -0.198 F 
ATOM     10  C5  <0> d          -2.040   1.095   1.480  0.00  0.00     0.070 C 
ATOM     11  N1  <0> d          -2.887   0.403   1.787  0.00  0.00    -0.197 NA
ATOM     12  H2  <0> d          -0.720   3.926   0.029  0.00  0.00     0.044 H 
ATOM     13  H3  <0> d          -2.416   3.278   0.040  0.00  0.00     0.044 H 
ENDROOT
TORSDOF 0
