REMARK  5 active torsions:
REMARK  status: ('A' for Active; 'I' for Inactive)
REMARK    1  A    between atoms: C1_1  and  C2_2 
REMARK    2  A    between atoms: C2_2  and  C3_3 
REMARK    3  A    between atoms: C3_3  and  C4_5 
REMARK    4  A    between atoms: C3_3  and  C5_6 
REMARK    5  A    between atoms: C6_9  and  N3_11 
ROOT
ATOM      1  C3  <0> d           0.002  -0.004   0.002  0.00  0.00     0.008 C 
ATOM      2  H1  <0> d           0.581  -0.366  -0.861  0.00  0.00     0.052 H 
ENDROOT
BRANCH   1   3
ATOM      3  C2  <0> d          -0.019   1.526   0.010  0.00  0.00    -0.058 C 
ATOM      4  H5  <0> d          -0.534   1.881   0.915  0.00  0.00     0.033 H 
ATOM      5  H6  <0> d          -0.551   1.890  -0.881  0.00  0.00     0.033 H 
BRANCH   3   6
ATOM      6  C1  <0> d           1.417   2.055  -0.000  0.00  0.00    -0.076 C 
ATOM      7  H2  <0> d           1.402   3.155   0.006  0.00  0.00     0.027 H 
ATOM      8  H3  <0> d           1.932   1.700  -0.905  0.00  0.00     0.027 H 
ATOM      9  H4  <0> d           1.949   1.691   0.891  0.00  0.00     0.027 H 
ENDBRANCH   3   6
ENDBRANCH   1   3
BRANCH   1  10
ATOM     10  C4  <0> d           0.631  -0.513   1.301  0.00  0.00    -0.066 C 
ATOM     11  H7  <0> d           0.646  -1.613   1.295  0.00  0.00     0.028 H 
ATOM     12  H8  <0> d           0.039  -0.159   2.158  0.00  0.00     0.028 H 
ATOM     13  H9  <0> d           1.660  -0.132   1.383  0.00  0.00     0.028 H 
ENDBRANCH   1  10
BRANCH   1  14
ATOM     14  C5  <0> d          -1.407  -0.525  -0.111  0.00  0.00     0.174 A 
ATOM     15  O1  <0> d          -1.891  -1.304  -1.098  0.00  0.00    -0.260 OA
ATOM     16  C6  <0> d          -3.185  -1.529  -0.802  0.00  0.00     0.265 A 
ATOM     17  N2  <0> d          -3.442  -0.901   0.319  0.00  0.00    -0.103 NA
ATOM     18  N1  <0> d          -2.376  -0.309   0.729  0.00  0.00    -0.125 NA
BRANCH  16  19
ATOM     19  N3  <0> d          -4.077  -2.282  -1.544  0.00  0.00    -0.362 N 
ATOM     20  H10 <0> d          -3.747  -2.766  -2.475  0.00  0.00     0.159 HD
ATOM     21  H11 <0> d          -5.116  -2.397  -1.203  0.00  0.00     0.159 HD
ENDBRANCH  16  19
ENDBRANCH   1  14
TORSDOF 5
