REMARK  1 active torsions:
REMARK  status: ('A' for Active; 'I' for Inactive)
REMARK    1  A    between atoms: C4_6  and  N1_8 
ROOT
ATOM      1  C1  <0> d          -0.019   1.543   0.011  0.00  0.00    -0.007 C 
ATOM      2  C2  <0> d           1.488   1.897  -0.002  0.00  0.00     0.031 C 
ATOM      3  O1  <0> d           2.126   0.713   0.523  0.00  0.00    -0.320 OA
ATOM      4  C3  <0> d           1.484  -0.344  -0.030  0.00  0.00     0.292 C 
ATOM      5  O2  <0> d           1.988  -1.354  -0.463  0.00  0.00    -0.263 OA
ATOM      6  C4  <0> d           0.002  -0.004   0.002  0.00  0.00     0.214 C 
ATOM      7  H1  <0> d          -0.499  -0.389  -0.886  0.00  0.00     0.104 H 
ATOM      8  H2  <0> d          -0.498   1.919   0.915  0.00  0.00     0.040 H 
ATOM      9  H3  <0> d          -0.515   1.929  -0.880  0.00  0.00     0.040 H 
ATOM     10  H4  <0> d           1.826   2.095  -1.019  0.00  0.00     0.075 H 
ATOM     11  H5  <0> d           1.685   2.755   0.641  0.00  0.00     0.075 H 
ENDROOT
BRANCH   6  12
ATOM     12  N1  <0> d          -0.623  -0.536   1.220  0.00  0.00     0.092 N 
ATOM     13  H6  <0> d          -0.613  -1.544   1.222  0.00  0.00     0.313 HD
ATOM     14  H7  <0> d          -0.175  -0.169   2.046  0.00  0.00     0.313 HD
ENDBRANCH   6  12
TORSDOF 1
