REMARK  2 active torsions:
REMARK  status: ('A' for Active; 'I' for Inactive)
REMARK    1  A    between atoms: C1_1  and  C2_2 
REMARK    2  A    between atoms: C3_4  and  C6_10 
ROOT
ATOM      1  C2  <0> d          -0.729   1.579   1.267  0.00  0.00     0.042 C 
ATOM      2  H1  <0> d          -1.758   1.220   1.283  0.00  0.00     0.056 H 
ATOM      3  C3  <0> d           0.024   1.113   2.533  0.00  0.00     0.063 C 
ATOM      4  H2  <0> d           0.914   0.544   2.264  0.00  0.00     0.061 H 
ATOM      5  C4  <0> d           0.413   2.442   3.215  0.00  0.00     0.042 C 
ATOM      6  O1  <0> d          -0.456   3.447   2.612  0.00  0.00    -0.320 OA
ATOM      7  C5  <0> d          -0.696   3.092   1.334  0.00  0.00     0.263 C 
ATOM      8  O2  <0> d          -0.856   3.847   0.404  0.00  0.00    -0.265 OA
ATOM      9  H6  <0> d           0.234   2.383   4.289  0.00  0.00     0.076 H 
ATOM     10  H7  <0> d           1.459   2.677   3.019  0.00  0.00     0.076 H 
ENDROOT
BRANCH   1  11
ATOM     11  C1  <0> d          -0.013   1.086   0.008  0.00  0.00    -0.063 C 
ATOM     12  H3  <0> d           0.002  -0.004   0.002  0.00  0.00     0.028 H 
ATOM     13  H4  <0> d           1.010   1.463   0.000  0.00  0.00     0.028 H 
ATOM     14  H5  <0> d          -0.540   1.447  -0.875  0.00  0.00     0.028 H 
ENDBRANCH   1  11
BRANCH   3  15
ATOM     15  C6  <0> d          -0.880   0.298   3.421  0.00  0.00     0.180 C 
ATOM     16  O3  <0> d          -2.025   0.095   3.093  0.00  0.00    -0.648 OA
ATOM     17  O4  <0> d          -0.413  -0.202   4.576  0.00  0.00    -0.648 OA
ENDBRANCH   3  15
TORSDOF 2
