REMARK  7 active torsions:
REMARK  status: ('A' for Active; 'I' for Inactive)
REMARK    1  A    between atoms: C1_1  and  C2_2 
REMARK    2  A    between atoms: C1_1  and  C5_8 
REMARK    3  A    between atoms: C2_2  and  C3_3 
REMARK    4  A    between atoms: C3_3  and  C4_5 
REMARK    5  A    between atoms: C3_3  and  O2_7 
REMARK    6  A    between atoms: C4_5  and  O1_6 
REMARK    7  A    between atoms: C5_8  and  O3_9 
ROOT
ATOM      1  C2  <0> d           0.079   1.179   2.503  0.00  0.00    -0.037 C 
ATOM      2  H4  <0> d           0.097   0.092   2.589  0.00  0.00     0.036 H 
ATOM      3  H5  <0> d           1.098   1.553   2.408  0.00  0.00     0.036 H 
ENDROOT
BRANCH   1   4
ATOM      4  C1  <0> d          -0.570   1.778   3.752  0.00  0.00    -0.043 C 
ATOM      5  H2  <0> d          -0.588   2.864   3.667  0.00  0.00     0.036 H 
ATOM      6  H3  <0> d          -1.590   1.404   3.847  0.00  0.00     0.036 H 
BRANCH   4   7
ATOM      7  C5  <0> d           0.237   1.377   4.989  0.00  0.00     0.017 C 
ATOM      8  H10 <0> d           0.255   0.291   5.074  0.00  0.00     0.073 H 
ATOM      9  H11 <0> d           1.257   1.751   4.894  0.00  0.00     0.073 H 
BRANCH   7  10
ATOM     10  O3  <0> d          -0.369   1.937   6.155  0.00  0.00    -0.401 OA
ATOM     11  H12 <0> d           0.091   1.724   6.979  0.00  0.00     0.209 HD
ENDBRANCH   7  10
ENDBRANCH   4   7
ENDBRANCH   1   4
BRANCH   1  12
ATOM     12  C3  <0> d          -0.729   1.579   1.267  0.00  0.00     0.056 C 
ATOM     13  H1  <0> d          -0.822   2.665   1.230  0.00  0.00     0.086 H 
BRANCH  12  14
ATOM     14  C4  <0> d          -0.013   1.086   0.008  0.00  0.00     0.040 C 
ATOM     15  H6  <0> d           0.002  -0.004   0.002  0.00  0.00     0.077 H 
ATOM     16  H7  <0> d           1.010   1.463   0.000  0.00  0.00     0.077 H 
BRANCH  14  17
ATOM     17  O1  <0> d          -0.704   1.559  -1.150  0.00  0.00    -0.398 OA
ATOM     18  H8  <0> d          -0.304   1.284  -1.986  0.00  0.00     0.209 HD
ENDBRANCH  14  17
ENDBRANCH  12  14
BRANCH  12  19
ATOM     19  O2  <0> d          -2.030   0.991   1.336  0.00  0.00    -0.393 OA
ATOM     20  H9  <0> d          -2.023   0.025   1.372  0.00  0.00     0.210 HD
ENDBRANCH  12  19
ENDBRANCH   1  12
TORSDOF 7
