REMARK  0 active torsions:
REMARK  status: ('A' for Active; 'I' for Inactive)
ROOT
ATOM      1  C1  <0> d          -2.387  -0.043   0.026  0.00  0.00    -0.082 A 
ATOM      2  C2  <0> d          -2.417   1.340   0.033  0.00  0.00    -0.082 A 
ATOM      3  C3  <0> d          -1.242   2.062   0.030  0.00  0.00    -0.067 A 
ATOM      4  C4  <0> d          -0.017   1.393   0.010  0.00  0.00     0.048 A 
ATOM      5  C5  <0> d           0.002  -0.004   0.002  0.00  0.00    -0.018 A 
ATOM      6  C6  <0> d          -1.176  -0.714   0.010  0.00  0.00    -0.074 A 
ATOM      7  C7  <0> d           1.455  -0.408  -0.014  0.00  0.00     0.054 A 
ATOM      8  O1  <0> d           2.224   0.825  -0.015  0.00  0.00    -0.313 OA
ATOM      9  C8  <0> d           1.379   1.869  -0.001  0.00  0.00     0.294 A 
ATOM     10  O2  <0> d           1.715   3.036   0.002  0.00  0.00    -0.259 OA
ATOM     11  H1  <0> d          -3.312  -0.602   0.032  0.00  0.00     0.083 H 
ATOM     12  H2  <0> d          -3.366   1.857   0.045  0.00  0.00     0.083 H 
ATOM     13  H3  <0> d          -1.270   3.142   0.036  0.00  0.00     0.085 H 
ATOM     14  H4  <0> d          -1.156  -1.794   0.004  0.00  0.00     0.084 H 
ATOM     15  H5  <0> d           1.690  -0.995   0.874  0.00  0.00     0.082 H 
ATOM     16  H6  <0> d           1.672  -0.986  -0.912  0.00  0.00     0.082 H 
ENDROOT
TORSDOF 0
