REMARK  0 active torsions:
REMARK  status: ('A' for Active; 'I' for Inactive)
ROOT
ATOM      1  C1  <0> d          -0.018   1.469   0.010  0.00  0.00     0.022 C 
ATOM      2  C2  <0> d           1.419   1.989  -0.001  0.00  0.00     0.036 C 
ATOM      3  O1  <0> d           2.095   1.590  -1.191  0.00  0.00    -0.373 OA
ATOM      4  C3  <0> d           2.421   0.195  -1.246  0.00  0.00     0.128 C 
ATOM      5  S1  <0> d           0.862  -0.747  -1.217  0.00  0.00     0.248 S 
ATOM      6  O2  <0> d           1.091  -2.071  -0.755  0.00  0.00    -0.204 OA
ATOM      7  O3  <0> d           0.114  -0.505  -2.401  0.00  0.00    -0.204 OA
ATOM      8  N1  <0> d           0.002  -0.004   0.002  0.00  0.00    -0.316 N 
ATOM      9  H1  <0> d          -0.526   1.822   0.908  0.00  0.00     0.068 H 
ATOM     10  H2  <0> d          -0.543   1.831  -0.874  0.00  0.00     0.068 H 
ATOM     11  H3  <0> d           1.407   3.078   0.057  0.00  0.00     0.076 H 
ATOM     12  H4  <0> d           1.951   1.591   0.864  0.00  0.00     0.076 H 
ATOM     13  H5  <0> d           2.965  -0.021  -2.166  0.00  0.00     0.101 H 
ATOM     14  H6  <0> d           3.031  -0.075  -0.384  0.00  0.00     0.101 H 
ATOM     15  H7  <0> d          -0.465  -0.520   0.678  0.00  0.00     0.172 HD
ENDROOT
TORSDOF 0
