REMARK  3 active torsions:
REMARK  status: ('A' for Active; 'I' for Inactive)
REMARK    1  A    between atoms: C1_1  and  O1_2 
REMARK    2  A    between atoms: O1_2  and  C2_3 
REMARK    3  A    between atoms: C5_6  and  N1_10 
ROOT
ATOM      1  C2  <0> d          -1.239   3.139   0.031  0.00  0.00     0.145 A 
ATOM      2  C3  <0> d          -1.220   1.751   0.017  0.00  0.00     0.154 A 
ATOM      3  C4  <0> d          -0.013   1.076   0.008  0.00  0.00    -0.018 A 
ATOM      4  C5  <0> d           1.180   1.786   0.000  0.00  0.00     0.031 A 
ATOM      5  C6  <0> d           1.161   3.175   0.008  0.00  0.00    -0.018 A 
ATOM      6  C7  <0> d          -0.046   3.850   0.023  0.00  0.00     0.154 A 
ATOM      7  F1  <0> d          -0.065   5.200   0.031  0.00  0.00    -0.203 F 
ATOM      8  F2  <0> d          -2.381   1.060   0.019  0.00  0.00    -0.203 F 
ATOM      9  H4  <0> d           0.002  -0.004   0.002  0.00  0.00     0.091 H 
ATOM     10  H5  <0> d           2.089   3.728   0.002  0.00  0.00     0.091 H 
ENDROOT
BRANCH   1  11
ATOM     11  O1  <0> d          -2.426   3.803   0.047  0.00  0.00    -0.350 OA
BRANCH  11  12
ATOM     12  C1  <0> d          -3.005   4.127  -1.219  0.00  0.00     0.011 C 
ATOM     13  H1  <0> d          -3.947   4.654  -1.064  0.00  0.00     0.067 H 
ATOM     14  H2  <0> d          -2.321   4.764  -1.780  0.00  0.00     0.067 H 
ATOM     15  H3  <0> d          -3.190   3.210  -1.779  0.00  0.00     0.067 H 
ENDBRANCH  11  12
ENDBRANCH   1  11
BRANCH   4  16
ATOM     16  N1  <0> d           2.401   1.103  -0.015  0.00  0.00    -0.399 N 
ATOM     17  H6  <0> d           2.415   0.134  -0.020  0.00  0.00     0.156 HD
ATOM     18  H7  <0> d           3.235   1.600  -0.020  0.00  0.00     0.156 HD
ENDBRANCH   4  16
TORSDOF 3
