REMARK  2 active torsions:
REMARK  status: ('A' for Active; 'I' for Inactive)
REMARK    1  A    between atoms: C1_1  and  C2_2 
REMARK    2  A    between atoms: C4_4  and  C8_9 
ROOT
ATOM      1  C2  <0> d           0.002  -0.004   0.002  0.00  0.00    -0.060 A 
ATOM      2  C3  <0> d           0.006  -0.689  -1.199  0.00  0.00    -0.071 A 
ATOM      3  C4  <0> d           0.025  -2.071  -1.208  0.00  0.00    -0.060 A 
ATOM      4  C5  <0> d           0.041  -2.769  -0.015  0.00  0.00    -0.056 A 
ATOM      5  C6  <0> d           0.037  -2.085   1.188  0.00  0.00     0.035 A 
ATOM      6  C7  <0> d           0.023  -0.701   1.195  0.00  0.00    -0.056 A 
ATOM      7 Cl1  <0> d           0.056  -2.961   2.686  0.00  0.00    -0.084 Cl
ATOM      8  H4  <0> d          -0.007  -0.143  -2.131  0.00  0.00     0.085 H 
ATOM      9  H5  <0> d           0.055  -3.849  -0.022  0.00  0.00     0.086 H 
ATOM     10  H6  <0> d           0.025  -0.166   2.133  0.00  0.00     0.086 H 
ENDROOT
BRANCH   1  11
ATOM     11  C1  <0> d          -0.018   1.503   0.010  0.00  0.00    -0.051 C 
ATOM     12  H1  <0> d           1.004   1.880   0.003  0.00  0.00     0.033 H 
ATOM     13  H2  <0> d          -0.545   1.864  -0.873  0.00  0.00     0.033 H 
ATOM     14  H3  <0> d          -0.529   1.854   0.907  0.00  0.00     0.033 H 
ENDBRANCH   1  11
BRANCH   3  15
ATOM     15  C8  <0> d           0.029  -2.816  -2.517  0.00  0.00    -0.051 C 
ATOM     16  H7  <0> d           1.057  -2.982  -2.838  0.00  0.00     0.033 H 
ATOM     17  H8  <0> d          -0.471  -3.776  -2.390  0.00  0.00     0.033 H 
ATOM     18  H9  <0> d          -0.497  -2.230  -3.271  0.00  0.00     0.033 H 
ENDBRANCH   3  15
TORSDOF 2
