REMARK  2 active torsions:
REMARK  status: ('A' for Active; 'I' for Inactive)
REMARK    1  A    between atoms: C1_1  and  C2_2 
REMARK    2  A    between atoms: C9_9  and  N2_12 
ROOT
ATOM      1  C2  <0> d          -6.009   1.774   0.041  0.00  0.00    -0.061 A 
ATOM      2  C3  <0> d          -5.956   3.167   0.049  0.00  0.00    -0.075 A 
ATOM      3  C4  <0> d          -4.764   3.824   0.047  0.00  0.00    -0.054 A 
ATOM      4  C5  <0> d          -3.563   3.093   0.037  0.00  0.00     0.067 A 
ATOM      5  C6  <0> d          -3.620   1.677   0.029  0.00  0.00    -0.005 A 
ATOM      6  C7  <0> d          -4.868   1.032   0.032  0.00  0.00    -0.065 A 
ATOM      7  C8  <0> d          -2.420   0.944   0.019  0.00  0.00    -0.044 A 
ATOM      8  C9  <0> d          -1.230   1.648   0.017  0.00  0.00     0.044 A 
ATOM      9  C10 <0> d          -1.254   3.048   0.030  0.00  0.00     0.028 A 
ATOM     10  N1  <0> d          -2.381   3.716   0.035  0.00  0.00    -0.258 NA
ATOM     11  H4  <0> d          -6.875   3.734   0.057  0.00  0.00     0.084 H 
ATOM     12  H5  <0> d          -4.741   4.904   0.053  0.00  0.00     0.087 H 
ATOM     13  H6  <0> d          -4.922  -0.047   0.026  0.00  0.00     0.085 H 
ATOM     14  H7  <0> d          -2.427  -0.136   0.012  0.00  0.00     0.088 H 
ATOM     15  H8  <0> d          -0.320   3.590   0.033  0.00  0.00     0.118 H 
ENDROOT
BRANCH   1  16
ATOM     16  C1  <0> d          -7.348   1.082   0.043  0.00  0.00    -0.051 C 
ATOM     17  H1  <0> d          -8.150   1.834   0.050  0.00  0.00     0.033 H 
ATOM     18  H2  <0> d          -7.431   0.447   0.938  0.00  0.00     0.033 H 
ATOM     19  H3  <0> d          -7.439   0.458  -0.859  0.00  0.00     0.033 H 
ENDBRANCH   1  16
BRANCH   8  20
ATOM     20  N2  <0> d          -0.011   0.966   0.007  0.00  0.00    -0.398 N 
ATOM     21  H9  <0> d           0.934   1.529   0.006  0.00  0.00     0.156 HD
ATOM     22  H10 <0> d           0.004  -0.134   0.002  0.00  0.00     0.156 HD
ENDBRANCH   8  20
TORSDOF 2
