REMARK  3 active torsions:
REMARK  status: ('A' for Active; 'I' for Inactive)
REMARK    1  A    between atoms: C2_2  and  C3_3 
REMARK    2  A    between atoms: C3_3  and  S1_4 
REMARK    3  A    between atoms: S1_4  and  C4_5 
ROOT
ATOM      1  C4  <0> d           2.303   0.046  -0.020  0.00  0.00     0.188 A 
ATOM      2  N1  <0> d           1.165  -0.634  -0.013  0.00  0.00    -0.235 NA
ATOM      3  C5  <0> d           0.002  -0.004   0.002  0.00  0.00     0.006 A 
ATOM      4  C6  <0> d          -0.017   1.382   0.010  0.00  0.00    -0.049 A 
ATOM      5  C7  <0> d           1.192   2.061   0.002  0.00  0.00     0.006 A 
ATOM      6  N2  <0> d           2.320   1.371  -0.013  0.00  0.00    -0.235 NA
ATOM      7  H6  <0> d          -0.922  -0.563   0.007  0.00  0.00     0.114 H 
ATOM      8  H7  <0> d          -0.953   1.921   0.017  0.00  0.00     0.087 H 
ATOM      9  H8  <0> d           1.211   3.141   0.007  0.00  0.00     0.114 H 
ENDROOT
BRANCH   1  10
ATOM     10  S1  <0> d           3.830  -0.833  -0.039  0.00  0.00    -0.086 SA
BRANCH  10  11
ATOM     11  C3  <0> d           4.992   0.554  -0.043  0.00  0.00    -0.002 C 
ATOM     12  H4  <0> d           4.823   1.168  -0.928  0.00  0.00     0.055 H 
ATOM     13  H5  <0> d           4.840   1.158   0.852  0.00  0.00     0.055 H 
BRANCH  11  14
ATOM     14  C2  <0> d           6.404   0.028  -0.059  0.00  0.00    -0.103 C 
ATOM     15  C1  <0> d           7.175   0.253  -1.093  0.00  0.00    -0.124 C 
ATOM     16  H1  <0> d           8.187  -0.124  -1.105  0.00  0.00     0.066 H 
ATOM     17  H2  <0> d           6.799   0.817  -1.935  0.00  0.00     0.066 H 
ATOM     18  H3  <0> d           6.779  -0.536   0.782  0.00  0.00     0.076 H 
ENDBRANCH  11  14
ENDBRANCH  10  11
ENDBRANCH   1  10
TORSDOF 3
