REMARK  2 active torsions:
REMARK  status: ('A' for Active; 'I' for Inactive)
REMARK    1  A    between atoms: C2_2  and  C4_5 
REMARK    2  A    between atoms: C4_5  and  O1_6 
ROOT
ATOM      1  C1  <0> d          -0.018   1.471   0.010  0.00  0.00     0.148 C 
ATOM      2  C2  <0> d           1.517   1.436  -0.005  0.00  0.00     0.176 C 
ATOM      3  C3  <0> d           1.308   0.073  -0.679  0.00  0.00     0.148 C 
ATOM      4  N1  <0> d           0.002  -0.004   0.002  0.00  0.00     0.090 N 
ATOM      5  F1  <0> d           2.100   1.363   1.265  0.00  0.00    -0.237 F 
ATOM      6  H1  <0> d          -0.434   1.894   0.924  0.00  0.00     0.084 H 
ATOM      7  H2  <0> d          -0.451   1.904  -0.891  0.00  0.00     0.084 H 
ATOM      8  H3  <0> d           1.228   0.134  -1.765  0.00  0.00     0.084 H 
ATOM      9  H4  <0> d           2.015  -0.688  -0.350  0.00  0.00     0.084 H 
ATOM     10  H5  <0> d           0.103  -0.369   0.937  0.00  0.00     0.316 HD
ENDROOT
BRANCH   2  11
ATOM     11  C4  <0> d           2.158   2.491  -0.909  0.00  0.00     0.053 C 
ATOM     12  H6  <0> d           1.825   2.341  -1.935  0.00  0.00     0.079 H 
ATOM     13  H7  <0> d           1.864   3.485  -0.573  0.00  0.00     0.079 H 
BRANCH  11  14
ATOM     14  O1  <0> d           3.581   2.369  -0.847  0.00  0.00    -0.397 OA
ATOM     15  H8  <0> d           4.054   3.008  -1.397  0.00  0.00     0.209 HD
ENDBRANCH  11  14
ENDBRANCH   2  11
TORSDOF 2
