REMARK  1 active torsions:
REMARK  status: ('A' for Active; 'I' for Inactive)
REMARK    1  A    between atoms: C9_13  and  O1_16 
ROOT
ATOM      1  C1  <0> d          -0.791   1.668   1.199  0.00  0.00    -0.046 A 
ATOM      2  C2  <0> d          -1.893   2.525   0.591  0.00  0.00    -0.106 A 
ATOM      3  C3  <0> d          -1.842   2.536  -0.706  0.00  0.00    -0.102 A 
ATOM      4  C4  <0> d          -0.714   1.692  -1.237  0.00  0.00    -0.028 A 
ATOM      5  H1  <0> d          -1.055   0.927  -1.935  0.00  0.00     0.047 H 
ATOM      6  C5  <0> d          -0.013   1.086   0.008  0.00  0.00    -0.041 A 
ATOM      7  H2  <0> d           0.002  -0.004   0.002  0.00  0.00     0.042 H 
ATOM      8  C6  <0> d           1.414   1.712  -0.002  0.00  0.00    -0.047 C 
ATOM      9  H3  <0> d           1.949   1.692   0.947  0.00  0.00     0.040 H 
ATOM     10  C7  <0> d           1.107   3.132  -0.595  0.00  0.00    -0.055 C 
ATOM     11  C8  <0> d           0.373   2.595  -1.895  0.00  0.00    -0.022 C 
ATOM     12  H4  <0> d           0.004   3.344  -2.595  0.00  0.00     0.044 H 
ATOM     13  C9  <0> d           1.442   1.608  -2.457  0.00  0.00     0.040 C 
ATOM     14  H5  <0> d           0.963   0.815  -3.030  0.00  0.00     0.083 H 
ATOM     15  C10 <0> d           2.133   1.025  -1.204  0.00  0.00    -0.037 C 
ATOM     16  H6  <0> d          -1.223   0.862   1.793  0.00  0.00     0.039 H 
ATOM     17  H7  <0> d          -0.129   2.275   1.817  0.00  0.00     0.039 H 
ATOM     18  H8  <0> d          -2.625   3.065   1.172  0.00  0.00     0.076 H 
ATOM     19  H9  <0> d          -2.529   3.087  -1.332  0.00  0.00     0.077 H 
ATOM     20  H10 <0> d           0.450   3.712   0.053  0.00  0.00     0.034 H 
ATOM     21  H11 <0> d           2.017   3.678  -0.842  0.00  0.00     0.034 H 
ATOM     22  H12 <0> d           3.194   1.274  -1.204  0.00  0.00     0.037 H 
ATOM     23  H13 <0> d           1.997  -0.056  -1.160  0.00  0.00     0.037 H 
ENDROOT
BRANCH  13  24
ATOM     24  O1  <0> d           2.389   2.305  -3.269  0.00  0.00    -0.395 OA
ATOM     25  H14 <0> d           3.105   1.749  -3.604  0.00  0.00     0.210 HD
ENDBRANCH  13  24
TORSDOF 1
