REMARK  4 active torsions:
REMARK  status: ('A' for Active; 'I' for Inactive)
REMARK    1  A    between atoms: C1_1  and  C2_2 
REMARK    2  A    between atoms: C2_2  and  C9_15 
REMARK    3  A    between atoms: C7_9  and  O2_14 
REMARK    4  A    between atoms: C8_11  and  O1_13 
ROOT
ATOM      1  C2  <0> d           0.002  -0.004   0.002  0.00  0.00    -0.035 C 
ATOM      2  C3  <0> d           0.998  -0.573  -1.069  0.00  0.00    -0.020 C 
ATOM      3  H1  <0> d           0.766  -0.349  -2.110  0.00  0.00     0.045 H 
ATOM      4  C4  <0> d           1.005  -2.084  -0.682  0.00  0.00    -0.058 C 
ATOM      5  C5  <0> d           0.840  -2.095   0.855  0.00  0.00    -0.058 C 
ATOM      6  C6  <0> d           0.750  -0.590   1.252  0.00  0.00    -0.020 C 
ATOM      7  H2  <0> d           0.302  -0.379   2.223  0.00  0.00     0.045 H 
ATOM      8  C7  <0> d           2.187  -0.036   1.013  0.00  0.00     0.065 C 
ATOM      9  H3  <0> d           2.276   0.975   1.412  0.00  0.00     0.087 H 
ATOM     10  C8  <0> d           2.350  -0.008  -0.535  0.00  0.00     0.065 C 
ATOM     11  H4  <0> d           2.509   1.006  -0.901  0.00  0.00     0.087 H 
ATOM     12  H8  <0> d           0.171  -2.601  -1.157  0.00  0.00     0.033 H 
ATOM     13  H9  <0> d           1.951  -2.545  -0.966  0.00  0.00     0.033 H 
ATOM     14  H10 <0> d          -0.074  -2.617   1.135  0.00  0.00     0.033 H 
ATOM     15  H11 <0> d           1.705  -2.561   1.326  0.00  0.00     0.033 H 
ENDROOT
BRANCH   1  16
ATOM     16  C1  <0> d          -0.019   1.526   0.010  0.00  0.00    -0.068 C 
ATOM     17  H5  <0> d           1.004   1.903   0.003  0.00  0.00     0.028 H 
ATOM     18  H6  <0> d          -0.546   1.887  -0.873  0.00  0.00     0.028 H 
ATOM     19  H7  <0> d          -0.529   1.877   0.907  0.00  0.00     0.028 H 
ENDBRANCH   1  16
BRANCH   1  20
ATOM     20  C9  <0> d          -1.404  -0.588  -0.152  0.00  0.00    -0.068 C 
ATOM     21  H14 <0> d          -1.844  -0.236  -1.085  0.00  0.00     0.028 H 
ATOM     22  H15 <0> d          -1.345  -1.677  -0.166  0.00  0.00     0.028 H 
ATOM     23  H16 <0> d          -2.023  -0.268   0.686  0.00  0.00     0.028 H 
ENDBRANCH   1  20
BRANCH   8  24
ATOM     24  O2  <0> d           3.158  -0.895   1.615  0.00  0.00    -0.393 OA
ATOM     25  H13 <0> d           4.071  -0.599   1.498  0.00  0.00     0.210 HD
ENDBRANCH   8  24
BRANCH  10  26
ATOM     26  O1  <0> d           3.433  -0.855  -0.925  0.00  0.00    -0.393 OA
ATOM     27  H12 <0> d           4.299  -0.551  -0.619  0.00  0.00     0.210 HD
ENDBRANCH  10  26
TORSDOF 4
