REMARK  2 active torsions:
REMARK  status: ('A' for Active; 'I' for Inactive)
REMARK    1  A    between atoms: C1_1  and  C2_2 
REMARK    2  A    between atoms: C2_2  and  C10_11 
ROOT
ATOM      1  C2  <0> d           3.344   2.385  -0.437  0.00  0.00     0.064 C 
ATOM      2  C3  <0> d           2.578   3.664  -0.022  0.00  0.00    -0.010 C 
ATOM      3  C4  <0> d           1.142   3.174   0.002  0.00  0.00    -0.022 A 
ATOM      4  C5  <0> d          -0.062   3.842   0.019  0.00  0.00    -0.074 A 
ATOM      5  C6  <0> d          -1.248   3.129   0.030  0.00  0.00    -0.082 A 
ATOM      6  C7  <0> d          -1.218   1.747   0.017  0.00  0.00    -0.080 A 
ATOM      7  C8  <0> d          -0.013   1.076   0.008  0.00  0.00    -0.050 A 
ATOM      8  C9  <0> d           1.186   1.786   0.000  0.00  0.00     0.076 A 
ATOM      9  O1  <0> d           2.469   1.333   0.003  0.00  0.00    -0.340 OA
ATOM     10  H4  <0> d           2.708   4.453  -0.762  0.00  0.00     0.044 H 
ATOM     11  H5  <0> d           2.890   4.003   0.966  0.00  0.00     0.044 H 
ATOM     12  H6  <0> d          -0.081   4.922   0.025  0.00  0.00     0.084 H 
ATOM     13  H7  <0> d          -2.194   3.651   0.044  0.00  0.00     0.083 H 
ATOM     14  H8  <0> d          -2.143   1.189   0.019  0.00  0.00     0.083 H 
ATOM     15  H9  <0> d           0.002  -0.004   0.002  0.00  0.00     0.087 H 
ENDROOT
BRANCH   1  16
ATOM     16  C1  <0> d           3.533   2.335  -1.954  0.00  0.00    -0.047 C 
ATOM     17  H1  <0> d           4.101   3.207  -2.279  0.00  0.00     0.031 H 
ATOM     18  H2  <0> d           4.075   1.428  -2.223  0.00  0.00     0.031 H 
ATOM     19  H3  <0> d           2.558   2.335  -2.442  0.00  0.00     0.031 H 
ENDBRANCH   1  16
BRANCH   1  20
ATOM     20  C10 <0> d           4.695   2.307   0.279  0.00  0.00    -0.047 C 
ATOM     21  H10 <0> d           4.534   2.287   1.357  0.00  0.00     0.031 H 
ATOM     22  H11 <0> d           5.216   1.401  -0.028  0.00  0.00     0.031 H 
ATOM     23  H12 <0> d           5.295   3.179   0.017  0.00  0.00     0.031 H 
ENDBRANCH   1  20
TORSDOF 2
