REMARK  1 active torsions:
REMARK  status: ('A' for Active; 'I' for Inactive)
REMARK    1  A    between atoms: C5_5  and  C8_8 
ROOT
ATOM      1  C8  <0> d          -0.013   1.086   0.008  0.00  0.00     0.018 C 
ATOM      2  C9  <0> d          -0.725   1.573  -1.185  0.00  0.00     0.059 C 
ATOM      3  N1  <0> d          -1.274   1.950  -2.105  0.00  0.00    -0.197 NA
ATOM      4  H14 <0> d           0.002  -0.004   0.002  0.00  0.00     0.055 H 
ATOM      5  H15 <0> d           1.010   1.463   0.000  0.00  0.00     0.055 H 
ENDROOT
BRANCH   1   6
ATOM      6  C5  <0> d          -0.729   1.579   1.267  0.00  0.00    -0.043 C 
ATOM      7  C4  <0> d          -0.087   0.994   2.434  0.00  0.00    -0.061 C 
ATOM      8  C3  <0> d          -0.789   1.387   3.750  0.00  0.00    -0.065 C 
ATOM      9  H7  <0> d          -0.100  -0.092   2.338  0.00  0.00     0.033 H 
ATOM     10  H8  <0> d           0.949   1.330   2.473  0.00  0.00     0.033 H 
ATOM     11  C2  <0> d          -0.339   2.770   4.138  0.00  0.00    -0.065 C 
ATOM     12  H5  <0> d          -1.869   1.380   3.605  0.00  0.00     0.033 H 
ATOM     13  H6  <0> d          -0.520   0.678   4.534  0.00  0.00     0.033 H 
ATOM     14  C1  <0> d          -1.298   3.865   3.633  0.00  0.00    -0.065 C 
ATOM     15  H3  <0> d          -0.277   2.829   5.224  0.00  0.00     0.033 H 
ATOM     16  H4  <0> d           0.651   2.949   3.718  0.00  0.00     0.033 H 
ATOM     17  C7  <0> d          -1.792   3.610   2.196  0.00  0.00    -0.065 C 
ATOM     18  H1  <0> d          -2.161   3.910   4.298  0.00  0.00     0.033 H 
ATOM     19  H2  <0> d          -0.783   4.824   3.663  0.00  0.00     0.033 H 
ATOM     20  C6  <0> d          -0.695   3.121   1.289  0.00  0.00    -0.061 C 
ATOM     21  H12 <0> d          -2.587   2.865   2.222  0.00  0.00     0.033 H 
ATOM     22  H13 <0> d          -2.195   4.539   1.792  0.00  0.00     0.033 H 
ATOM     23  H10 <0> d           0.270   3.461   1.664  0.00  0.00     0.033 H 
ATOM     24  H11 <0> d          -0.855   3.505   0.281  0.00  0.00     0.033 H 
ATOM     25  H9  <0> d          -1.768   1.250   1.233  0.00  0.00     0.041 H 
ENDBRANCH   1   6
TORSDOF 1
