REMARK  1 active torsions:
REMARK  status: ('A' for Active; 'I' for Inactive)
REMARK    1  A    between atoms: C7_8  and  N1_10 
ROOT
ATOM      1  C1  <0> d          -0.017   1.382   0.010  0.00  0.00    -0.080 A 
ATOM      2  C2  <0> d           1.162   2.094   0.002  0.00  0.00    -0.070 A 
ATOM      3  C3  <0> d           2.381   1.415  -0.013  0.00  0.00     0.002 A 
ATOM      4  C4  <0> d           3.788   1.833  -0.024  0.00  0.00    -0.049 A 
ATOM      5  C5  <0> d           4.513   0.707  -0.036  0.00  0.00     0.020 A 
ATOM      6  O1  <0> d           3.702  -0.365  -0.035  0.00  0.00    -0.320 OA
ATOM      7  C6  <0> d           2.407   0.012  -0.021  0.00  0.00     0.111 A 
ATOM      8  C7  <0> d           1.203  -0.693  -0.014  0.00  0.00     0.060 A 
ATOM      9  C8  <0> d           0.002  -0.004   0.002  0.00  0.00    -0.055 A 
ATOM     10  H1  <0> d          -0.961   1.907   0.026  0.00  0.00     0.083 H 
ATOM     11  H2  <0> d           1.144   3.174   0.008  0.00  0.00     0.084 H 
ATOM     12  H3  <0> d           4.163   2.846  -0.022  0.00  0.00     0.087 H 
ATOM     13  H4  <0> d           5.593   0.666  -0.047  0.00  0.00     0.123 H 
ATOM     14  H5  <0> d          -0.929  -0.552   0.008  0.00  0.00     0.087 H 
ENDROOT
BRANCH   8  15
ATOM     15  N1  <0> d           1.210  -2.091  -0.022  0.00  0.00    -0.397 N 
ATOM     16  H6  <0> d           2.052  -2.572  -0.032  0.00  0.00     0.156 HD
ATOM     17  H7  <0> d           0.372  -2.580  -0.017  0.00  0.00     0.156 HD
ENDBRANCH   8  15
TORSDOF 1
