REMARK  1 active torsions:
REMARK  status: ('A' for Active; 'I' for Inactive)
REMARK    1  A    between atoms: C1_1  and  C2_2 
ROOT
ATOM      1  C2  <0> d           2.137   4.051   0.003  0.00  0.00     0.106 A 
ATOM      2  N1  <0> d           1.612   5.250   0.014  0.00  0.00    -0.245 NA
ATOM      3  C3  <0> d           0.281   5.162   0.026  0.00  0.00     0.030 A 
ATOM      4  C4  <0> d          -0.045   3.821   0.022  0.00  0.00     0.057 A 
ATOM      5  N2  <0> d           1.150   3.129   0.007  0.00  0.00    -0.309 N 
ATOM      6  C5  <0> d           1.148   1.759   0.001  0.00  0.00    -0.013 A 
ATOM      7  C6  <0> d          -0.013   1.076   0.008  0.00  0.00    -0.067 A 
ATOM      8  C7  <0> d          -1.245   1.757   0.018  0.00  0.00    -0.080 A 
ATOM      9  C8  <0> d          -1.266   3.115   0.031  0.00  0.00    -0.055 A 
ATOM     10  H4  <0> d          -0.414   5.988   0.037  0.00  0.00     0.118 H 
ATOM     11  H5  <0> d           2.085   1.222  -0.011  0.00  0.00     0.112 H 
ATOM     12  H6  <0> d           0.002  -0.004   0.002  0.00  0.00     0.085 H 
ATOM     13  H7  <0> d          -2.171   1.201   0.019  0.00  0.00     0.083 H 
ATOM     14  H8  <0> d          -2.205   3.648   0.042  0.00  0.00     0.087 H 
ENDROOT
BRANCH   1  15
ATOM     15  C1  <0> d           3.613   3.746  -0.013  0.00  0.00    -0.021 C 
ATOM     16  H1  <0> d           3.959   3.678  -1.044  0.00  0.00     0.037 H 
ATOM     17  H2  <0> d           4.154   4.542   0.500  0.00  0.00     0.037 H 
ATOM     18  H3  <0> d           3.794   2.799   0.495  0.00  0.00     0.037 H 
ENDBRANCH   1  15
TORSDOF 1
