REMARK  3 active torsions:
REMARK  status: ('A' for Active; 'I' for Inactive)
REMARK    1  A    between atoms: C1_1  and  C2_2 
REMARK    2  A    between atoms: C2_2  and  C3_3 
REMARK    3  A    between atoms: C3_3  and  C4_5 
ROOT
ATOM      1  C4  <0> d           0.859  -1.934  -1.480  0.00  0.00     0.010 A 
ATOM      2  C5  <0> d           0.344  -2.856  -0.562  0.00  0.00    -0.068 A 
ATOM      3  C6  <0> d           0.487  -4.206  -0.790  0.00  0.00    -0.062 A 
ATOM      4  C7  <0> d           1.146  -4.656  -1.937  0.00  0.00     0.044 A 
ATOM      5  C8  <0> d           1.661  -3.737  -2.853  0.00  0.00    -0.062 A 
ATOM      6  C9  <0> d           1.514  -2.386  -2.631  0.00  0.00    -0.068 A 
ATOM      7  C10 <0> d           1.294  -6.061  -2.172  0.00  0.00     0.099 C 
ATOM      8  N1  <0> d           1.411  -7.175  -2.359  0.00  0.00    -0.191 NA
ATOM      9  H6  <0> d          -0.165  -2.508   0.324  0.00  0.00     0.085 H 
ATOM     10  H7  <0> d           0.089  -4.918  -0.081  0.00  0.00     0.085 H 
ATOM     11  H8  <0> d           2.171  -4.085  -3.739  0.00  0.00     0.085 H 
ATOM     12  H9  <0> d           1.908  -1.675  -3.342  0.00  0.00     0.085 H 
ENDROOT
BRANCH   1  13
ATOM     13  C3  <0> d           0.707  -0.490  -1.238  0.00  0.00     0.159 C 
ATOM     14  O1  <0> d           1.150   0.308  -2.036  0.00  0.00    -0.292 OA
BRANCH  13  15
ATOM     15  C2  <0> d           0.002  -0.004   0.002  0.00  0.00    -0.008 C 
ATOM     16  H4  <0> d           0.529  -0.365   0.885  0.00  0.00     0.044 H 
ATOM     17  H5  <0> d          -1.020  -0.381   0.010  0.00  0.00     0.044 H 
BRANCH  15  18
ATOM     18  C1  <0> d          -0.019   1.526   0.010  0.00  0.00    -0.070 C 
ATOM     19  H1  <0> d           1.004   1.903   0.003  0.00  0.00     0.028 H 
ATOM     20  H2  <0> d          -0.546   1.887  -0.873  0.00  0.00     0.028 H 
ATOM     21  H3  <0> d          -0.529   1.877   0.907  0.00  0.00     0.028 H 
ENDBRANCH  15  18
ENDBRANCH  13  15
ENDBRANCH   1  13
TORSDOF 3
