REMARK  4 active torsions:
REMARK  status: ('A' for Active; 'I' for Inactive)
REMARK    1  A    between atoms: C1_1  and  N1_2 
REMARK    2  A    between atoms: N1_2  and  C2_3 
REMARK    3  A    between atoms: N1_2  and  C3_4 
REMARK    4  A    between atoms: C3_4  and  N2_5 
ROOT
ATOM      1  N2  <0> d          -0.704   1.937   1.215  0.00  0.00    -0.326 N 
ATOM      2  C4  <0> d          -2.145   2.199   1.299  0.00  0.00    -0.000 C 
ATOM      3  C5  <0> d          -2.468   2.239   2.811  0.00  0.00    -0.042 C 
ATOM      4  C6  <0> d          -1.104   2.652   3.412  0.00  0.00     0.011 C 
ATOM      5  C7  <0> d          -0.092   2.192   2.385  0.00  0.00     0.221 C 
ATOM      6  O1  <0> d           1.097   2.072   2.588  0.00  0.00    -0.273 OA
ATOM      7  H9  <0> d          -2.373   3.159   0.813  0.00  0.00     0.064 H 
ATOM      8  H10 <0> d          -2.694   1.392   0.792  0.00  0.00     0.064 H 
ATOM      9  H11 <0> d          -3.264   2.975   2.997  0.00  0.00     0.036 H 
ATOM     10  H12 <0> d          -2.803   1.244   3.141  0.00  0.00     0.036 H 
ATOM     11  H13 <0> d          -1.081   3.743   3.554  0.00  0.00     0.047 H 
ATOM     12  H14 <0> d          -0.964   2.153   4.382  0.00  0.00     0.047 H 
ENDROOT
BRANCH   1  13
ATOM     13  C3  <0> d          -0.018   1.465   0.010  0.00  0.00     0.174 C 
ATOM     14  H7  <0> d           1.014   1.845   0.002  0.00  0.00     0.112 H 
ATOM     15  H8  <0> d          -0.550   1.829  -0.881  0.00  0.00     0.112 H 
BRANCH  13  16
ATOM     16  N1  <0> d           0.002  -0.004   0.002  0.00  0.00     0.097 N 
BRANCH  16  17
ATOM     17  C1  <0> d           0.116  -0.521  -1.368  0.00  0.00     0.097 C 
ATOM     18  H1  <0> d          -0.705  -0.120  -1.981  0.00  0.00     0.071 H 
ATOM     19  H2  <0> d           0.057  -1.620  -1.351  0.00  0.00     0.071 H 
ATOM     20  H3  <0> d           1.080  -0.212  -1.798  0.00  0.00     0.071 H 
ENDBRANCH  16  17
BRANCH  16  21
ATOM     21  C2  <0> d           1.084  -0.521   0.851  0.00  0.00     0.097 C 
ATOM     22  H4  <0> d           0.975  -0.118   1.869  0.00  0.00     0.071 H 
ATOM     23  H5  <0> d           2.055  -0.211   0.437  0.00  0.00     0.071 H 
ATOM     24  H6  <0> d           1.032  -1.619   0.883  0.00  0.00     0.071 H 
ENDBRANCH  16  21
ENDBRANCH  13  16
ENDBRANCH   1  13
TORSDOF 4
