REMARK  4 active torsions:
REMARK  status: ('A' for Active; 'I' for Inactive)
REMARK    1  A    between atoms: C1_1  and  C2_2 
REMARK    2  A    between atoms: C2_2  and  C3_3 
REMARK    3  A    between atoms: C2_2  and  C4_4 
REMARK    4  A    between atoms: C2_2  and  C5_5 
ROOT
ATOM      1  C2  <0> d          -1.331   2.074   0.020  0.00  0.00     0.037 C 
ENDROOT
BRANCH   1   2
ATOM      2  C1  <0> d          -1.072   3.582   0.027  0.00  0.00    -0.060 C 
ATOM      3  H1  <0> d          -0.508   3.857  -0.865  0.00  0.00     0.029 H 
ATOM      4  H2  <0> d          -2.023   4.114   0.034  0.00  0.00     0.029 H 
ATOM      5  H3  <0> d          -0.500   3.848   0.915  0.00  0.00     0.029 H 
ENDBRANCH   1   2
BRANCH   1   6
ATOM      6  C3  <0> d          -2.134   1.700  -1.228  0.00  0.00    -0.060 C 
ATOM      7  H4  <0> d          -2.319   0.626  -1.233  0.00  0.00     0.029 H 
ATOM      8  H5  <0> d          -3.086   2.232  -1.220  0.00  0.00     0.029 H 
ATOM      9  H6  <0> d          -1.571   1.976  -2.119  0.00  0.00     0.029 H 
ENDBRANCH   1   6
BRANCH   1  10
ATOM     10  C4  <0> d          -2.123   1.687   1.271  0.00  0.00    -0.060 C 
ATOM     11  H7  <0> d          -1.550   1.953   2.159  0.00  0.00     0.029 H 
ATOM     12  H8  <0> d          -3.074   2.219   1.278  0.00  0.00     0.029 H 
ATOM     13  H9  <0> d          -2.307   0.612   1.266  0.00  0.00     0.029 H 
ENDBRANCH   1  10
BRANCH   1  14
ATOM     14  C5  <0> d          -0.016   1.338   0.009  0.00  0.00     0.180 C 
ATOM     15  O1  <0> d           1.022   1.956   0.003  0.00  0.00    -0.647 OA
ATOM     16  O2  <0> d           0.002  -0.004   0.002  0.00  0.00    -0.647 OA
ENDBRANCH   1  14
TORSDOF 4
