REMARK  2 active torsions:
REMARK  status: ('A' for Active; 'I' for Inactive)
REMARK    1  A    between atoms: C1_1  and  C2_2 
REMARK    2  A    between atoms: C2_2  and  C7_11 
ROOT
ATOM      1  C2  <0> d           1.328   1.889  -0.001  0.00  0.00     0.080 C 
ATOM      2  C3  <0> d           2.259   0.731   0.421  0.00  0.00     0.068 C 
ATOM      3  H1  <0> d           3.203   0.772  -0.122  0.00  0.00     0.068 H 
ATOM      4  C4  <0> d           1.430  -0.505  -0.001  0.00  0.00     0.034 C 
ATOM      5  C5  <0> d           0.002  -0.004   0.002  0.00  0.00     0.261 C 
ATOM      6  O1  <0> d          -0.979  -0.710  -0.001  0.00  0.00    -0.265 OA
ATOM      7  O2  <0> d          -0.016   1.334   0.009  0.00  0.00    -0.309 OA
ATOM      8  C6  <0> d           2.489   0.741   1.875  0.00  0.00     0.067 C 
ATOM      9  N1  <0> d           2.667   0.748   2.997  0.00  0.00    -0.197 NA
ATOM     10  H5  <0> d           1.554  -1.312   0.721  0.00  0.00     0.050 H 
ATOM     11  H6  <0> d           1.717  -0.835  -0.999  0.00  0.00     0.050 H 
ENDROOT
BRANCH   1  12
ATOM     12  C1  <0> d           1.689   2.374  -1.406  0.00  0.00    -0.046 C 
ATOM     13  H2  <0> d           0.999   3.162  -1.707  0.00  0.00     0.031 H 
ATOM     14  H3  <0> d           2.707   2.764  -1.405  0.00  0.00     0.031 H 
ATOM     15  H4  <0> d           1.619   1.542  -2.106  0.00  0.00     0.031 H 
ENDBRANCH   1  12
BRANCH   1  16
ATOM     16  C7  <0> d           1.431   3.042   1.000  0.00  0.00    -0.046 C 
ATOM     17  H7  <0> d           1.179   2.681   1.998  0.00  0.00     0.031 H 
ATOM     18  H8  <0> d           2.449   3.432   1.002  0.00  0.00     0.031 H 
ATOM     19  H9  <0> d           0.739   3.834   0.715  0.00  0.00     0.031 H 
ENDBRANCH   1  16
TORSDOF 2
