REMARK  1 active torsions:
REMARK  status: ('A' for Active; 'I' for Inactive)
REMARK    1  A    between atoms: C8_11  and  O2_12 
ROOT
ATOM      1  C1  <0> d           2.183   1.508   1.244  0.00  0.00    -0.064 C 
ATOM      2  C2  <0> d           1.463   1.963   2.515  0.00  0.00    -0.057 C 
ATOM      3  C3  <0> d           0.025   1.440   2.500  0.00  0.00    -0.008 C 
ATOM      4  H1  <0> d          -0.485   1.749   3.424  0.00  0.00     0.047 H 
ATOM      5  C4  <0> d           0.045  -0.088   2.399  0.00  0.00     0.025 C 
ATOM      6  O1  <0> d           0.670  -0.476   1.174  0.00  0.00    -0.390 OA
ATOM      7  C5  <0> d           0.002  -0.004   0.002  0.00  0.00     0.025 C 
ATOM      8  C6  <0> d          -0.019   1.527   0.010  0.00  0.00    -0.008 C 
ATOM      9  H2  <0> d          -0.555   1.898  -0.876  0.00  0.00     0.047 H 
ATOM     10  C7  <0> d           1.420   2.051  -0.001  0.00  0.00    -0.057 C 
ATOM     11  C8  <0> d          -0.718   2.010   1.286  0.00  0.00     0.046 C 
ATOM     12  H3  <0> d           2.209   0.408   1.208  0.00  0.00     0.033 H 
ATOM     13  H4  <0> d           3.212   1.898   1.243  0.00  0.00     0.033 H 
ATOM     14  H5  <0> d           1.989   1.566   3.396  0.00  0.00     0.033 H 
ATOM     15  H6  <0> d           1.454   3.062   2.557  0.00  0.00     0.033 H 
ATOM     16  H7  <0> d           0.609  -0.504   3.247  0.00  0.00     0.075 H 
ATOM     17  H8  <0> d          -0.987  -0.471   2.422  0.00  0.00     0.075 H 
ATOM     18  H9  <0> d           0.536  -0.359  -0.892  0.00  0.00     0.075 H 
ATOM     19  H10 <0> d          -1.030  -0.386  -0.011  0.00  0.00     0.075 H 
ATOM     20  H11 <0> d           1.409   3.151   0.028  0.00  0.00     0.033 H 
ATOM     21  H12 <0> d           1.925   1.713  -0.917  0.00  0.00     0.033 H 
ATOM     22  H13 <0> d          -0.782   3.107   1.326  0.00  0.00     0.084 H 
ENDROOT
BRANCH  11  23
ATOM     23  O2  <0> d          -2.071   1.551   1.294  0.00  0.00    -0.395 OA
ATOM     24  H14 <0> d          -2.761   1.859   0.494  0.00  0.00     0.210 HD
ENDBRANCH  11  23
TORSDOF 1
