REMARK  2 active torsions:
REMARK  status: ('A' for Active; 'I' for Inactive)
REMARK    1  A    between atoms: C1_1  and  C2_2 
REMARK    2  A    between atoms: C2_2  and  C3_3 
ROOT
ATOM      1  C3  <0> d          -0.750   3.109   1.275  0.00  0.00    -0.048 C 
ATOM      2  H1  <0> d           0.258   3.509   1.167  0.00  0.00     0.040 H 
ATOM      3  C4  <0> d          -1.419   3.644   2.567  0.00  0.00    -0.055 C 
ATOM      4  C5  <0> d          -1.934   5.042   2.158  0.00  0.00    -0.009 C 
ATOM      5  C6  <0> d          -2.085   5.034   0.651  0.00  0.00     0.127 C 
ATOM      6  O1  <0> d          -2.457   5.955  -0.036  0.00  0.00    -0.298 OA
ATOM      7  C7  <0> d          -1.681   3.654   0.164  0.00  0.00    -0.006 C 
ATOM      8  H7  <0> d          -2.249   3.003   2.861  0.00  0.00     0.034 H 
ATOM      9  H8  <0> d          -0.689   3.722   3.372  0.00  0.00     0.034 H 
ATOM     10  H9  <0> d          -1.276   5.738   2.447  0.00  0.00     0.044 H 
ATOM     11  H10 <0> d          -2.897   5.239   2.628  0.00  0.00     0.044 H 
ATOM     12  H11 <0> d          -1.183   3.685  -0.703  0.00  0.00     0.044 H 
ATOM     13  H12 <0> d          -2.558   3.015   0.056  0.00  0.00     0.044 H 
ENDROOT
BRANCH   1  14
ATOM     14  C2  <0> d          -0.729   1.579   1.267  0.00  0.00    -0.065 C 
ATOM     15  H5  <0> d          -1.751   1.202   1.275  0.00  0.00     0.033 H 
ATOM     16  H6  <0> d          -0.202   1.218   2.150  0.00  0.00     0.033 H 
BRANCH  14  17
ATOM     17  C1  <0> d          -0.013   1.086   0.008  0.00  0.00    -0.076 C 
ATOM     18  H2  <0> d           0.002  -0.004   0.002  0.00  0.00     0.027 H 
ATOM     19  H3  <0> d           1.010   1.463   0.000  0.00  0.00     0.027 H 
ATOM     20  H4  <0> d          -0.540   1.447  -0.875  0.00  0.00     0.027 H 
ENDBRANCH  14  17
ENDBRANCH   1  14
TORSDOF 2
