REMARK  4 active torsions:
REMARK  status: ('A' for Active; 'I' for Inactive)
REMARK    1  A    between atoms: C1_1  and  C2_2 
REMARK    2  A    between atoms: C4_4  and  C5_7 
REMARK    3  A    between atoms: C5_7  and  C6_8 
REMARK    4  A    between atoms: C6_8  and  O2_9 
ROOT
ATOM      1  C2  <0> d           0.002  -0.004   0.002  0.00  0.00     0.060 A 
ATOM      2  C3  <0> d           0.008  -0.824  -1.141  0.00  0.00    -0.027 A 
ATOM      3  C4  <0> d           0.027  -2.108  -0.735  0.00  0.00     0.083 A 
ATOM      4  O1  <0> d           0.034  -2.119   0.606  0.00  0.00    -0.218 OA
ATOM      5  N1  <0> d           0.023  -0.775   1.052  0.00  0.00    -0.133 NA
ATOM      6  H4  <0> d          -0.002  -0.483  -2.166  0.00  0.00     0.090 H 
ENDROOT
BRANCH   3   7
ATOM      7  C5  <0> d           0.039  -3.320  -1.631  0.00  0.00     0.001 C 
ATOM      8  H5  <0> d          -0.461  -4.148  -1.129  0.00  0.00     0.046 H 
ATOM      9  H6  <0> d          -0.482  -3.090  -2.560  0.00  0.00     0.046 H 
BRANCH   7  10
ATOM     10  C6  <0> d           1.486  -3.710  -1.941  0.00  0.00     0.022 C 
ATOM     11  H7  <0> d           1.986  -2.882  -2.443  0.00  0.00     0.074 H 
ATOM     12  H8  <0> d           2.007  -3.940  -1.012  0.00  0.00     0.074 H 
BRANCH  10  13
ATOM     13  O2  <0> d           1.497  -4.859  -2.791  0.00  0.00    -0.400 OA
ATOM     14  H9  <0> d           2.383  -5.164  -3.029  0.00  0.00     0.209 HD
ENDBRANCH  10  13
ENDBRANCH   7  10
ENDBRANCH   3   7
BRANCH   1  15
ATOM     15  C1  <0> d          -0.018   1.503   0.010  0.00  0.00    -0.033 C 
ATOM     16  H1  <0> d           1.004   1.880   0.003  0.00  0.00     0.035 H 
ATOM     17  H2  <0> d          -0.545   1.864  -0.873  0.00  0.00     0.035 H 
ATOM     18  H3  <0> d          -0.529   1.854   0.907  0.00  0.00     0.035 H 
ENDBRANCH   1  15
TORSDOF 4
