REMARK  0 active torsions:
REMARK  status: ('A' for Active; 'I' for Inactive)
ROOT
ATOM      1  C1  <0> d          -0.017   1.382   0.010  0.00  0.00    -0.034 A 
ATOM      2  C2  <0> d           1.193   2.064   0.002  0.00  0.00     0.134 A 
ATOM      3  C3  <0> d           2.371   1.340  -0.014  0.00  0.00     0.042 A 
ATOM      4  N1  <0> d           2.353   0.022  -0.023  0.00  0.00    -0.234 NA
ATOM      5  C4  <0> d           1.219  -0.666  -0.017  0.00  0.00     0.170 A 
ATOM      6  C5  <0> d           0.002  -0.004   0.002  0.00  0.00    -0.002 A 
ATOM      7  C6  <0> d          -1.305  -0.752   0.020  0.00  0.00    -0.035 C 
ATOM      8  C7  <0> d          -1.077  -2.199  -0.424  0.00  0.00    -0.041 C 
ATOM      9  C8  <0> d           0.125  -2.756   0.350  0.00  0.00     0.028 C 
ATOM     10  O1  <0> d           1.289  -2.022  -0.035  0.00  0.00    -0.334 OA
ATOM     11  F1  <0> d           1.219   3.414   0.009  0.00  0.00    -0.205 F 
ATOM     12  H1  <0> d          -0.953   1.920   0.026  0.00  0.00     0.089 H 
ATOM     13  H2  <0> d           3.317   1.861  -0.018  0.00  0.00     0.119 H 
ATOM     14  H3  <0> d          -1.715  -0.743   1.030  0.00  0.00     0.040 H 
ATOM     15  H4  <0> d          -2.008  -0.271  -0.660  0.00  0.00     0.040 H 
ATOM     16  H5  <0> d          -1.963  -2.795  -0.205  0.00  0.00     0.036 H 
ATOM     17  H6  <0> d          -0.870  -2.227  -1.494  0.00  0.00     0.036 H 
ATOM     18  H7  <0> d          -0.044  -2.641   1.421  0.00  0.00     0.075 H 
ATOM     19  H8  <0> d           0.260  -3.810   0.109  0.00  0.00     0.075 H 
ENDROOT
TORSDOF 0
