REMARK  3 active torsions:
REMARK  status: ('A' for Active; 'I' for Inactive)
REMARK    1  A    between atoms: C1_1  and  C2_2 
REMARK    2  A    between atoms: C2_2  and  C3_3 
REMARK    3  A    between atoms: C2_2  and  C4_4 
ROOT
ATOM      1  C2  <0> d           1.659   3.264   0.004  0.00  0.00    -0.017 C 
ATOM      2  H5  <0> d           0.869   3.885  -0.419  0.00  0.00     0.048 H 
ENDROOT
BRANCH   1   3
ATOM      3  C1  <0> d           1.942   3.708   1.440  0.00  0.00    -0.068 C 
ATOM      4  H2  <0> d           2.259   4.750   1.443  0.00  0.00     0.028 H 
ATOM      5  H3  <0> d           1.036   3.602   2.038  0.00  0.00     0.028 H 
ATOM      6  H4  <0> d           2.731   3.087   1.863  0.00  0.00     0.028 H 
ENDBRANCH   1   3
BRANCH   1   7
ATOM      7  C3  <0> d           2.929   3.413  -0.836  0.00  0.00    -0.068 C 
ATOM      8  H6  <0> d           2.728   3.097  -1.859  0.00  0.00     0.028 H 
ATOM      9  H7  <0> d           3.246   4.456  -0.833  0.00  0.00     0.028 H 
ATOM     10  H8  <0> d           3.719   2.792  -0.412  0.00  0.00     0.028 H 
ENDBRANCH   1   7
BRANCH   1  11
ATOM     11  C4  <0> d           1.220   1.822   0.000  0.00  0.00     0.059 A 
ATOM     12  N2  <0> d          -0.017   1.397   0.010  0.00  0.00    -0.180 NA
ATOM     13  N1  <0> d           0.002  -0.004   0.002  0.00  0.00    -0.289 N 
ATOM     14  C6  <0> d           1.292  -0.402  -0.012  0.00  0.00    -0.002 A 
ATOM     15  H1  <0> d          -0.798  -0.603   0.006  0.00  0.00     0.188 HD
ATOM     16  C5  <0> d           2.066   0.708  -0.014  0.00  0.00    -0.041 A 
ATOM     17  H10 <0> d           1.643  -1.423  -0.021  0.00  0.00     0.113 H 
ATOM     18  H9  <0> d           3.145   0.730  -0.024  0.00  0.00     0.088 H 
ENDBRANCH   1  11
TORSDOF 3
