REMARK  8 active torsions:
REMARK  status: ('A' for Active; 'I' for Inactive)
REMARK    1  A    between atoms: C1_1  and  C2_2 
REMARK    2  A    between atoms: C2_2  and  C3_3 
REMARK    3  A    between atoms: C3_3  and  C4_4 
REMARK    4  A    between atoms: C4_4  and  C5_6 
REMARK    5  A    between atoms: C4_4  and  O3_10 
REMARK    6  A    between atoms: C5_6  and  O2_8 
REMARK    7  A    between atoms: O2_8  and  C6_9 
REMARK    8  A    between atoms: O3_10  and  C7_11 
ROOT
ATOM      1  C4  <0> d           0.730  -2.077  -0.770  0.00  0.00     0.121 C 
ATOM      2  H1  <0> d           1.050  -2.700   0.078  0.00  0.00     0.099 H 
ENDROOT
BRANCH   1   3
ATOM      3  C3  <0> d          -0.772  -2.207  -1.032  0.00  0.00    -0.032 C 
ATOM      4  H7  <0> d          -1.028  -1.682  -1.964  0.00  0.00     0.037 H 
ATOM      5  H8  <0> d          -1.330  -1.762  -0.195  0.00  0.00     0.037 H 
BRANCH   3   6
ATOM      6  C2  <0> d          -1.141  -3.686  -1.162  0.00  0.00    -0.066 C 
ATOM      7  H5  <0> d          -0.808  -4.227  -0.264  0.00  0.00     0.032 H 
ATOM      8  H6  <0> d          -0.647  -4.111  -2.049  0.00  0.00     0.032 H 
BRANCH   6   9
ATOM      9  C1  <0> d          -2.657  -3.823  -1.307  0.00  0.00    -0.076 C 
ATOM     10  H2  <0> d          -2.922  -4.886  -1.400  0.00  0.00     0.027 H 
ATOM     11  H3  <0> d          -2.990  -3.282  -2.205  0.00  0.00     0.027 H 
ATOM     12  H4  <0> d          -3.150  -3.398  -0.420  0.00  0.00     0.027 H 
ENDBRANCH   6   9
ENDBRANCH   3   6
ENDBRANCH   1   3
BRANCH   1  13
ATOM     13  C5  <0> d           1.073  -0.631  -0.520  0.00  0.00     0.287 C 
ATOM     14  O1  <0> d           1.786  -0.036  -1.293  0.00  0.00    -0.262 OA
BRANCH  13  15
ATOM     15  O2  <0> d           0.586  -0.003   0.562  0.00  0.00    -0.324 OA
BRANCH  15  16
ATOM     16  C6  <0> d           0.957   1.390   0.739  0.00  0.00     0.013 C 
ATOM     17  H9  <0> d           0.493   1.779   1.657  0.00  0.00     0.067 H 
ATOM     18  H10 <0> d           0.608   1.975  -0.125  0.00  0.00     0.067 H 
ATOM     19  H11 <0> d           2.051   1.470   0.818  0.00  0.00     0.067 H 
ENDBRANCH  15  16
ENDBRANCH  13  15
ENDBRANCH   1  13
BRANCH   1  20
ATOM     20  O3  <0> d           1.455  -2.548  -1.908  0.00  0.00    -0.381 OA
BRANCH  20  21
ATOM     21  C7  <0> d           1.986  -3.866  -1.753  0.00  0.00     0.005 C 
ATOM     22  H12 <0> d           2.527  -4.152  -2.668  0.00  0.00     0.066 H 
ATOM     23  H13 <0> d           1.164  -4.574  -1.576  0.00  0.00     0.066 H 
ATOM     24  H14 <0> d           2.678  -3.884  -0.898  0.00  0.00     0.066 H 
ENDBRANCH  20  21
ENDBRANCH   1  20
TORSDOF 8
