REMARK  5 active torsions:
REMARK  status: ('A' for Active; 'I' for Inactive)
REMARK    1  A    between atoms: C1_1  and  C2_2 
REMARK    2  A    between atoms: C1_1  and  C4_5 
REMARK    3  A    between atoms: C2_2  and  C3_3 
REMARK    4  A    between atoms: C3_3  and  O1_4 
REMARK    5  A    between atoms: C4_5  and  C5_6 
ROOT
ATOM      1  C1  <0> d          -0.019   1.526   0.010  0.00  0.00    -0.061 C 
ATOM      2  H1  <0> d          -0.546   1.887  -0.873  0.00  0.00     0.033 H 
ATOM      3  H2  <0> d          -0.529   1.877   0.907  0.00  0.00     0.033 H 
ENDROOT
BRANCH   1   4
ATOM      4  C2  <0> d           0.002  -0.004   0.002  0.00  0.00    -0.045 C 
ATOM      5  H3  <0> d           0.512  -0.356  -0.895  0.00  0.00     0.036 H 
ATOM      6  H4  <0> d           0.529  -0.365   0.885  0.00  0.00     0.036 H 
BRANCH   4   7
ATOM      7  C3  <0> d          -1.433  -0.534   0.013  0.00  0.00     0.017 C 
ATOM      8  H5  <0> d          -1.944  -0.182   0.910  0.00  0.00     0.073 H 
ATOM      9  H6  <0> d          -1.960  -0.173  -0.870  0.00  0.00     0.073 H 
BRANCH   7  10
ATOM     10  O1  <0> d          -1.414  -1.962   0.005  0.00  0.00    -0.401 OA
ATOM     11  H7  <0> d          -2.292  -2.368   0.011  0.00  0.00     0.209 HD
ENDBRANCH   7  10
ENDBRANCH   4   7
ENDBRANCH   1   4
BRANCH   1  12
ATOM     12  C4  <0> d           1.417   2.055  -0.000  0.00  0.00    -0.041 C 
ATOM     13  H8  <0> d           1.944   1.694   0.883  0.00  0.00     0.036 H 
ATOM     14  H9  <0> d           1.927   1.704  -0.897  0.00  0.00     0.036 H 
BRANCH  12  15
ATOM     15  C5  <0> d           1.396   3.585   0.008  0.00  0.00     0.058 C 
ATOM     16  F1  <0> d           2.708   4.069  -0.002  0.00  0.00    -0.255 F 
ATOM     17  H10 <0> d           0.869   3.946  -0.875  0.00  0.00     0.082 H 
ATOM     18  H11 <0> d           0.886   3.937   0.905  0.00  0.00     0.082 H 
ENDBRANCH  12  15
ENDBRANCH   1  12
TORSDOF 5
