REMARK  3 active torsions:
REMARK  status: ('A' for Active; 'I' for Inactive)
REMARK    1  A    between atoms: C1_1  and  C2_2 
REMARK    2  A    between atoms: C5_6  and  O1_12 
REMARK    3  A    between atoms: C6_8  and  C8_11 
ROOT
ATOM      1  C2  <0> d          -0.729   1.579   1.267  0.00  0.00    -0.057 C 
ATOM      2  H1  <0> d          -0.744   2.669   1.273  0.00  0.00     0.039 H 
ATOM      3  C3  <0> d          -2.164   1.050   1.278  0.00  0.00    -0.060 C 
ATOM      4  C4  <0> d          -2.143  -0.480   1.269  0.00  0.00    -0.040 C 
ATOM      5  C5  <0> d          -1.403  -0.987   2.509  0.00  0.00     0.038 C 
ATOM      6  H2  <0> d          -1.914  -0.635   3.406  0.00  0.00     0.083 H 
ATOM      7  C6  <0> d           0.032  -0.457   2.498  0.00  0.00    -0.032 C 
ATOM      8  H3  <0> d           0.542  -0.809   1.601  0.00  0.00     0.043 H 
ATOM      9  C7  <0> d           0.011   1.072   2.506  0.00  0.00    -0.057 C 
ATOM     10  H7  <0> d          -2.674   1.401   2.175  0.00  0.00     0.033 H 
ATOM     11  H8  <0> d          -2.691   1.411   0.395  0.00  0.00     0.033 H 
ATOM     12  H9  <0> d          -1.633  -0.832   0.372  0.00  0.00     0.036 H 
ATOM     13  H10 <0> d          -3.166  -0.858   1.277  0.00  0.00     0.036 H 
ATOM     14  H11 <0> d           1.034   1.450   2.499  0.00  0.00     0.034 H 
ATOM     15  H12 <0> d          -0.499   1.424   3.403  0.00  0.00     0.034 H 
ENDROOT
BRANCH   1  16
ATOM     16  C1  <0> d          -0.013   1.086   0.008  0.00  0.00    -0.073 C 
ATOM     17  H4  <0> d           0.002  -0.004   0.002  0.00  0.00     0.028 H 
ATOM     18  H5  <0> d           1.010   1.463   0.000  0.00  0.00     0.028 H 
ATOM     19  H6  <0> d          -0.540   1.447  -0.875  0.00  0.00     0.028 H 
ENDBRANCH   1  16
BRANCH   7  20
ATOM     20  C8  <0> d           0.772  -0.964   3.737  0.00  0.00    -0.071 C 
ATOM     21  H13 <0> d           0.262  -0.613   4.634  0.00  0.00     0.028 H 
ATOM     22  H14 <0> d           0.787  -2.054   3.732  0.00  0.00     0.028 H 
ATOM     23  H15 <0> d           1.794  -0.587   3.730  0.00  0.00     0.028 H 
ENDBRANCH   7  20
BRANCH   5  24
ATOM     24  O1  <0> d          -1.384  -2.416   2.501  0.00  0.00    -0.395 OA
ATOM     25  H16 <0> d          -2.262  -2.821   2.507  0.00  0.00     0.210 HD
ENDBRANCH   5  24
TORSDOF 3
