REMARK  3 active torsions:
REMARK  status: ('A' for Active; 'I' for Inactive)
REMARK    1  A    between atoms: C2_2  and  C3_3 
REMARK    2  A    between atoms: C3_3  and  C4_4 
REMARK    3  A    between atoms: C4_4  and  C5_5 
ROOT
ATOM      1  C5  <0> d           0.845  -2.003  -1.198  0.00  0.00    -0.037 A 
ATOM      2  C6  <0> d           1.897  -2.684  -0.620  0.00  0.00    -0.075 A 
ATOM      3  C7  <0> d           1.915  -4.067  -0.623  0.00  0.00    -0.082 A 
ATOM      4  C8  <0> d           0.885  -4.778  -1.214  0.00  0.00    -0.082 A 
ATOM      5  C9  <0> d          -0.170  -4.110  -1.800  0.00  0.00    -0.062 A 
ATOM      6  C10 <0> d          -0.197  -2.714  -1.796  0.00  0.00     0.051 A 
ATOM      7  C11 <0> d          -1.289  -2.014  -2.404  0.00  0.00     0.100 C 
ATOM      8  N1  <0> d          -2.155  -1.459  -2.885  0.00  0.00    -0.191 NA
ATOM      9  H8  <0> d           2.706  -2.135  -0.161  0.00  0.00     0.084 H 
ATOM     10  H9  <0> d           2.739  -4.595  -0.166  0.00  0.00     0.083 H 
ATOM     11  H10 <0> d           0.907  -5.857  -1.216  0.00  0.00     0.083 H 
ATOM     12  H11 <0> d          -0.973  -4.666  -2.261  0.00  0.00     0.085 H 
ENDROOT
BRANCH   1  13
ATOM     13  C4  <0> d           0.825  -0.496  -1.190  0.00  0.00    -0.037 C 
ATOM     14  H6  <0> d           0.377  -0.134  -2.115  0.00  0.00     0.040 H 
ATOM     15  H7  <0> d           1.845  -0.120  -1.108  0.00  0.00     0.040 H 
BRANCH  13  16
ATOM     16  C3  <0> d           0.002  -0.004   0.002  0.00  0.00    -0.047 C 
ATOM     17  H4  <0> d           0.450  -0.366   0.927  0.00  0.00     0.039 H 
ATOM     18  H5  <0> d          -1.018  -0.381  -0.080  0.00  0.00     0.039 H 
BRANCH  16  19
ATOM     19  C2  <0> d          -0.018   1.503   0.010  0.00  0.00    -0.112 C 
ATOM     20  C1  <0> d          -1.162   2.142   0.019  0.00  0.00    -0.125 C 
ATOM     21  H1  <0> d          -1.176   3.222   0.025  0.00  0.00     0.066 H 
ATOM     22  H2  <0> d          -2.090   1.590   0.021  0.00  0.00     0.066 H 
ATOM     23  H3  <0> d           0.909   2.055   0.004  0.00  0.00     0.075 H 
ENDBRANCH  16  19
ENDBRANCH  13  16
ENDBRANCH   1  13
TORSDOF 3
