REMARK  5 active torsions:
REMARK  status: ('A' for Active; 'I' for Inactive)
REMARK    1  A    between atoms: C1_1  and  C2_2 
REMARK    2  A    between atoms: C2_2  and  C3_3 
REMARK    3  A    between atoms: C3_3  and  C4_4 
REMARK    4  A    between atoms: C4_4  and  N1_5 
REMARK    5  A    between atoms: C5_6  and  C8_10 
ROOT
ATOM      1  C4  <0> d          -0.013   1.086   0.008  0.00  0.00     0.017 C 
ATOM      2  H8  <0> d           0.002  -0.004   0.002  0.00  0.00     0.067 H 
ATOM      3  H9  <0> d           1.010   1.463   0.000  0.00  0.00     0.067 H 
ENDROOT
BRANCH   1   4
ATOM      4  C3  <0> d          -0.753   1.593  -1.232  0.00  0.00    -0.049 C 
ATOM      5  H6  <0> d          -1.775   1.215  -1.224  0.00  0.00     0.035 H 
ATOM      6  H7  <0> d          -0.767   2.683  -1.226  0.00  0.00     0.035 H 
BRANCH   4   7
ATOM      7  C2  <0> d          -0.037   1.099  -2.490  0.00  0.00    -0.067 C 
ATOM      8  H4  <0> d           0.986   1.476  -2.498  0.00  0.00     0.032 H 
ATOM      9  H5  <0> d          -0.022   0.009  -2.496  0.00  0.00     0.032 H 
BRANCH   7  10
ATOM     10  C1  <0> d          -0.777   1.606  -3.730  0.00  0.00    -0.076 C 
ATOM     11  H1  <0> d          -1.799   1.229  -3.722  0.00  0.00     0.027 H 
ATOM     12  H2  <0> d          -0.791   2.696  -3.724  0.00  0.00     0.027 H 
ATOM     13  H3  <0> d          -0.266   1.254  -4.627  0.00  0.00     0.027 H 
ENDBRANCH   7  10
ENDBRANCH   4   7
ENDBRANCH   1   4
BRANCH   1  14
ATOM     14  N1  <0> d          -0.698   1.558   1.213  0.00  0.00    -0.275 N 
ATOM     15  N2  <0> d          -1.725   0.890   1.893  0.00  0.00    -0.185 NA
ATOM     16  C7  <0> d          -2.082   1.622   2.917  0.00  0.00     0.024 A 
ATOM     17  C6  <0> d          -1.294   2.778   2.923  0.00  0.00    -0.041 A 
ATOM     18  H11 <0> d          -2.850   1.376   3.634  0.00  0.00     0.117 H 
ATOM     19  C5  <0> d          -0.449   2.711   1.869  0.00  0.00     0.028 A 
ATOM     20  H10 <0> d          -1.349   3.580   3.644  0.00  0.00     0.088 H 
BRANCH  19  21
ATOM     21  C8  <0> d           0.585   3.741   1.491  0.00  0.00    -0.036 C 
ATOM     22  H12 <0> d           0.139   4.472   0.816  0.00  0.00     0.035 H 
ATOM     23  H13 <0> d           0.940   4.246   2.390  0.00  0.00     0.035 H 
ATOM     24  H14 <0> d           1.422   3.251   0.995  0.00  0.00     0.035 H 
ENDBRANCH  19  21
ENDBRANCH   1  14
TORSDOF 5
