REMARK  4 active torsions:
REMARK  status: ('A' for Active; 'I' for Inactive)
REMARK    1  A    between atoms: C1_1  and  C2_2 
REMARK    2  A    between atoms: C3_3  and  C8_12 
REMARK    3  A    between atoms: C4_6  and  C7_11 
REMARK    4  A    between atoms: C5_7  and  C6_8 
ROOT
ATOM      1  C2  <0> d           0.002  -0.004   0.002  0.00  0.00    -0.021 A 
ATOM      2  C3  <0> d           0.008  -0.803  -1.078  0.00  0.00     0.012 A 
ATOM      3  N1  <0> d           0.028  -2.106  -0.670  0.00  0.00    -0.362 N 
ATOM      4  H1  <0> d           0.036  -2.872  -1.265  0.00  0.00     0.165 HD
ATOM      5  C4  <0> d           0.035  -2.177   0.673  0.00  0.00     0.023 A 
ATOM      6  C5  <0> d           0.026  -0.890   1.172  0.00  0.00     0.070 A 
ENDROOT
BRANCH   1   7
ATOM      7  C1  <0> d          -0.018   1.503   0.010  0.00  0.00    -0.048 C 
ATOM      8  H2  <0> d           1.004   1.880   0.003  0.00  0.00     0.033 H 
ATOM      9  H3  <0> d          -0.545   1.864  -0.873  0.00  0.00     0.033 H 
ATOM     10  H4  <0> d          -0.529   1.854   0.907  0.00  0.00     0.033 H 
ENDBRANCH   1   7
BRANCH   6  11
ATOM     11  C6  <0> d           0.035  -0.490   2.585  0.00  0.00     0.211 C 
ATOM     12  O1  <0> d           0.023   0.697   2.885  0.00  0.00    -0.644 OA
ATOM     13  O2  <0> d           0.055  -1.343   3.463  0.00  0.00    -0.644 OA
ENDBRANCH   6  11
BRANCH   2  14
ATOM     14  C8  <0> d          -0.005  -0.337  -2.511  0.00  0.00    -0.037 C 
ATOM     15  H8  <0> d           1.019  -0.210  -2.861  0.00  0.00     0.035 H 
ATOM     16  H9  <0> d          -0.511  -1.077  -3.130  0.00  0.00     0.035 H 
ATOM     17  H10 <0> d          -0.532   0.615  -2.578  0.00  0.00     0.035 H 
ENDBRANCH   2  14
BRANCH   5  18
ATOM     18  C7  <0> d           0.055  -3.443   1.490  0.00  0.00    -0.036 C 
ATOM     19  H5  <0> d           1.088  -3.733   1.683  0.00  0.00     0.035 H 
ATOM     20  H6  <0> d          -0.457  -3.272   2.437  0.00  0.00     0.035 H 
ATOM     21  H7  <0> d          -0.450  -4.238   0.942  0.00  0.00     0.035 H 
ENDBRANCH   5  18
TORSDOF 4
