REMARK  2 active torsions:
REMARK  status: ('A' for Active; 'I' for Inactive)
REMARK    1  A    between atoms: C1_1  and  C2_2 
REMARK    2  A    between atoms: C2_2  and  C3_3 
ROOT
ATOM      1  C3  <0> d          -2.143   1.058   1.278  0.00  0.00    -0.056 A 
ATOM      2  C4  <0> d          -2.421  -0.164   1.877  0.00  0.00    -0.074 A 
ATOM      3  C5  <0> d          -3.693  -0.656   1.899  0.00  0.00    -0.051 A 
ATOM      4  C6  <0> d          -4.733   0.076   1.311  0.00  0.00     0.108 A 
ATOM      5  C7  <0> d          -4.445   1.311   0.706  0.00  0.00     0.082 A 
ATOM      6  C8  <0> d          -3.140   1.793   0.702  0.00  0.00    -0.047 A 
ATOM      7  N1  <0> d          -5.641   1.788   0.225  0.00  0.00    -0.258 N 
ATOM      8  H1  <0> d          -5.677   2.755  -0.298  0.00  0.00     0.191 HD
ATOM      9  N2  <0> d          -6.612   0.831   0.552  0.00  0.00    -0.067 NA
ATOM     10  N3  <0> d          -6.056  -0.146   1.179  0.00  0.00    -0.130 NA
ATOM     11  H7  <0> d          -1.621  -0.731   2.330  0.00  0.00     0.084 H 
ATOM     12  H8  <0> d          -3.898  -1.607   2.368  0.00  0.00     0.087 H 
ATOM     13  H9  <0> d          -2.916   2.744   0.242  0.00  0.00     0.087 H 
ENDROOT
BRANCH   1  14
ATOM     14  C2  <0> d          -0.729   1.579   1.267  0.00  0.00    -0.044 C 
ATOM     15  H5  <0> d          -0.197   1.215   2.158  0.00  0.00     0.039 H 
ATOM     16  H6  <0> d          -0.744   2.679   1.273  0.00  0.00     0.039 H 
BRANCH  14  17
ATOM     17  C1  <0> d          -0.013   1.086   0.008  0.00  0.00    -0.073 C 
ATOM     18  H2  <0> d           1.019   1.466   0.000  0.00  0.00     0.028 H 
ATOM     19  H3  <0> d          -0.545   1.450  -0.883  0.00  0.00     0.028 H 
ATOM     20  H4  <0> d           0.002  -0.014   0.002  0.00  0.00     0.028 H 
ENDBRANCH  14  17
ENDBRANCH   1  14
TORSDOF 2
