REMARK  2 active torsions:
REMARK  status: ('A' for Active; 'I' for Inactive)
REMARK    1  A    between atoms: C1_1  and  N1_2 
REMARK    2  A    between atoms: C9_10  and  N2_11 
ROOT
ATOM      1  N1  <0> d          -1.308  -0.428   0.012  0.00  0.00    -0.360 N 
ATOM      2  C2  <0> d          -2.147   0.654   0.026  0.00  0.00    -0.019 A 
ATOM      3  C3  <0> d          -1.429   1.788   0.031  0.00  0.00    -0.054 A 
ATOM      4  C4  <0> d          -0.017   1.401   0.010  0.00  0.00     0.018 A 
ATOM      5  C5  <0> d           0.002  -0.004   0.002  0.00  0.00     0.046 A 
ATOM      6  C6  <0> d           1.223  -0.673  -0.013  0.00  0.00    -0.056 A 
ATOM      7  C7  <0> d           2.401   0.042  -0.020  0.00  0.00    -0.079 A 
ATOM      8  C8  <0> d           2.389   1.429  -0.012  0.00  0.00    -0.057 A 
ATOM      9  C9  <0> d           1.188   2.116   0.002  0.00  0.00     0.038 A 
ATOM     10  H4  <0> d          -3.226   0.603   0.036  0.00  0.00     0.111 H 
ATOM     11  H5  <0> d          -1.819   2.795   0.042  0.00  0.00     0.087 H 
ATOM     12  H6  <0> d           1.247  -1.752  -0.019  0.00  0.00     0.087 H 
ATOM     13  H7  <0> d           3.345  -0.484  -0.032  0.00  0.00     0.083 H 
ATOM     14  H8  <0> d           3.321   1.975  -0.018  0.00  0.00     0.086 H 
ENDROOT
BRANCH   1  15
ATOM     15  C1  <0> d          -1.740  -1.828   0.009  0.00  0.00    -0.014 C 
ATOM     16  H1  <0> d          -1.837  -2.180   1.036  0.00  0.00     0.057 H 
ATOM     17  H2  <0> d          -2.702  -1.910  -0.496  0.00  0.00     0.057 H 
ATOM     18  H3  <0> d          -1.001  -2.435  -0.515  0.00  0.00     0.057 H 
ENDBRANCH   1  15
BRANCH   9  19
ATOM     19  N2  <0> d           1.178   3.512   0.009  0.00  0.00    -0.398 N 
ATOM     20  H9  <0> d           0.334   3.990   0.019  0.00  0.00     0.156 HD
ATOM     21  H10 <0> d           2.014   4.004   0.004  0.00  0.00     0.156 HD
ENDBRANCH   9  19
TORSDOF 2
