REMARK  3 active torsions:
REMARK  status: ('A' for Active; 'I' for Inactive)
REMARK    1  A    between atoms: C1_1  and  O1_2 
REMARK    2  A    between atoms: O1_2  and  C2_3 
REMARK    3  A    between atoms: C2_3  and  C3_4 
ROOT
ATOM      1  C3  <0> d           1.208  -0.683  -0.013  0.00  0.00    -0.035 A 
ATOM      2  C4  <0> d           0.002  -0.004   0.002  0.00  0.00    -0.073 A 
ATOM      3  C5  <0> d          -0.017   1.375   0.010  0.00  0.00    -0.062 A 
ATOM      4  C6  <0> d           1.185   2.087   0.002  0.00  0.00     0.044 A 
ATOM      5  C7  <0> d           2.398   1.395  -0.013  0.00  0.00    -0.062 A 
ATOM      6  C8  <0> d           2.402   0.016  -0.020  0.00  0.00    -0.073 A 
ATOM      7  C9  <0> d           1.173   3.518   0.009  0.00  0.00     0.099 C 
ATOM      8  N1  <0> d           1.164   4.654   0.015  0.00  0.00    -0.191 NA
ATOM      9  H6  <0> d          -0.926  -0.555   0.008  0.00  0.00     0.084 H 
ATOM     10  H7  <0> d          -0.959   1.904   0.017  0.00  0.00     0.085 H 
ATOM     11  H8  <0> d           3.331   1.939  -0.020  0.00  0.00     0.085 H 
ATOM     12  H9  <0> d           3.340  -0.520  -0.031  0.00  0.00     0.084 H 
ENDROOT
BRANCH   1  13
ATOM     13  C2  <0> d           1.220  -2.190  -0.020  0.00  0.00     0.043 C 
ATOM     14  H4  <0> d           0.330  -2.566   0.505  0.00  0.00     0.081 H 
ATOM     15  H5  <0> d           2.126  -2.551   0.488  0.00  0.00     0.081 H 
BRANCH  13  16
ATOM     16  O1  <0> d           1.211  -2.660  -1.369  0.00  0.00    -0.391 OA
BRANCH  16  17
ATOM     17  C1  <0> d           1.222  -4.083  -1.489  0.00  0.00     0.004 C 
ATOM     18  H1  <0> d           1.214  -4.362  -2.553  0.00  0.00     0.066 H 
ATOM     19  H2  <0> d           0.332  -4.500  -0.995  0.00  0.00     0.066 H 
ATOM     20  H3  <0> d           2.128  -4.485  -1.012  0.00  0.00     0.066 H 
ENDBRANCH  16  17
ENDBRANCH  13  16
ENDBRANCH   1  13
TORSDOF 3
