REMARK  2 active torsions:
REMARK  status: ('A' for Active; 'I' for Inactive)
REMARK    1  A    between atoms: C6_8  and  C7_11 
REMARK    2  A    between atoms: C7_11  and  O1_12 
ROOT
ATOM      1  C1  <0> d          -1.210   1.771   0.017  0.00  0.00    -0.064 A 
ATOM      2  C2  <0> d          -0.013   1.076   0.008  0.00  0.00    -0.052 A 
ATOM      3  C3  <0> d           1.169   1.805   0.001  0.00  0.00     0.082 A 
ATOM      4  C4  <0> d           1.114   3.210   0.009  0.00  0.00     0.177 A 
ATOM      5  N1  <0> d          -0.064   3.829   0.023  0.00  0.00    -0.239 NA
ATOM      6  C5  <0> d          -1.194   3.156   0.029  0.00  0.00     0.005 A 
ATOM      7  N2  <0> d           2.397   3.651  -0.000  0.00  0.00    -0.211 NA
ATOM      8  C6  <0> d           3.212   2.635  -0.013  0.00  0.00     0.130 A 
ATOM      9  N3  <0> d           2.508   1.473  -0.013  0.00  0.00    -0.339 N 
ATOM     10  H1  <0> d           2.890   0.548  -0.022  0.00  0.00     0.167 HD
ATOM     11  H2  <0> d          -2.149   1.237   0.019  0.00  0.00     0.085 H 
ATOM     12  H3  <0> d           0.002  -0.004   0.002  0.00  0.00     0.087 H 
ATOM     13  H4  <0> d          -2.130   3.695   0.040  0.00  0.00     0.114 H 
ENDROOT
BRANCH   8  14
ATOM     14  C7  <0> d           4.715   2.734  -0.026  0.00  0.00     0.071 C 
ATOM     15  H5  <0> d           5.036   3.276  -0.916  0.00  0.00     0.086 H 
ATOM     16  H6  <0> d           5.052   3.266   0.864  0.00  0.00     0.086 H 
BRANCH  14  17
ATOM     17  O1  <0> d           5.279   1.421  -0.038  0.00  0.00    -0.393 OA
ATOM     18  H7  <0> d           6.246   1.409  -0.046  0.00  0.00     0.209 HD
ENDBRANCH  14  17
ENDBRANCH   8  14
TORSDOF 2
