REMARK  2 active torsions:
REMARK  status: ('A' for Active; 'I' for Inactive)
REMARK    1  A    between atoms: C1_1  and  N1_2 
REMARK    2  A    between atoms: C6_7  and  O1_11 
ROOT
ATOM      1  N1  <0> d           0.002  -0.004   0.002  0.00  0.00    -0.274 N 
ATOM      2  C2  <0> d           0.008  -0.803  -1.113  0.00  0.00     0.067 A 
ATOM      3  C3  <0> d          -0.001  -0.545  -2.482  0.00  0.00    -0.054 A 
ATOM      4  C4  <0> d           0.009  -1.589  -3.378  0.00  0.00    -0.078 A 
ATOM      5  C5  <0> d           0.029  -2.904  -2.933  0.00  0.00    -0.050 A 
ATOM      6  C6  <0> d           0.037  -3.186  -1.583  0.00  0.00     0.079 A 
ATOM      7  C7  <0> d           0.028  -2.133  -0.653  0.00  0.00     0.044 A 
ATOM      8  C8  <0> d           0.034  -2.080   0.761  0.00  0.00     0.036 A 
ATOM      9  N2  <0> d           0.025  -0.832   1.131  0.00  0.00    -0.184 NA
ATOM     10  H4  <0> d          -0.017   0.474  -2.839  0.00  0.00     0.087 H 
ATOM     11  H5  <0> d           0.002  -1.383  -4.438  0.00  0.00     0.083 H 
ATOM     12  H6  <0> d           0.036  -3.712  -3.650  0.00  0.00     0.087 H 
ATOM     13  H7  <0> d           0.048  -2.933   1.423  0.00  0.00     0.118 H 
ENDROOT
BRANCH   1  14
ATOM     14  C1  <0> d          -0.018   1.461   0.010  0.00  0.00     0.003 C 
ATOM     15  H1  <0> d           1.005   1.838   0.002  0.00  0.00     0.059 H 
ATOM     16  H2  <0> d          -0.545   1.822  -0.873  0.00  0.00     0.059 H 
ATOM     17  H3  <0> d          -0.528   1.812   0.907  0.00  0.00     0.059 H 
ENDBRANCH   1  14
BRANCH   6  18
ATOM     18  O1  <0> d           0.056  -4.475  -1.154  0.00  0.00    -0.360 OA
ATOM     19  H8  <0> d           0.944  -4.837  -1.034  0.00  0.00     0.217 HD
ENDBRANCH   6  18
TORSDOF 2
