REMARK  3 active torsions:
REMARK  status: ('A' for Active; 'I' for Inactive)
REMARK    1  A    between atoms: C3_3  and  O4_11 
REMARK    2  A    between atoms: C4_4  and  C7_8 
REMARK    3  A    between atoms: C6_6  and  O1_7 
ROOT
ATOM      1  C1  <0> d          -0.017   1.385   0.010  0.00  0.00    -0.048 A 
ATOM      2  C2  <0> d           1.165   2.100   0.002  0.00  0.00    -0.047 A 
ATOM      3  C3  <0> d           2.381   1.434  -0.013  0.00  0.00     0.082 A 
ATOM      4  C4  <0> d           2.408   0.032  -0.021  0.00  0.00     0.076 A 
ATOM      5  C5  <0> d           1.206  -0.683  -0.013  0.00  0.00    -0.032 A 
ATOM      6  C6  <0> d           0.002  -0.004   0.002  0.00  0.00     0.066 A 
ATOM      7  H1  <0> d          -0.961   1.910   0.026  0.00  0.00     0.087 H 
ATOM      8  H2  <0> d           1.141   3.179   0.008  0.00  0.00     0.087 H 
ATOM      9  H3  <0> d           1.218  -1.763  -0.019  0.00  0.00     0.089 H 
ENDROOT
BRANCH   4  10
ATOM     10  C7  <0> d           3.694  -0.684  -0.037  0.00  0.00     0.212 C 
ATOM     11  O2  <0> d           3.713  -1.907  -0.044  0.00  0.00    -0.644 OA
ATOM     12  O3  <0> d           4.743  -0.055  -0.044  0.00  0.00    -0.644 OA
ENDBRANCH   4  10
BRANCH   3  13
ATOM     13  O4  <0> d           3.541   2.137  -0.021  0.00  0.00    -0.360 OA
ATOM     14  H5  <0> d           3.886   2.337   0.860  0.00  0.00     0.217 HD
ENDBRANCH   3  13
BRANCH   6  15
ATOM     15  O1  <0> d          -1.167  -0.698   0.009  0.00  0.00    -0.361 OA
ATOM     16  H4  <0> d          -1.514  -0.894  -0.872  0.00  0.00     0.217 HD
ENDBRANCH   6  15
TORSDOF 3
