REMARK  1 active torsions:
REMARK  status: ('A' for Active; 'I' for Inactive)
REMARK    1  A    between atoms: C4_4  and  C7_7 
ROOT
ATOM      1  C1  <0> d          -0.017   1.380   0.010  0.00  0.00    -0.083 A 
ATOM      2  C2  <0> d           1.168   2.094   0.002  0.00  0.00    -0.082 A 
ATOM      3  C3  <0> d           2.377   1.431  -0.013  0.00  0.00    -0.066 A 
ATOM      4  C4  <0> d           2.404   0.034  -0.021  0.00  0.00     0.040 A 
ATOM      5  C5  <0> d           1.204  -0.681  -0.013  0.00  0.00    -0.066 A 
ATOM      6  C6  <0> d           0.002  -0.004   0.002  0.00  0.00    -0.082 A 
ATOM      7  H1  <0> d          -0.961   1.904   0.026  0.00  0.00     0.083 H 
ATOM      8  H2  <0> d           1.146   3.174   0.008  0.00  0.00     0.083 H 
ATOM      9  H3  <0> d           3.301   1.990  -0.020  0.00  0.00     0.085 H 
ATOM     10  H4  <0> d           1.217  -1.761  -0.019  0.00  0.00     0.085 H 
ATOM     11  H5  <0> d          -0.926  -0.555   0.008  0.00  0.00     0.083 H 
ENDROOT
BRANCH   4  12
ATOM     12  C7  <0> d           3.694  -0.682  -0.038  0.00  0.00     0.209 C 
ATOM     13  O1  <0> d           4.743  -0.053  -0.046  0.00  0.00    -0.644 OA
ATOM     14  O2  <0> d           3.714  -1.905  -0.045  0.00  0.00    -0.644 OA
ENDBRANCH   4  12
TORSDOF 1
