REMARK  7 active torsions:
REMARK  status: ('A' for Active; 'I' for Inactive)
REMARK    1  A    between atoms: C1_1  and  C2_2 
REMARK    2  A    between atoms: C2_2  and  C3_3 
REMARK    3  A    between atoms: C3_3  and  C4_4 
REMARK    4  A    between atoms: C3_3  and  C5_5 
REMARK    5  A    between atoms: C3_3  and  O1_7 
REMARK    6  A    between atoms: C5_5  and  C6_6 
REMARK    7  A    between atoms: O1_7  and  C7_8 
REMARK       I    between atoms: C7_8  and  N1_10 
ROOT
ATOM      1  C3  <0> d           2.371   1.126  -0.015  0.00  0.00     0.068 C 
ENDROOT
BRANCH   1   2
ATOM      2  C2  <0> d           2.405   0.250  -1.269  0.00  0.00    -0.039 C 
ATOM      3  H4  <0> d           3.283  -0.395  -1.237  0.00  0.00     0.036 H 
ATOM      4  H5  <0> d           1.505  -0.362  -1.310  0.00  0.00     0.036 H 
BRANCH   2   5
ATOM      5  C1  <0> d           2.473   1.141  -2.511  0.00  0.00    -0.074 C 
ATOM      6  H1  <0> d           1.595   1.787  -2.543  0.00  0.00     0.027 H 
ATOM      7  H2  <0> d           3.373   1.754  -2.470  0.00  0.00     0.027 H 
ATOM      8  H3  <0> d           2.498   0.518  -3.405  0.00  0.00     0.027 H 
ENDBRANCH   2   5
ENDBRANCH   1   2
BRANCH   1   9
ATOM      9  C4  <0> d           2.429   0.237   1.229  0.00  0.00    -0.047 C 
ATOM     10  H6  <0> d           1.574  -0.439   1.234  0.00  0.00     0.031 H 
ATOM     11  H7  <0> d           3.352  -0.344   1.218  0.00  0.00     0.031 H 
ATOM     12  H8  <0> d           2.405   0.861   2.123  0.00  0.00     0.031 H 
ENDBRANCH   1   9
BRANCH   1  13
ATOM     13  C5  <0> d           3.571   2.074  -0.021  0.00  0.00    -0.039 C 
ATOM     14  H9  <0> d           4.490   1.497  -0.122  0.00  0.00     0.036 H 
ATOM     15  H10 <0> d           3.483   2.766  -0.858  0.00  0.00     0.036 H 
BRANCH  13  16
ATOM     16  C6  <0> d           3.606   2.862   1.290  0.00  0.00    -0.074 C 
ATOM     17  H11 <0> d           2.687   3.439   1.392  0.00  0.00     0.027 H 
ATOM     18  H12 <0> d           3.694   2.169   2.128  0.00  0.00     0.027 H 
ATOM     19  H13 <0> d           4.461   3.537   1.286  0.00  0.00     0.027 H 
ENDBRANCH  13  16
ENDBRANCH   1  13
BRANCH   1  20
ATOM     20  O1  <0> d           1.142   1.900   0.001  0.00  0.00    -0.293 OA
BRANCH  20  21
ATOM     21  C7  <0> d          -0.014   1.211   0.009  0.00  0.00     0.359 C 
ATOM     22  O2  <0> d           0.002  -0.004   0.002  0.00  0.00    -0.239 OA
ATOM     23  N1  <0> d          -1.191   1.869   0.018  0.00  0.00    -0.346 N 
ATOM     24  H14 <0> d          -2.024   1.373   0.019  0.00  0.00     0.161 HD
ATOM     25  H15 <0> d          -1.204   2.839   0.023  0.00  0.00     0.161 HD
ENDBRANCH  20  21
ENDBRANCH   1  20
TORSDOF 7
