REMARK  3 active torsions:
REMARK  status: ('A' for Active; 'I' for Inactive)
REMARK    1  A    between atoms: C3_3  and  C6_7 
REMARK    2  A    between atoms: C6_7  and  C7_8 
REMARK    3  A    between atoms: C7_8  and  C8_9 
REMARK       I    between atoms: C8_9  and  N2_11 
ROOT
ATOM      1  C6  <0> d          -0.729   1.579   1.267  0.00  0.00    -0.032 C 
ATOM      2  H5  <0> d          -0.744   2.669   1.273  0.00  0.00     0.040 H 
ATOM      3  H6  <0> d          -1.751   1.202   1.275  0.00  0.00     0.040 H 
ENDROOT
BRANCH   1   4
ATOM      4  C3  <0> d           0.000   1.080   2.488  0.00  0.00    -0.040 A 
ATOM      5  C2  <0> d          -0.341  -0.135   3.061  0.00  0.00    -0.074 A 
ATOM      6  C1  <0> d           0.360  -0.557   4.180  0.00  0.00    -0.066 A 
ATOM      7  H2  <0> d          -1.132  -0.741   2.643  0.00  0.00     0.084 H 
ATOM      8  C5  <0> d           1.362   0.247   4.690  0.00  0.00     0.002 A 
ATOM      9  H1  <0> d           0.123  -1.500   4.651  0.00  0.00     0.085 H 
ATOM     10  N1  <0> d           1.656   1.400   4.122  0.00  0.00    -0.273 NA
ATOM     11  H4  <0> d           1.910  -0.072   5.564  0.00  0.00     0.114 H 
ATOM     12  C4  <0> d           1.013   1.831   3.054  0.00  0.00     0.008 A 
ATOM     13  H3  <0> d           1.282   2.781   2.616  0.00  0.00     0.115 H 
ENDBRANCH   1   4
BRANCH   1  14
ATOM     14  C7  <0> d          -0.013   1.086   0.008  0.00  0.00     0.013 C 
ATOM     15  H7  <0> d           0.002  -0.004   0.002  0.00  0.00     0.047 H 
ATOM     16  H8  <0> d           1.010   1.463   0.000  0.00  0.00     0.047 H 
BRANCH  14  17
ATOM     17  C8  <0> d          -0.742   1.585  -1.213  0.00  0.00     0.215 C 
ATOM     18  O1  <0> d          -1.736   2.268  -1.088  0.00  0.00    -0.274 OA
ATOM     19  N2  <0> d          -0.288   1.272  -2.443  0.00  0.00    -0.370 N 
ATOM     20  H9  <0> d           0.507   0.726  -2.543  0.00  0.00     0.159 HD
ATOM     21  H10 <0> d          -0.758   1.594  -3.229  0.00  0.00     0.159 HD
ENDBRANCH  14  17
ENDBRANCH   1  14
TORSDOF 3
