REMARK  1 active torsions:
REMARK  status: ('A' for Active; 'I' for Inactive)
REMARK    1  A    between atoms: C1_1  and  N1_2 
ROOT
ATOM      1  N1  <0> d           1.068   2.015   0.003  0.00  0.00    -0.243 N 
ATOM      2  C2  <0> d          -0.014   1.211   0.009  0.00  0.00     0.344 A 
ATOM      3  O1  <0> d           0.002  -0.004   0.002  0.00  0.00    -0.245 OA
ATOM      4  N2  <0> d          -1.116   1.984   0.018  0.00  0.00    -0.258 N 
ATOM      5  H1  <0> d          -2.114   1.520   0.016  0.00  0.00     0.175 HD
ATOM      6  C3  <0> d          -0.749   3.279   0.027  0.00  0.00     0.343 A 
ATOM      7  O2  <0> d          -1.502   4.232   0.039  0.00  0.00    -0.245 OA
ATOM      8  N3  <0> d           0.599   3.338   0.014  0.00  0.00    -0.245 N 
ATOM      9  H2  <0> d           1.312   4.175   0.012  0.00  0.00     0.192 HD
ENDROOT
BRANCH   1  10
ATOM     10  C1  <0> d           2.470   1.589  -0.013  0.00  0.00     0.005 C 
ATOM     11  H3  <0> d           2.519   0.490  -0.020  0.00  0.00     0.059 H 
ATOM     12  H4  <0> d           2.980   1.974   0.882  0.00  0.00     0.059 H 
ATOM     13  H5  <0> d           2.962   1.983  -0.914  0.00  0.00     0.059 H 
ENDBRANCH   1  10
TORSDOF 1
