REMARK  9 active torsions:
REMARK  status: ('A' for Active; 'I' for Inactive)
REMARK    1  A    between atoms: C1_1  and  C2_2 
REMARK    2  A    between atoms: C2_2  and  C3_3 
REMARK    3  A    between atoms: C3_3  and  C4_5 
REMARK    4  A    between atoms: C3_3  and  O2_12 
REMARK    5  A    between atoms: C4_5  and  C5_6 
REMARK    6  A    between atoms: C5_6  and  C6_8 
REMARK    7  A    between atoms: C6_8  and  C7_9 
REMARK    8  A    between atoms: C7_9  and  C8_10 
REMARK    9  A    between atoms: C7_9  and  C9_11 
ROOT
ATOM      1  C5  <0> d          -0.560   1.769   3.733  0.00  0.00     0.129 C 
ATOM      2  O1  <0> d          -1.559   2.441   3.632  0.00  0.00    -0.298 OA
ENDROOT
BRANCH   1   3
ATOM      3  C4  <0> d           0.079   1.179   2.503  0.00  0.00     0.014 C 
ATOM      4  H7  <0> d           0.095   0.182   2.582  0.00  0.00     0.048 H 
ATOM      5  H8  <0> d           1.098   1.553   2.408  0.00  0.00     0.048 H 
BRANCH   3   6
ATOM      6  C3  <0> d          -0.729   1.579   1.267  0.00  0.00     0.041 C 
ATOM      7  H1  <0> d          -0.822   2.665   1.230  0.00  0.00     0.083 H 
BRANCH   6   8
ATOM      8  C2  <0> d          -0.013   1.086   0.008  0.00  0.00    -0.044 C 
ATOM      9  H5  <0> d           0.002  -0.004   0.002  0.00  0.00     0.036 H 
ATOM     10  H6  <0> d           1.010   1.463   0.000  0.00  0.00     0.036 H 
BRANCH   8  11
ATOM     11  C1  <0> d          -0.753   1.593  -1.232  0.00  0.00    -0.074 C 
ATOM     12  H2  <0> d          -0.242   1.241  -2.128  0.00  0.00     0.027 H 
ATOM     13  H3  <0> d          -1.775   1.215  -1.224  0.00  0.00     0.027 H 
ATOM     14  H4  <0> d          -0.767   2.683  -1.226  0.00  0.00     0.027 H 
ENDBRANCH   8  11
ENDBRANCH   6   8
BRANCH   6  15
ATOM     15  O2  <0> d          -2.030   0.991   1.336  0.00  0.00    -0.395 OA
ATOM     16  H18 <0> d          -2.023   0.025   1.372  0.00  0.00     0.210 HD
ENDBRANCH   6  15
ENDBRANCH   3   6
ENDBRANCH   1   3
BRANCH   1  17
ATOM     17  C6  <0> d           0.046   1.521   5.091  0.00  0.00    -0.007 C 
ATOM     18  H9  <0> d           0.061   0.538   5.274  0.00  0.00     0.044 H 
ATOM     19  H10 <0> d           1.064   1.910   5.110  0.00  0.00     0.044 H 
BRANCH  17  20
ATOM     20  C7  <0> d          -0.790   2.227   6.160  0.00  0.00    -0.055 C 
ATOM     21  H11 <0> d          -0.881   3.284   5.911  0.00  0.00     0.039 H 
BRANCH  20  22
ATOM     22  C8  <0> d          -2.183   1.595   6.217  0.00  0.00    -0.073 C 
ATOM     23  H12 <0> d          -2.779   2.098   6.979  0.00  0.00     0.028 H 
ATOM     24  H13 <0> d          -2.669   1.700   5.248  0.00  0.00     0.028 H 
ATOM     25  H14 <0> d          -2.092   0.537   6.466  0.00  0.00     0.028 H 
ENDBRANCH  20  22
BRANCH  20  26
ATOM     26  C9  <0> d          -0.107   2.080   7.521  0.00  0.00    -0.073 C 
ATOM     27  H15 <0> d           0.885   2.530   7.480  0.00  0.00     0.028 H 
ATOM     28  H16 <0> d          -0.703   2.582   8.283  0.00  0.00     0.028 H 
ATOM     29  H17 <0> d          -0.016   1.022   7.770  0.00  0.00     0.028 H 
ENDBRANCH  20  26
ENDBRANCH  17  20
ENDBRANCH   1  17
TORSDOF 9
