REMARK  3 active torsions:
REMARK  status: ('A' for Active; 'I' for Inactive)
REMARK    1  A    between atoms: C1_1  and  C2_2 
REMARK    2  A    between atoms: C2_2  and  C3_3 
REMARK    3  A    between atoms: C3_3  and  C4_4 
ROOT
ATOM      1  C4  <0> d           0.000   1.080   2.488  0.00  0.00    -0.041 A 
ATOM      2  C5  <0> d          -0.341  -0.136   3.061  0.00  0.00    -0.074 A 
ATOM      3  C6  <0> d           0.359  -0.557   4.181  0.00  0.00    -0.066 A 
ATOM      4  C7  <0> d           1.361   0.247   4.690  0.00  0.00     0.002 A 
ATOM      5  N1  <0> d           1.655   1.400   4.122  0.00  0.00    -0.273 NA
ATOM      6  C8  <0> d           1.013   1.831   3.053  0.00  0.00     0.008 A 
ATOM      7  H8  <0> d          -1.132  -0.742   2.643  0.00  0.00     0.084 H 
ATOM      8  H9  <0> d           0.123  -1.500   4.651  0.00  0.00     0.085 H 
ATOM      9  H10 <0> d           1.909  -0.072   5.565  0.00  0.00     0.114 H 
ATOM     10  H11 <0> d           1.282   2.780   2.615  0.00  0.00     0.115 H 
ENDROOT
BRANCH   1  11
ATOM     11  C3  <0> d          -0.729   1.579   1.267  0.00  0.00    -0.040 C 
ATOM     12  H6  <0> d          -0.744   2.669   1.273  0.00  0.00     0.040 H 
ATOM     13  H7  <0> d          -1.751   1.202   1.275  0.00  0.00     0.040 H 
BRANCH  11  14
ATOM     14  C2  <0> d          -0.013   1.086   0.008  0.00  0.00    -0.065 C 
ATOM     15  H4  <0> d           0.002  -0.004   0.002  0.00  0.00     0.032 H 
ATOM     16  H5  <0> d           1.010   1.463   0.000  0.00  0.00     0.032 H 
BRANCH  14  17
ATOM     17  C1  <0> d          -0.753   1.593  -1.232  0.00  0.00    -0.076 C 
ATOM     18  H1  <0> d          -1.775   1.215  -1.224  0.00  0.00     0.027 H 
ATOM     19  H2  <0> d          -0.767   2.683  -1.226  0.00  0.00     0.027 H 
ATOM     20  H3  <0> d          -0.242   1.241  -2.128  0.00  0.00     0.027 H 
ENDBRANCH  14  17
ENDBRANCH  11  14
ENDBRANCH   1  11
TORSDOF 3
