REMARK  4 active torsions:
REMARK  status: ('A' for Active; 'I' for Inactive)
REMARK    1  A    between atoms: C1_1  and  C2_2 
REMARK    2  A    between atoms: C2_2  and  O1_3 
REMARK    3  A    between atoms: O1_3  and  C3_4 
REMARK    4  A    between atoms: C5_7  and  C6_9 
ROOT
ATOM      1  C3  <0> d           0.455   2.223  -1.254  0.00  0.00     0.052 A 
ATOM      2  H1  <0> d           0.048   2.970  -1.952  0.00  0.00     0.084 H 
ATOM      3  C4  <0> d           1.329   2.228   0.001  0.00  0.00    -0.025 A 
ATOM      4  C5  <0> d          -0.018   1.503   0.010  0.00  0.00     0.058 A 
ATOM      5  H2  <0> d          -0.921   1.533   0.639  0.00  0.00     0.060 H 
ATOM      6  H8  <0> d           2.298   1.758  -0.225  0.00  0.00     0.038 H 
ATOM      7  H9  <0> d           1.492   3.264   0.331  0.00  0.00     0.038 H 
ENDROOT
BRANCH   1   8
ATOM      8  O1  <0> d           0.882   1.415  -2.353  0.00  0.00    -0.385 OA
BRANCH   8   9
ATOM      9  C2  <0> d           0.664   2.011  -3.633  0.00  0.00     0.017 C 
ATOM     10  H6  <0> d           1.216   2.961  -3.693  0.00  0.00     0.073 H 
ATOM     11  H7  <0> d          -0.411   2.203  -3.769  0.00  0.00     0.073 H 
BRANCH   9  12
ATOM     12  C1  <0> d           1.156   1.064  -4.728  0.00  0.00    -0.056 C 
ATOM     13  H3  <0> d           0.988   1.523  -5.713  0.00  0.00     0.030 H 
ATOM     14  H4  <0> d           0.604   0.114  -4.667  0.00  0.00     0.030 H 
ATOM     15  H5  <0> d           2.231   0.872  -4.591  0.00  0.00     0.030 H 
ENDBRANCH   9  12
ENDBRANCH   8   9
ENDBRANCH   1   8
BRANCH   4  16
ATOM     16  C6  <0> d           0.002  -0.004   0.002  0.00  0.00     0.179 C 
ATOM     17  O2  <0> d           0.383  -0.598  -0.979  0.00  0.00    -0.648 OA
ATOM     18  O3  <0> d          -0.402  -0.687   1.085  0.00  0.00    -0.648 OA
ENDBRANCH   4  16
TORSDOF 4
