REMARK  2 active torsions:
REMARK  status: ('A' for Active; 'I' for Inactive)
REMARK    1  A    between atoms: C1_1  and  O1_2 
REMARK    2  A    between atoms: O1_2  and  C2_3 
ROOT
ATOM      1  C2  <0> d           1.158   1.779   0.001  0.00  0.00     0.069 A 
ATOM      2  C3  <0> d           1.156   3.177   0.007  0.00  0.00    -0.050 A 
ATOM      3  C4  <0> d          -0.012   3.874   0.022  0.00  0.00    -0.070 A 
ATOM      4  C5  <0> d          -1.236   3.183   0.030  0.00  0.00    -0.026 A 
ATOM      5  C6  <0> d          -2.461   3.871   0.045  0.00  0.00    -0.072 A 
ATOM      6  C7  <0> d          -3.628   3.171   0.054  0.00  0.00    -0.082 A 
ATOM      7  C8  <0> d          -3.628   1.777   0.047  0.00  0.00    -0.082 A 
ATOM      8  C9  <0> d          -2.461   1.076   0.032  0.00  0.00    -0.072 A 
ATOM      9  C10 <0> d          -1.236   1.766   0.018  0.00  0.00    -0.023 A 
ATOM     10  C11 <0> d          -0.013   1.076   0.008  0.00  0.00    -0.040 A 
ATOM     11  H4  <0> d           2.095   3.711   0.000  0.00  0.00     0.087 H 
ATOM     12  H5  <0> d           0.002   4.954   0.026  0.00  0.00     0.085 H 
ATOM     13  H6  <0> d          -2.476   4.951   0.051  0.00  0.00     0.084 H 
ATOM     14  H7  <0> d          -4.567   3.703   0.066  0.00  0.00     0.083 H 
ATOM     15  H8  <0> d          -4.568   1.245   0.053  0.00  0.00     0.083 H 
ATOM     16  H9  <0> d          -2.477  -0.004   0.026  0.00  0.00     0.084 H 
ATOM     17  H10 <0> d           0.002  -0.004   0.002  0.00  0.00     0.089 H 
ENDROOT
BRANCH   1  18
ATOM     18  O1  <0> d           2.341   1.110  -0.014  0.00  0.00    -0.356 OA
BRANCH  18  19
ATOM     19  C1  <0> d           3.533   1.900  -0.021  0.00  0.00     0.010 C 
ATOM     20  H1  <0> d           3.560   2.524   0.872  0.00  0.00     0.066 H 
ATOM     21  H2  <0> d           4.403   1.244  -0.032  0.00  0.00     0.066 H 
ATOM     22  H3  <0> d           3.543   2.533  -0.908  0.00  0.00     0.066 H 
ENDBRANCH  18  19
ENDBRANCH   1  18
TORSDOF 2
