REMARK  3 active torsions:
REMARK  status: ('A' for Active; 'I' for Inactive)
REMARK    1  A    between atoms: C1_1  and  C2_2 
REMARK    2  A    between atoms: C2_2  and  C7_9 
REMARK    3  A    between atoms: C7_9  and  C8_10 
ROOT
ATOM      1  C2  <0> d          -2.157   2.003  -0.701  0.00  0.00     0.080 C 
ATOM      2  C3  <0> d          -0.782   1.605  -1.188  0.00  0.00     0.143 C 
ATOM      3  O1  <0> d          -0.372   1.688  -2.321  0.00  0.00    -0.297 OA
ATOM      4  C4  <0> d          -0.013   1.086   0.008  0.00  0.00    -0.002 C 
ATOM      5  C5  <0> d          -0.772   1.601   1.246  0.00  0.00    -0.002 C 
ATOM      6  C6  <0> d          -2.215   1.721   0.785  0.00  0.00     0.143 C 
ATOM      7  O2  <0> d          -3.206   1.615   1.466  0.00  0.00    -0.297 OA
ATOM      8  H4  <0> d           0.013   0.087  -0.021  0.00  0.00     0.044 H 
ATOM      9  H5  <0> d           1.005   1.476   0.000  0.00  0.00     0.044 H 
ATOM     10  H6  <0> d          -0.664   0.951   1.998  0.00  0.00     0.044 H 
ATOM     11  H7  <0> d          -0.387   2.575   1.549  0.00  0.00     0.044 H 
ENDROOT
BRANCH   1  12
ATOM     12  C1  <0> d          -3.223   1.179  -1.427  0.00  0.00    -0.056 C 
ATOM     13  H1  <0> d          -3.054   0.119  -1.237  0.00  0.00     0.029 H 
ATOM     14  H2  <0> d          -4.210   1.461  -1.062  0.00  0.00     0.029 H 
ATOM     15  H3  <0> d          -3.162   1.371  -2.498  0.00  0.00     0.029 H 
ENDBRANCH   1  12
BRANCH   1  16
ATOM     16  C7  <0> d          -2.388   3.493  -0.958  0.00  0.00    -0.031 C 
ATOM     17  H8  <0> d          -1.636   4.075  -0.426  0.00  0.00     0.041 H 
ATOM     18  H9  <0> d          -2.313   3.693  -2.027  0.00  0.00     0.041 H 
BRANCH  16  19
ATOM     19  C8  <0> d          -3.760   3.880  -0.469  0.00  0.00    -0.110 C 
ATOM     20  C9  <0> d          -3.898   4.861   0.388  0.00  0.00    -0.125 C 
ATOM     21  H11 <0> d          -3.028   5.392   0.745  0.00  0.00     0.066 H 
ATOM     22  H12 <0> d          -4.881   5.138   0.739  0.00  0.00     0.066 H 
ATOM     23  H10 <0> d          -4.630   3.349  -0.826  0.00  0.00     0.075 H 
ENDBRANCH  16  19
ENDBRANCH   1  16
TORSDOF 3
