REMARK  2 active torsions:
REMARK  status: ('A' for Active; 'I' for Inactive)
REMARK    1  A    between atoms: C1_1  and  C2_2 
REMARK    2  A    between atoms: C5_6  and  N2_11 
ROOT
ATOM      1  C2  <0> d           0.002  -0.004   0.002  0.00  0.00     0.142 A 
ATOM      2  N1  <0> d           1.227  -0.438  -0.012  0.00  0.00    -0.226 NA
ATOM      3  C3  <0> d           2.070   0.629  -0.014  0.00  0.00     0.095 A 
ATOM      4  C4  <0> d           3.460   0.761  -0.027  0.00  0.00    -0.027 A 
ATOM      5  C5  <0> d           4.028   2.022  -0.026  0.00  0.00     0.028 A 
ATOM      6  C6  <0> d           3.220   3.156  -0.013  0.00  0.00    -0.055 A 
ATOM      7  C7  <0> d           1.847   3.034   0.000  0.00  0.00    -0.046 A 
ATOM      8  C8  <0> d           1.263   1.777  -0.001  0.00  0.00     0.106 A 
ATOM      9  O1  <0> d          -0.016   1.338   0.009  0.00  0.00    -0.294 OA
ATOM     10  H4  <0> d           4.088  -0.118  -0.038  0.00  0.00     0.090 H 
ATOM     11  H5  <0> d           3.672   4.137  -0.012  0.00  0.00     0.087 H 
ATOM     12  H6  <0> d           1.226   3.918   0.011  0.00  0.00     0.087 H 
ENDROOT
BRANCH   1  13
ATOM     13  C1  <0> d          -1.223  -0.882   0.009  0.00  0.00    -0.015 C 
ATOM     14  H1  <0> d          -2.117  -0.259   0.020  0.00  0.00     0.038 H 
ATOM     15  H2  <0> d          -1.227  -1.507  -0.884  0.00  0.00     0.038 H 
ATOM     16  H3  <0> d          -1.210  -1.516   0.896  0.00  0.00     0.038 H 
ENDBRANCH   1  13
BRANCH   5  17
ATOM     17  N2  <0> d           5.420   2.158  -0.039  0.00  0.00    -0.399 N 
ATOM     18  H7  <0> d           5.985   1.370  -0.048  0.00  0.00     0.156 HD
ATOM     19  H8  <0> d           5.821   3.042  -0.038  0.00  0.00     0.156 HD
ENDBRANCH   5  17
TORSDOF 2
