REMARK  2 active torsions:
REMARK  status: ('A' for Active; 'I' for Inactive)
REMARK    1  A    between atoms: C1_1  and  C2_2 
REMARK    2  A    between atoms: C5_5  and  C7_8 
ROOT
ATOM      1  C2  <0> d           1.262   5.791   0.020  0.00  0.00     0.030 A 
ATOM      2  C3  <0> d           2.470   5.115   0.005  0.00  0.00    -0.059 A 
ATOM      3  C4  <0> d           2.471   3.732  -0.002  0.00  0.00    -0.063 A 
ATOM      4  C5  <0> d           1.238   3.067   0.007  0.00  0.00     0.058 A 
ATOM      5  C6  <0> d           0.065   3.822   0.016  0.00  0.00     0.019 A 
ATOM      6  N1  <0> d           0.116   5.138   0.028  0.00  0.00    -0.265 NA
ATOM      7  H4  <0> d           3.401   5.662  -0.000  0.00  0.00     0.086 H 
ATOM      8  H5  <0> d           3.398   3.179  -0.013  0.00  0.00     0.085 H 
ATOM      9  H6  <0> d          -0.893   3.324   0.018  0.00  0.00     0.116 H 
ENDROOT
BRANCH   1  10
ATOM     10  C1  <0> d           1.257   7.298   0.028  0.00  0.00    -0.035 C 
ATOM     11  H1  <0> d           1.246   7.667  -0.997  0.00  0.00     0.035 H 
ATOM     12  H2  <0> d           0.370   7.655   0.552  0.00  0.00     0.035 H 
ATOM     13  H3  <0> d           2.150   7.662   0.536  0.00  0.00     0.035 H 
ENDBRANCH   1  10
BRANCH   4  14
ATOM     14  C7  <0> d           1.181   1.591  -0.001  0.00  0.00     0.210 C 
ATOM     15  O1  <0> d           2.208   0.943  -0.014  0.00  0.00    -0.644 OA
ATOM     16  O2  <0> d          -0.011   0.963   0.007  0.00  0.00    -0.644 OA
ENDBRANCH   4  14
TORSDOF 2
