REMARK  7 active torsions:
REMARK  status: ('A' for Active; 'I' for Inactive)
REMARK    1  A    between atoms: C1_1  and  C2_2 
REMARK    2  A    between atoms: C2_2  and  N1_3 
REMARK    3  A    between atoms: N1_3  and  C3_4 
REMARK       I    between atoms: N1_3  and  C6_8 
REMARK    4  A    between atoms: C3_4  and  C4_5 
REMARK    5  A    between atoms: C4_5  and  O1_6 
REMARK    6  A    between atoms: O1_6  and  C5_7 
REMARK    7  A    between atoms: C6_8  and  C7_10 
ROOT
ATOM      1  N1  <0> d           0.986   1.853   0.017  0.00  0.00    -0.351 N 
ATOM      2  C6  <0> d          -0.095   1.048   0.038  0.00  0.00     0.215 C 
ATOM      3  O2  <0> d           0.046  -0.157   0.013  0.00  0.00    -0.274 OA
ENDROOT
BRANCH   1   4
ATOM      4  C2  <0> d           0.815   3.306  -0.065  0.00  0.00    -0.006 C 
ATOM      5  H4  <0> d           1.625   3.734  -0.657  0.00  0.00     0.063 H 
ATOM      6  H5  <0> d          -0.140   3.533  -0.538  0.00  0.00     0.063 H 
BRANCH   4   7
ATOM      7  C1  <0> d           0.842   3.902   1.343  0.00  0.00    -0.061 C 
ATOM      8  H1  <0> d           0.715   4.983   1.282  0.00  0.00     0.029 H 
ATOM      9  H2  <0> d           0.032   3.474   1.935  0.00  0.00     0.029 H 
ATOM     10  H3  <0> d           1.797   3.675   1.816  0.00  0.00     0.029 H 
ENDBRANCH   4   7
ENDBRANCH   1   4
BRANCH   1  11
ATOM     11  C3  <0> d           2.331   1.275   0.074  0.00  0.00     0.017 C 
ATOM     12  H6  <0> d           3.006   1.976   0.565  0.00  0.00     0.067 H 
ATOM     13  H7  <0> d           2.302   0.343   0.639  0.00  0.00     0.067 H 
BRANCH  11  14
ATOM     14  C4  <0> d           2.828   0.997  -1.345  0.00  0.00     0.034 C 
ATOM     15  H8  <0> d           3.790   0.486  -1.300  0.00  0.00     0.076 H 
ATOM     16  H9  <0> d           2.107   0.366  -1.866  0.00  0.00     0.076 H 
BRANCH  14  17
ATOM     17  O1  <0> d           2.977   2.231  -2.049  0.00  0.00    -0.394 OA
BRANCH  17  18
ATOM     18  C5  <0> d           3.439   2.082  -3.393  0.00  0.00     0.004 C 
ATOM     19  H10 <0> d           2.730   1.475  -3.956  0.00  0.00     0.066 H 
ATOM     20  H11 <0> d           3.526   3.064  -3.858  0.00  0.00     0.066 H 
ATOM     21  H12 <0> d           4.414   1.594  -3.390  0.00  0.00     0.066 H 
ENDBRANCH  17  18
ENDBRANCH  14  17
ENDBRANCH  11  14
ENDBRANCH   1  11
BRANCH   2  22
ATOM     22  C7  <0> d          -1.478   1.644   0.088  0.00  0.00    -0.003 C 
ATOM     23  H13 <0> d          -1.743   1.860   1.123  0.00  0.00     0.040 H 
ATOM     24  H14 <0> d          -1.497   2.567  -0.491  0.00  0.00     0.040 H 
ATOM     25  H15 <0> d          -2.194   0.937  -0.330  0.00  0.00     0.040 H 
ENDBRANCH   2  22
TORSDOF 7
