REMARK  7 active torsions:
REMARK  status: ('A' for Active; 'I' for Inactive)
REMARK    1  A    between atoms: C1_1  and  C2_2 
REMARK    2  A    between atoms: C2_2  and  C3_4 
REMARK    3  A    between atoms: C2_2  and  C4_6 
REMARK    4  A    between atoms: C3_4  and  O1_5 
REMARK    5  A    between atoms: C4_6  and  C5_8 
REMARK    6  A    between atoms: C4_6  and  C6_9 
REMARK    7  A    between atoms: C6_9  and  O2_10 
ROOT
ATOM      1  C2  <0> d           0.002  -0.004   0.002  0.00  0.00    -0.032 C 
ATOM      2  H1  <0> d           0.512  -0.356  -0.895  0.00  0.00     0.043 H 
ENDROOT
BRANCH   1   3
ATOM      3  C1  <0> d          -0.019   1.526   0.010  0.00  0.00    -0.071 C 
ATOM      4  H3  <0> d           1.004   1.903   0.003  0.00  0.00     0.028 H 
ATOM      5  H4  <0> d          -0.546   1.887  -0.873  0.00  0.00     0.028 H 
ATOM      6  H5  <0> d          -0.529   1.877   0.907  0.00  0.00     0.028 H 
ENDBRANCH   1   3
BRANCH   1   7
ATOM      7  C3  <0> d          -1.433  -0.534   0.013  0.00  0.00     0.020 C 
ATOM      8  H6  <0> d          -1.419  -1.620   0.097  0.00  0.00     0.074 H 
ATOM      9  H7  <0> d          -1.970  -0.111   0.862  0.00  0.00     0.074 H 
BRANCH   7  10
ATOM     10  O1  <0> d          -2.089  -0.158  -1.200  0.00  0.00    -0.400 OA
ATOM     11  H8  <0> d          -3.005  -0.461  -1.262  0.00  0.00     0.209 HD
ENDBRANCH   7  10
ENDBRANCH   1   7
BRANCH   1  12
ATOM     12  C4  <0> d           0.742  -0.511   1.242  0.00  0.00    -0.032 C 
ATOM     13  H2  <0> d           0.232  -0.159   2.138  0.00  0.00     0.043 H 
BRANCH  12  14
ATOM     14  C5  <0> d           2.178   0.019   1.231  0.00  0.00    -0.071 C 
ATOM     15  H9  <0> d           2.163   1.109   1.237  0.00  0.00     0.028 H 
ATOM     16  H10 <0> d           2.705  -0.342   2.114  0.00  0.00     0.028 H 
ATOM     17  H11 <0> d           2.688  -0.333   0.334  0.00  0.00     0.028 H 
ENDBRANCH  12  14
BRANCH  12  18
ATOM     18  C6  <0> d           0.763  -2.041   1.233  0.00  0.00     0.020 C 
ATOM     19  H12 <0> d          -0.257  -2.417   1.151  0.00  0.00     0.074 H 
ATOM     20  H13 <0> d           1.349  -2.392   0.384  0.00  0.00     0.074 H 
BRANCH  18  21
ATOM     21  O2  <0> d           1.350  -2.516   2.446  0.00  0.00    -0.400 OA
ATOM     22  H14 <0> d           1.396  -3.480   2.510  0.00  0.00     0.209 HD
ENDBRANCH  18  21
ENDBRANCH  12  18
ENDBRANCH   1  12
TORSDOF 7
