REMARK  4 active torsions:
REMARK  status: ('A' for Active; 'I' for Inactive)
REMARK    1  A    between atoms: C1_1  and  C2_2 
REMARK    2  A    between atoms: C2_2  and  C3_3 
REMARK    3  A    between atoms: C5_5  and  C7_9 
REMARK    4  A    between atoms: C7_9  and  C8_10 
ROOT
ATOM      1  C3  <0> d           0.707  -0.490  -1.238  0.00  0.00    -0.041 A 
ATOM      2  C4  <0> d           0.110  -0.764  -2.484  0.00  0.00    -0.054 A 
ATOM      3  C5  <0> d           1.087  -1.173  -3.319  0.00  0.00     0.009 A 
ATOM      4  N1  <0> d           2.265  -1.161  -2.634  0.00  0.00    -0.369 N 
ATOM      5  H1  <0> d           3.131  -1.410  -2.994  0.00  0.00     0.165 HD
ATOM      6  C6  <0> d           2.027  -0.737  -1.360  0.00  0.00    -0.017 A 
ATOM      7  H7  <0> d          -0.938  -0.665  -2.726  0.00  0.00     0.087 H 
ATOM      8  H8  <0> d           2.768  -0.621  -0.583  0.00  0.00     0.112 H 
ENDROOT
BRANCH   1   9
ATOM      9  C2  <0> d           0.002  -0.004   0.002  0.00  0.00    -0.043 C 
ATOM     10  H5  <0> d           0.529  -0.365   0.885  0.00  0.00     0.039 H 
ATOM     11  H6  <0> d          -1.020  -0.381   0.010  0.00  0.00     0.039 H 
BRANCH   9  12
ATOM     12  C1  <0> d          -0.019   1.526   0.010  0.00  0.00    -0.073 C 
ATOM     13  H2  <0> d           1.004   1.903   0.003  0.00  0.00     0.028 H 
ATOM     14  H3  <0> d          -0.546   1.887  -0.873  0.00  0.00     0.028 H 
ATOM     15  H4  <0> d          -0.529   1.877   0.907  0.00  0.00     0.028 H 
ENDBRANCH   9  12
ENDBRANCH   1   9
BRANCH   3  16
ATOM     16  C7  <0> d           0.906  -1.574  -4.760  0.00  0.00    -0.030 C 
ATOM     17  H9  <0> d           1.709  -2.251  -5.052  0.00  0.00     0.041 H 
ATOM     18  H10 <0> d          -0.054  -2.075  -4.881  0.00  0.00     0.041 H 
BRANCH  16  19
ATOM     19  C8  <0> d           0.945  -0.326  -5.645  0.00  0.00    -0.071 C 
ATOM     20  H11 <0> d           0.814  -0.616  -6.688  0.00  0.00     0.028 H 
ATOM     21  H12 <0> d           0.142   0.351  -5.353  0.00  0.00     0.028 H 
ATOM     22  H13 <0> d           1.905   0.176  -5.525  0.00  0.00     0.028 H 
ENDBRANCH  16  19
ENDBRANCH   3  16
TORSDOF 4
