REMARK  0 active torsions:
REMARK  status: ('A' for Active; 'I' for Inactive)
ROOT
ATOM      1  C1  <0> d          -0.774   3.598   0.029  0.00  0.00    -0.065 A 
ATOM      2  C2  <0> d           0.552   4.059   0.019  0.00  0.00    -0.041 A 
ATOM      3  C3  <0> d           1.578   3.164   0.004  0.00  0.00     0.162 A 
ATOM      4  C4  <0> d           1.288   1.782  -0.001  0.00  0.00     0.172 A 
ATOM      5  N1  <0> d           2.064   0.708  -0.014  0.00  0.00    -0.239 NA
ATOM      6  C5  <0> d           1.298  -0.386  -0.012  0.00  0.00     0.020 A 
ATOM      7  C6  <0> d           0.002  -0.004   0.002  0.00  0.00     0.003 A 
ATOM      8  N2  <0> d          -0.017   1.364   0.009  0.00  0.00    -0.314 N 
ATOM      9  C7  <0> d          -1.035   2.274   0.029  0.00  0.00    -0.014 A 
ATOM     10  F1  <0> d           2.859   3.593  -0.006  0.00  0.00    -0.202 F 
ATOM     11  H1  <0> d          -1.590   4.306   0.040  0.00  0.00     0.085 H 
ATOM     12  H2  <0> d           0.758   5.120   0.022  0.00  0.00     0.088 H 
ATOM     13  H3  <0> d           1.655  -1.405  -0.021  0.00  0.00     0.117 H 
ATOM     14  H4  <0> d          -0.858  -0.657   0.006  0.00  0.00     0.114 H 
ATOM     15  H5  <0> d          -2.059   1.930   0.042  0.00  0.00     0.112 H 
ENDROOT
TORSDOF 0
