REMARK  3 active torsions:
REMARK  status: ('A' for Active; 'I' for Inactive)
REMARK    1  A    between atoms: C1_1  and  C2_2 
REMARK    2  A    between atoms: C5_6  and  C7_9 
REMARK    3  A    between atoms: C6_7  and  N2_8 
ROOT
ATOM      1  C2  <0> d          -0.017   1.381   0.010  0.00  0.00    -0.032 A 
ATOM      2  C3  <0> d           0.002  -0.004   0.002  0.00  0.00    -0.058 A 
ATOM      3  C4  <0> d           1.217  -0.663  -0.013  0.00  0.00     0.003 A 
ATOM      4  N1  <0> d           2.352   0.009  -0.021  0.00  0.00    -0.264 NA
ATOM      5  C5  <0> d           2.380   1.326  -0.014  0.00  0.00     0.057 A 
ATOM      6  C6  <0> d           1.200   2.059   0.002  0.00  0.00     0.056 A 
ATOM      7  H4  <0> d          -0.922  -0.563   0.007  0.00  0.00     0.086 H 
ATOM      8  H5  <0> d           1.237  -1.743  -0.019  0.00  0.00     0.114 H 
ENDROOT
BRANCH   1   9
ATOM      9  C1  <0> d          -1.321   2.136   0.020  0.00  0.00    -0.049 C 
ATOM     10  H1  <0> d          -1.631   2.312   1.050  0.00  0.00     0.033 H 
ATOM     11  H2  <0> d          -1.193   3.091  -0.489  0.00  0.00     0.033 H 
ATOM     12  H3  <0> d          -2.084   1.550  -0.493  0.00  0.00     0.033 H 
ENDBRANCH   1   9
BRANCH   6  13
ATOM     13  N2  <0> d           1.233   3.456   0.008  0.00  0.00    -0.397 N 
ATOM     14  H6  <0> d           0.405   3.961   0.019  0.00  0.00     0.156 HD
ATOM     15  H7  <0> d           2.084   3.921   0.003  0.00  0.00     0.156 HD
ENDBRANCH   6  13
BRANCH   5  16
ATOM     16  C7  <0> d           3.704   2.045  -0.023  0.00  0.00    -0.033 C 
ATOM     17  H8  <0> d           4.014   2.224  -1.053  0.00  0.00     0.035 H 
ATOM     18  H9  <0> d           3.605   2.998   0.497  0.00  0.00     0.035 H 
ATOM     19  H10 <0> d           4.453   1.433   0.480  0.00  0.00     0.035 H 
ENDBRANCH   5  16
TORSDOF 3
