REMARK  1 active torsions:
REMARK  status: ('A' for Active; 'I' for Inactive)
REMARK    1  A    between atoms: C8_10  and  N2_11 
ROOT
ATOM      1  C1  <0> d          -0.017   1.390   0.010  0.00  0.00    -0.056 A 
ATOM      2  C2  <0> d           1.159   2.107   0.002  0.00  0.00    -0.054 A 
ATOM      3  C3  <0> d           2.380   1.441  -0.013  0.00  0.00     0.042 A 
ATOM      4  C4  <0> d           2.403   0.035  -0.021  0.00  0.00    -0.006 A 
ATOM      5  C5  <0> d           3.817  -0.347  -0.037  0.00  0.00    -0.056 A 
ATOM      6  C6  <0> d           4.532   0.790  -0.038  0.00  0.00    -0.022 A 
ATOM      7  N1  <0> d           3.691   1.869  -0.024  0.00  0.00    -0.365 N 
ATOM      8  H1  <0> d           3.975   2.796  -0.022  0.00  0.00     0.165 HD
ATOM      9  C7  <0> d           1.206  -0.684  -0.013  0.00  0.00    -0.046 A 
ATOM     10  C8  <0> d           0.002  -0.004   0.002  0.00  0.00     0.026 A 
ATOM     11  H2  <0> d          -0.962   1.912   0.026  0.00  0.00     0.087 H 
ATOM     12  H3  <0> d           1.133   3.186   0.008  0.00  0.00     0.087 H 
ATOM     13  H4  <0> d           4.211  -1.353  -0.046  0.00  0.00     0.086 H 
ATOM     14  H5  <0> d           5.610   0.844  -0.049  0.00  0.00     0.111 H 
ATOM     15  H6  <0> d           1.220  -1.764  -0.019  0.00  0.00     0.088 H 
ENDROOT
BRANCH  10  16
ATOM     16  N2  <0> d          -1.202  -0.718   0.010  0.00  0.00    -0.399 N 
ATOM     17  H7  <0> d          -2.047  -0.243   0.021  0.00  0.00     0.156 HD
ATOM     18  H8  <0> d          -1.191  -1.688   0.005  0.00  0.00     0.156 HD
ENDBRANCH  10  16
TORSDOF 1
