REMARK  0 active torsions:
REMARK  status: ('A' for Active; 'I' for Inactive)
ROOT
ATOM      1  C1  <0> d          -0.016   1.306   0.009  0.00  0.00     0.097 A 
ATOM      2  N1  <0> d           1.134   1.943   0.002  0.00  0.00    -0.221 NA
ATOM      3  C2  <0> d           2.236   1.221  -0.013  0.00  0.00     0.186 A 
ATOM      4  S1  <0> d           1.642  -0.351  -0.015  0.00  0.00     0.045 SA
ATOM      5  N2  <0> d           0.002  -0.004   0.002  0.00  0.00    -0.202 NA
ATOM      6 Cl1  <0> d           3.886   1.760  -0.026  0.00  0.00    -0.053 Cl
ATOM      7  H1  <0> d          -0.950   1.848   0.025  0.00  0.00     0.147 H 
ENDROOT
TORSDOF 0
