REMARK  6 active torsions:
REMARK  status: ('A' for Active; 'I' for Inactive)
REMARK    1  A    between atoms: C1_1  and  C2_2 
REMARK    2  A    between atoms: C2_2  and  C3_3 
REMARK    3  A    between atoms: C3_3  and  C4_4 
REMARK    4  A    between atoms: C3_3  and  C5_6 
REMARK    5  A    between atoms: C4_4  and  O1_5 
REMARK    6  A    between atoms: C5_6  and  O2_7 
ROOT
ATOM      1  C3  <0> d           0.091   0.940   0.236  0.00  0.00    -0.014 C 
ATOM      2  H6  <0> d           0.167  -0.099   0.556  0.00  0.00     0.046 H 
ENDROOT
BRANCH   1   3
ATOM      3  C2  <0> d          -0.771   1.719   1.231  0.00  0.00    -0.061 C 
ATOM      4  H4  <0> d          -0.264   1.764   2.194  0.00  0.00     0.033 H 
ATOM      5  H5  <0> d          -0.932   2.731   0.858  0.00  0.00     0.033 H 
BRANCH   3   6
ATOM      6  C1  <0> d          -2.120   1.016   1.397  0.00  0.00    -0.076 C 
ATOM      7  H1  <0> d          -2.672   1.064   0.459  0.00  0.00     0.027 H 
ATOM      8  H2  <0> d          -1.955  -0.026   1.668  0.00  0.00     0.027 H 
ATOM      9  H3  <0> d          -2.693   1.510   2.182  0.00  0.00     0.027 H 
ENDBRANCH   3   6
ENDBRANCH   1   3
BRANCH   1  10
ATOM     10  C4  <0> d           1.489   1.559   0.178  0.00  0.00     0.022 C 
ATOM     11  H7  <0> d           2.073   1.066  -0.599  0.00  0.00     0.074 H 
ATOM     12  H8  <0> d           1.406   2.622  -0.050  0.00  0.00     0.074 H 
BRANCH  10  13
ATOM     13  O1  <0> d           2.137   1.392   1.440  0.00  0.00    -0.400 OA
ATOM     14  H9  <0> d           3.030   1.761   1.476  0.00  0.00     0.209 HD
ENDBRANCH  10  13
ENDBRANCH   1  10
BRANCH   1  15
ATOM     15  C5  <0> d          -0.551   1.000  -1.152  0.00  0.00     0.022 C 
ATOM     16  H10 <0> d          -1.578   0.640  -1.092  0.00  0.00     0.074 H 
ATOM     17  H11 <0> d          -0.546   2.029  -1.510  0.00  0.00     0.074 H 
BRANCH  15  18
ATOM     18  O2  <0> d           0.190   0.177  -2.055  0.00  0.00    -0.400 OA
ATOM     19  H12 <0> d          -0.162   0.167  -2.956  0.00  0.00     0.209 HD
ENDBRANCH  15  18
ENDBRANCH   1  15
TORSDOF 6
