REMARK  5 active torsions:
REMARK  status: ('A' for Active; 'I' for Inactive)
REMARK    1  A    between atoms: C2_2  and  C3_3 
REMARK    2  A    between atoms: C3_3  and  C4_5 
REMARK    3  A    between atoms: C3_3  and  O2_10 
REMARK    4  A    between atoms: C4_5  and  C5_7 
REMARK    5  A    between atoms: C4_5  and  O1_9 
ROOT
ATOM      1  C3  <0> d          -1.293  -0.775   0.010  0.00  0.00     0.079 C 
ATOM      2  H1  <0> d          -1.374  -1.339   0.939  0.00  0.00     0.093 H 
ENDROOT
BRANCH   1   3
ATOM      3  C2  <0> d           0.002  -0.004   0.002  0.00  0.00    -0.082 C 
ATOM      4  C1  <0> d          -0.016   1.306   0.009  0.00  0.00    -0.122 C 
ATOM      5  H3  <0> d           0.912   1.859   0.003  0.00  0.00     0.066 H 
ATOM      6  H4  <0> d          -0.958   1.833   0.017  0.00  0.00     0.066 H 
ATOM      7  H5  <0> d           0.945  -0.531  -0.010  0.00  0.00     0.079 H 
ENDBRANCH   1   3
BRANCH   1   8
ATOM      8  C4  <0> d          -1.319  -1.741  -1.176  0.00  0.00     0.079 C 
ATOM      9  H2  <0> d          -1.238  -1.177  -2.106  0.00  0.00     0.093 H 
BRANCH   8  10
ATOM     10  C5  <0> d          -2.613  -2.512  -1.168  0.00  0.00    -0.082 C 
ATOM     11  C6  <0> d          -3.431  -2.430  -2.188  0.00  0.00    -0.122 C 
ATOM     12  H7  <0> d          -4.359  -2.982  -2.182  0.00  0.00     0.066 H 
ATOM     13  H8  <0> d          -3.178  -1.809  -3.035  0.00  0.00     0.066 H 
ATOM     14  H6  <0> d          -2.867  -3.132  -0.321  0.00  0.00     0.079 H 
ENDBRANCH   8  10
BRANCH   8  15
ATOM     15  O1  <0> d          -0.222  -2.651  -1.074  0.00  0.00    -0.389 OA
ATOM     16  H9  <0> d          -0.229  -3.187  -0.270  0.00  0.00     0.210 HD
ENDBRANCH   8  15
ENDBRANCH   1   8
BRANCH   1  17
ATOM     17  O2  <0> d          -2.390   0.135  -0.092  0.00  0.00    -0.389 OA
ATOM     18  H10 <0> d          -2.382   0.671  -0.896  0.00  0.00     0.210 HD
ENDBRANCH   1  17
TORSDOF 5
