REMARK  3 active torsions:
REMARK  status: ('A' for Active; 'I' for Inactive)
REMARK    1  A    between atoms: C3_3  and  C4_4 
REMARK    2  A    between atoms: C5_6  and  C6_9 
REMARK    3  A    between atoms: C6_9  and  O2_10 
ROOT
ATOM      1  C4  <0> d           1.969   0.776  -0.013  0.00  0.00     0.160 A 
ATOM      2  N1  <0> d           1.262  -0.368  -0.012  0.00  0.00    -0.206 NA
ATOM      3  C5  <0> d           0.002  -0.004   0.002  0.00  0.00     0.196 A 
ATOM      4  O1  <0> d          -0.016   1.332   0.009  0.00  0.00    -0.194 OA
ATOM      5  N2  <0> d           1.119   1.759   0.001  0.00  0.00    -0.111 NA
ENDROOT
BRANCH   1   6
ATOM      6  C3  <0> d           3.471   0.895  -0.026  0.00  0.00     0.008 A 
ATOM      7  C1  <0> d           4.071   2.288   0.179  0.00  0.00    -0.054 A 
ATOM      8  C2  <0> d           4.111   1.634  -1.204  0.00  0.00    -0.054 A 
ATOM      9  H1  <0> d           3.288   2.976   0.531  0.00  0.00     0.034 H 
ATOM     10  H2  <0> d           4.875   2.234   0.927  0.00  0.00     0.034 H 
ATOM     11  H3  <0> d           3.569   2.266  -1.923  0.00  0.00     0.034 H 
ATOM     12  H4  <0> d           5.156   1.524  -1.527  0.00  0.00     0.034 H 
ATOM     13  H5  <0> d           3.600  -0.091   0.444  0.00  0.00     0.052 H 
ENDBRANCH   1   6
BRANCH   3  14
ATOM     14  C6  <0> d          -1.196  -0.918   0.008  0.00  0.00     0.080 C 
ATOM     15  H6  <0> d          -2.037  -0.423  -0.500  0.00  0.00     0.086 H 
ATOM     16  H7  <0> d          -0.948  -1.851  -0.518  0.00  0.00     0.086 H 
BRANCH  14  17
ATOM     17  O2  <0> d          -1.562  -1.214   1.357  0.00  0.00    -0.393 OA
ATOM     18  H8  <0> d          -2.420  -1.871   1.563  0.00  0.00     0.210 HD
ENDBRANCH  14  17
ENDBRANCH   3  14
TORSDOF 3
