REMARK  2 active torsions:
REMARK  status: ('A' for Active; 'I' for Inactive)
REMARK    1  A    between atoms: C1_1  and  C2_2 
REMARK    2  A    between atoms: C4_4  and  O1_12 
ROOT
ATOM      1  C2  <0> d           0.002  -0.004   0.002  0.00  0.00    -0.028 A 
ATOM      2  C3  <0> d           0.006  -0.679  -1.174  0.00  0.00    -0.043 A 
ATOM      3  C4  <0> d           0.024  -2.079  -1.221  0.00  0.00     0.067 A 
ATOM      4  C5  <0> d           0.040  -2.830  -0.087  0.00  0.00    -0.037 A 
ATOM      5  C6  <0> d           0.037  -2.190   1.171  0.00  0.00     0.014 A 
ATOM      6  C7  <0> d           0.023  -0.720   1.219  0.00  0.00     0.094 A 
ATOM      7  N1  <0> d           0.030  -0.379   2.495  0.00  0.00    -0.174 NA
ATOM      8  N2  <0> d           0.053  -1.541   3.275  0.00  0.00    -0.288 N 
ATOM      9  H1  <0> d           0.062  -1.560   4.245  0.00  0.00     0.188 HD
ATOM     10  C8  <0> d           0.049  -2.623   2.484  0.00  0.00     0.008 A 
ATOM     11  H5  <0> d          -0.006  -0.122  -2.099  0.00  0.00     0.088 H 
ATOM     12  H6  <0> d           0.053  -3.908  -0.149  0.00  0.00     0.089 H 
ATOM     13  H7  <0> d           0.064  -3.652   2.813  0.00  0.00     0.115 H 
ENDROOT
BRANCH   1  14
ATOM     14  C1  <0> d          -0.018   1.503   0.010  0.00  0.00    -0.049 C 
ATOM     15  H2  <0> d           1.004   1.880   0.003  0.00  0.00     0.033 H 
ATOM     16  H3  <0> d          -0.545   1.864  -0.873  0.00  0.00     0.033 H 
ATOM     17  H4  <0> d          -0.529   1.854   0.907  0.00  0.00     0.033 H 
ENDBRANCH   1  14
BRANCH   3  18
ATOM     18  O1  <0> d           0.026  -2.702  -2.430  0.00  0.00    -0.361 OA
ATOM     19  H8  <0> d           0.910  -2.870  -2.784  0.00  0.00     0.217 HD
ENDBRANCH   3  18
TORSDOF 2
