REMARK  2 active torsions:
REMARK  status: ('A' for Active; 'I' for Inactive)
REMARK    1  A    between atoms: C1_1  and  C2_2 
REMARK    2  A    between atoms: C2_2  and  C5_8 
ROOT
ATOM      1  C2  <0> d           0.002  -0.004   0.002  0.00  0.00     0.081 A 
ATOM      2  C3  <0> d          -1.433  -0.564  -0.036  0.00  0.00     0.026 A 
ATOM      3  N1  <0> d          -1.481  -1.321  -1.296  0.00  0.00    -0.334 N 
ATOM      4  C4  <0> d          -0.289  -1.231  -1.901  0.00  0.00     0.361 A 
ATOM      5  O1  <0> d          -0.043  -1.764  -2.965  0.00  0.00    -0.238 OA
ATOM      6  O2  <0> d           0.610  -0.500  -1.226  0.00  0.00    -0.292 OA
ATOM      7  H4  <0> d          -1.610  -1.223   0.814  0.00  0.00     0.068 H 
ATOM      8  H5  <0> d          -2.160   0.248  -0.047  0.00  0.00     0.068 H 
ATOM      9  H6  <0> d          -2.249  -1.808  -1.633  0.00  0.00     0.164 HD
ENDROOT
BRANCH   1  10
ATOM     10  C1  <0> d          -0.019   1.526   0.010  0.00  0.00    -0.046 C 
ATOM     11  H1  <0> d           1.004   1.903   0.003  0.00  0.00     0.031 H 
ATOM     12  H2  <0> d          -0.546   1.887  -0.873  0.00  0.00     0.031 H 
ATOM     13  H3  <0> d          -0.529   1.877   0.907  0.00  0.00     0.031 H 
ENDBRANCH   1  10
BRANCH   1  14
ATOM     14  C5  <0> d           0.753  -0.536   1.225  0.00  0.00    -0.046 C 
ATOM     15  H7  <0> d           0.250  -0.203   2.133  0.00  0.00     0.031 H 
ATOM     16  H8  <0> d           0.769  -1.625   1.196  0.00  0.00     0.031 H 
ATOM     17  H9  <0> d           1.775  -0.157   1.216  0.00  0.00     0.031 H 
ENDBRANCH   1  14
TORSDOF 2
