REMARK  3 active torsions:
REMARK  status: ('A' for Active; 'I' for Inactive)
REMARK    1  A    between atoms: C1_1  and  C2_2 
REMARK    2  A    between atoms: C2_2  and  N1_3 
REMARK    3  A    between atoms: C5_6  and  C6_8 
ROOT
ATOM      1  N1  <0> d           1.067   1.886   0.002  0.00  0.00    -0.281 N 
ATOM      2  C3  <0> d          -0.013   1.076   0.008  0.00  0.00     0.000 A 
ATOM      3  C4  <0> d          -1.116   1.859   0.017  0.00  0.00    -0.041 A 
ATOM      4  C5  <0> d          -0.697   3.193   0.025  0.00  0.00     0.060 A 
ATOM      5  N2  <0> d           0.611   3.211   0.013  0.00  0.00    -0.177 NA
ATOM      6  H6  <0> d           0.002  -0.004   0.002  0.00  0.00     0.114 H 
ATOM      7  H7  <0> d          -2.140   1.514   0.020  0.00  0.00     0.088 H 
ENDROOT
BRANCH   4   8
ATOM      8  C6  <0> d          -1.597   4.402   0.039  0.00  0.00    -0.010 A 
ATOM      9  C8  <0> d          -2.128   4.903  -1.306  0.00  0.00    -0.056 A 
ATOM     10  C7  <0> d          -3.068   4.192  -0.328  0.00  0.00    -0.056 A 
ATOM     11  H11 <0> d          -2.251   5.979  -1.429  0.00  0.00     0.034 H 
ATOM     12  H12 <0> d          -1.827   4.358  -2.201  0.00  0.00     0.034 H 
ATOM     13  H9  <0> d          -3.384   3.180  -0.580  0.00  0.00     0.034 H 
ATOM     14  H10 <0> d          -3.808   4.801   0.191  0.00  0.00     0.034 H 
ATOM     15  H8  <0> d          -1.370   5.148   0.800  0.00  0.00     0.049 H 
ENDBRANCH   4   8
BRANCH   1  16
ATOM     16  C2  <0> d           2.467   1.456  -0.013  0.00  0.00     0.013 C 
ATOM     17  H4  <0> d           2.950   1.760   0.915  0.00  0.00     0.066 H 
ATOM     18  H5  <0> d           2.513   0.372  -0.109  0.00  0.00     0.066 H 
BRANCH  16  19
ATOM     19  C1  <0> d           3.186   2.104  -1.198  0.00  0.00    -0.059 C 
ATOM     20  H1  <0> d           2.703   1.800  -2.127  0.00  0.00     0.029 H 
ATOM     21  H2  <0> d           3.140   3.189  -1.103  0.00  0.00     0.029 H 
ATOM     22  H3  <0> d           4.228   1.784  -1.210  0.00  0.00     0.029 H 
ENDBRANCH  16  19
ENDBRANCH   1  16
TORSDOF 3
