REMARK  1 active torsions:
REMARK  status: ('A' for Active; 'I' for Inactive)
REMARK    1  A    between atoms: C1_1  and  C2_2 
ROOT
ATOM      1  C2  <0> d          -0.729   1.579   1.267  0.00  0.00    -0.034 C 
ATOM      2  H1  <0> d          -1.774   1.270   1.265  0.00  0.00     0.042 H 
ATOM      3  C3  <0> d          -0.605   3.114   1.408  0.00  0.00     0.014 C 
ATOM      4  C4  <0> d          -0.452   3.338   2.897  0.00  0.00     0.217 C 
ATOM      5  O1  <0> d          -0.604   4.402   3.458  0.00  0.00    -0.274 OA
ATOM      6  N1  <0> d          -0.124   2.186   3.506  0.00  0.00    -0.361 N 
ATOM      7  C5  <0> d          -0.009   1.086   2.542  0.00  0.00    -0.001 C 
ATOM      8  H5  <0> d           0.274   3.477   0.876  0.00  0.00     0.047 H 
ATOM      9  H6  <0> d          -1.505   3.605   1.039  0.00  0.00     0.047 H 
ATOM     10  H7  <0> d           0.018   2.094   4.461  0.00  0.00     0.162 HD
ATOM     11  H8  <0> d          -0.498   0.192   2.929  0.00  0.00     0.064 H 
ATOM     12  H9  <0> d           1.040   0.881   2.327  0.00  0.00     0.064 H 
ENDROOT
BRANCH   1  13
ATOM     13  C1  <0> d          -0.013   1.086   0.008  0.00  0.00    -0.071 C 
ATOM     14  H2  <0> d           0.002  -0.004   0.002  0.00  0.00     0.028 H 
ATOM     15  H3  <0> d           1.010   1.463   0.000  0.00  0.00     0.028 H 
ATOM     16  H4  <0> d          -0.540   1.447  -0.875  0.00  0.00     0.028 H 
ENDBRANCH   1  13
TORSDOF 1
