REMARK  5 active torsions:
REMARK  status: ('A' for Active; 'I' for Inactive)
REMARK    1  A    between atoms: C1_1  and  C2_2 
REMARK    2  A    between atoms: C2_2  and  O1_3 
REMARK    3  A    between atoms: O1_3  and  C3_4 
REMARK    4  A    between atoms: C5_6  and  C7_11 
REMARK    5  A    between atoms: C6_8  and  N3_10 
ROOT
ATOM      1  C3  <0> d          -0.793   3.328   1.348  0.00  0.00     0.185 A 
ATOM      2  C4  <0> d          -1.437   3.857   2.466  0.00  0.00    -0.007 A 
ATOM      3  C5  <0> d          -1.517   5.230   2.593  0.00  0.00     0.054 A 
ATOM      4  N1  <0> d          -0.993   5.999   1.651  0.00  0.00    -0.068 NA
ATOM      5  C6  <0> d          -0.391   5.469   0.597  0.00  0.00     0.722 A 
ATOM      6  N2  <0> d          -0.290   4.157   0.442  0.00  0.00    -0.039 NA
ATOM      7  H6  <0> d          -1.860   3.207   3.218  0.00  0.00     0.093 H 
ENDROOT
BRANCH   1   8
ATOM      8  O1  <0> d          -0.688   1.987   1.186  0.00  0.00    -0.334 OA
BRANCH   8   9
ATOM      9  C2  <0> d          -0.019   1.526   0.010  0.00  0.00     0.024 C 
ATOM     10  H4  <0> d           1.004   1.903   0.003  0.00  0.00     0.074 H 
ATOM     11  H5  <0> d          -0.546   1.887  -0.873  0.00  0.00     0.074 H 
BRANCH   9  12
ATOM     12  C1  <0> d           0.002  -0.004   0.002  0.00  0.00    -0.056 C 
ATOM     13  H1  <0> d           0.529  -0.365   0.885  0.00  0.00     0.030 H 
ATOM     14  H2  <0> d          -1.020  -0.381   0.010  0.00  0.00     0.030 H 
ATOM     15  H3  <0> d           0.512  -0.356  -0.895  0.00  0.00     0.030 H 
ENDBRANCH   9  12
ENDBRANCH   8   9
ENDBRANCH   1   8
BRANCH   5  16
ATOM     16  N3  <0> d           0.144   6.305  -0.367  0.00  0.00    -0.231 N 
ATOM     17  H7  <0> d           0.587   5.929  -1.144  0.00  0.00     0.174 HD
ATOM     18  H8  <0> d           0.076   7.268  -0.266  0.00  0.00     0.174 HD
ENDBRANCH   5  16
BRANCH   3  19
ATOM     19  C7  <0> d          -2.198   5.847   3.788  0.00  0.00    -0.035 C 
ATOM     20  H9  <0> d          -3.257   5.986   3.571  0.00  0.00     0.035 H 
ATOM     21  H10 <0> d          -2.087   5.188   4.649  0.00  0.00     0.035 H 
ATOM     22  H11 <0> d          -1.742   6.812   4.008  0.00  0.00     0.035 H 
ENDBRANCH   3  19
TORSDOF 5
