REMARK  1 active torsions:
REMARK  status: ('A' for Active; 'I' for Inactive)
REMARK    1  A    between atoms: C2_2  and  N3_10 
ROOT
ATOM      1  C1  <0> d          -2.422   0.922   0.018  0.00  0.00     0.010 A 
ATOM      2  C2  <0> d          -1.212   1.638   0.017  0.00  0.00     0.110 A 
ATOM      3  N1  <0> d          -1.234   2.966   0.030  0.00  0.00    -0.182 NA
ATOM      4  C3  <0> d          -2.389   3.628   0.034  0.00  0.00     0.349 A 
ATOM      5  O1  <0> d          -2.380   4.848   0.041  0.00  0.00    -0.244 OA
ATOM      6  N2  <0> d          -3.565   2.975   0.036  0.00  0.00    -0.283 N 
ATOM      7  H1  <0> d          -4.421   3.492   0.043  0.00  0.00     0.173 HD
ATOM      8  C4  <0> d          -3.595   1.611   0.028  0.00  0.00     0.195 A 
ATOM      9  F1  <0> d          -4.775   0.953   0.031  0.00  0.00    -0.186 F 
ATOM     10  H2  <0> d          -2.421  -0.158   0.013  0.00  0.00     0.095 H 
ENDROOT
BRANCH   2  11
ATOM     11  N3  <0> d          -0.011   0.966   0.007  0.00  0.00    -0.287 NA
ATOM     12  H3  <0> d           0.055   0.391   0.823  0.00  0.00     0.125 HD
ATOM     13  H4  <0> d           0.822   1.462   0.002  0.00  0.00     0.125 HD
ENDBRANCH   2  11
TORSDOF 1
