REMARK  5 active torsions:
REMARK  status: ('A' for Active; 'I' for Inactive)
REMARK    1  A    between atoms: C1_1  and  C2_2 
REMARK    2  A    between atoms: C2_2  and  C3_4 
REMARK    3  A    between atoms: C2_2  and  C7_10 
REMARK    4  A    between atoms: C3_4  and  N1_5 
REMARK    5  A    between atoms: C7_10  and  O1_11 
ROOT
ATOM      1  C2  <0> d          -1.433  -0.534   0.013  0.00  0.00    -0.020 C 
ATOM      2  H1  <0> d          -1.986  -0.102  -0.821  0.00  0.00     0.045 H 
ENDROOT
BRANCH   1   3
ATOM      3  C1  <0> d          -2.110  -0.145   1.329  0.00  0.00    -0.069 C 
ATOM      4  H2  <0> d          -2.123   0.941   1.424  0.00  0.00     0.028 H 
ATOM      5  H3  <0> d          -3.133  -0.522   1.337  0.00  0.00     0.028 H 
ATOM      6  H4  <0> d          -1.557  -0.577   2.163  0.00  0.00     0.028 H 
ENDBRANCH   1   3
BRANCH   1   7
ATOM      7  C3  <0> d          -1.416  -2.058  -0.121  0.00  0.00     0.021 C 
ATOM      8  H5  <0> d          -0.856  -2.337  -1.014  0.00  0.00     0.068 H 
ATOM      9  H6  <0> d          -0.941  -2.494   0.757  0.00  0.00     0.068 H 
BRANCH   7  10
ATOM     10  N1  <0> d          -2.790  -2.554  -0.231  0.00  0.00    -0.281 N 
ATOM     11  N2  <0> d          -3.830  -2.306   0.674  0.00  0.00    -0.185 NA
ATOM     12  C6  <0> d          -4.904  -2.915   0.239  0.00  0.00     0.023 A 
ATOM     13  C5  <0> d          -4.582  -3.569  -0.955  0.00  0.00    -0.048 A 
ATOM     14  H9  <0> d          -5.871  -2.913   0.719  0.00  0.00     0.117 H 
ATOM     15  C4  <0> d          -3.278  -3.326  -1.224  0.00  0.00    -0.000 A 
ATOM     16  H8  <0> d          -5.256  -4.159  -1.558  0.00  0.00     0.087 H 
ATOM     17  H7  <0> d          -2.726  -3.688  -2.079  0.00  0.00     0.114 H 
ENDBRANCH   7  10
ENDBRANCH   1   7
BRANCH   1  18
ATOM     18  C7  <0> d           0.002  -0.004   0.002  0.00  0.00     0.021 C 
ATOM     19  H10 <0> d           0.512  -0.356  -0.895  0.00  0.00     0.074 H 
ATOM     20  H11 <0> d           0.529  -0.365   0.885  0.00  0.00     0.074 H 
BRANCH  18  21
ATOM     21  O1  <0> d          -0.017   1.425   0.010  0.00  0.00    -0.400 OA
ATOM     22  H12 <0> d           0.861   1.830   0.004  0.00  0.00     0.209 HD
ENDBRANCH  18  21
ENDBRANCH   1  18
TORSDOF 5
