REMARK  0 active torsions:
REMARK  status: ('A' for Active; 'I' for Inactive)
ROOT
ATOM      1  C1  <0> d          -2.267   1.476   0.934  0.00  0.00    -0.064 C 
ATOM      2  C2  <0> d          -0.759   1.597   1.282  0.00  0.00    -0.060 C 
ATOM      3  C3  <0> d          -0.013   1.086   0.008  0.00  0.00    -0.026 C 
ATOM      4  C4  <0> d          -0.750   1.589  -1.192  0.00  0.00     0.040 A 
ATOM      5  N1  <0> d          -1.108   2.599  -1.905  0.00  0.00    -0.277 NA
ATOM      6  C5  <0> d          -1.689   1.355  -2.384  0.00  0.00     0.127 A 
ATOM      7  H1  <0> d          -1.258   0.725  -3.030  0.00  0.00     0.097 H 
ATOM      8  C6  <0> d          -2.896   0.772  -1.625  0.00  0.00     0.157 C 
ATOM      9  O1  <0> d          -4.032   1.158  -1.762  0.00  0.00    -0.295 OA
ATOM     10  C7  <0> d          -2.485  -0.342  -0.683  0.00  0.00    -0.007 C 
ATOM     11  C8  <0> d          -2.741   0.022   0.747  0.00  0.00    -0.059 C 
ATOM     12  H2  <0> d          -2.458   2.026   0.012  0.00  0.00     0.033 H 
ATOM     13  H3  <0> d          -2.846   1.932   1.737  0.00  0.00     0.033 H 
ATOM     14  H4  <0> d          -0.516   0.972   2.141  0.00  0.00     0.033 H 
ATOM     15  H5  <0> d          -0.499   2.637   1.483  0.00  0.00     0.033 H 
ATOM     16  H6  <0> d           0.002  -0.004   0.002  0.00  0.00     0.042 H 
ATOM     17  H7  <0> d           1.008   1.468   0.000  0.00  0.00     0.042 H 
ATOM     18  H8  <0> d          -3.010  -1.167  -0.894  0.00  0.00     0.044 H 
ATOM     19  H9  <0> d          -1.422  -0.544  -0.814  0.00  0.00     0.044 H 
ATOM     20  H10 <0> d          -3.807  -0.053   0.964  0.00  0.00     0.033 H 
ATOM     21  H11 <0> d          -2.181  -0.641   1.406  0.00  0.00     0.033 H 
ENDROOT
TORSDOF 0
