REMARK  1 active torsions:
REMARK  status: ('A' for Active; 'I' for Inactive)
REMARK    1  A    between atoms: C4_4  and  O1_11 
ROOT
ATOM      1  C1  <0> d          -0.753   1.593  -1.232  0.00  0.00    -0.064 C 
ATOM      2  C2  <0> d          -0.773   3.123  -1.223  0.00  0.00    -0.063 C 
ATOM      3  C3  <0> d          -1.490   3.616   0.036  0.00  0.00    -0.040 C 
ATOM      4  C4  <0> d          -0.750   3.109   1.275  0.00  0.00     0.051 C 
ATOM      5  H1  <0> d           0.273   3.486   1.268  0.00  0.00     0.085 H 
ATOM      6  C5  <0> d          -0.729   1.579   1.267  0.00  0.00     0.055 C 
ATOM      7  H2  <0> d          -1.751   1.202   1.275  0.00  0.00     0.066 H 
ATOM      8  C6  <0> d          -0.013   1.086   0.008  0.00  0.00    -0.048 C 
ATOM      9  C7  <0> d          -0.017   1.092   2.459  0.00  0.00     0.066 C 
ATOM     10  N1  <0> d           0.532   0.715   3.380  0.00  0.00    -0.197 NA
ATOM     11  H3  <0> d          -0.242   1.241  -2.128  0.00  0.00     0.033 H 
ATOM     12  H4  <0> d          -1.775   1.215  -1.224  0.00  0.00     0.033 H 
ATOM     13  H5  <0> d           0.249   3.500  -1.231  0.00  0.00     0.033 H 
ATOM     14  H6  <0> d          -1.301   3.484  -2.106  0.00  0.00     0.033 H 
ATOM     15  H7  <0> d          -1.504   4.706   0.042  0.00  0.00     0.036 H 
ATOM     16  H8  <0> d          -2.512   3.239   0.043  0.00  0.00     0.036 H 
ATOM     17  H9  <0> d           0.002  -0.004   0.002  0.00  0.00     0.035 H 
ATOM     18  H10 <0> d           1.010   1.463   0.000  0.00  0.00     0.035 H 
ENDROOT
BRANCH   4  19
ATOM     19  O1  <0> d          -1.419   3.570   2.451  0.00  0.00    -0.394 OA
ATOM     20  H11 <0> d          -1.469   4.533   2.523  0.00  0.00     0.210 HD
ENDBRANCH   4  19
TORSDOF 1
