REMARK  2 active torsions:
REMARK  status: ('A' for Active; 'I' for Inactive)
REMARK    1  A    between atoms: C2_3  and  N4_9 
REMARK    2  A    between atoms: C3_4  and  N3_8 
ROOT
ATOM      1  C1  <0> d           1.109   3.737   0.011  0.00  0.00     0.090 A 
ATOM      2  N1  <0> d          -0.012   4.431   0.025  0.00  0.00    -0.222 NA
ATOM      3  C2  <0> d          -1.191   3.820   0.033  0.00  0.00     0.152 A 
ATOM      4  C3  <0> d          -1.227   2.419   0.021  0.00  0.00     0.113 A 
ATOM      5  C4  <0> d          -0.021   1.732   0.012  0.00  0.00     0.157 A 
ATOM      6  N2  <0> d           1.113   2.420   0.004  0.00  0.00    -0.227 NA
ATOM      7 Cl1  <0> d           0.002  -0.004   0.002  0.00  0.00    -0.060 Cl
ATOM      8  H1  <0> d           2.051   4.264   0.005  0.00  0.00     0.146 H 
ENDROOT
BRANCH   3   9
ATOM      9  N4  <0> d          -2.368   4.556   0.049  0.00  0.00    -0.382 N 
ATOM     10  H4  <0> d          -2.334   5.525   0.054  0.00  0.00     0.157 HD
ATOM     11  H5  <0> d          -3.225   4.101   0.055  0.00  0.00     0.157 HD
ENDBRANCH   3   9
BRANCH   4  12
ATOM     12  N3  <0> d          -2.448   1.730   0.024  0.00  0.00    -0.393 N 
ATOM     13  H2  <0> d          -2.458   0.761   0.019  0.00  0.00     0.156 HD
ATOM     14  H3  <0> d          -3.283   2.224   0.030  0.00  0.00     0.156 HD
ENDBRANCH   4  12
TORSDOF 2
