REMARK  4 active torsions:
REMARK  status: ('A' for Active; 'I' for Inactive)
REMARK    1  A    between atoms: C3_3  and  C8_10 
REMARK    2  A    between atoms: C5_5  and  C7_7 
REMARK    3  A    between atoms: C7_7  and  O1_8 
REMARK    4  A    between atoms: C8_10  and  O2_11 
ROOT
ATOM      1  C1  <0> d          -0.017   1.378   0.010  0.00  0.00    -0.082 A 
ATOM      2  C2  <0> d           1.170   2.087   0.002  0.00  0.00    -0.072 A 
ATOM      3  C3  <0> d           2.377   1.414  -0.013  0.00  0.00     0.004 A 
ATOM      4  C4  <0> d           2.397   0.029  -0.021  0.00  0.00     0.133 A 
ATOM      5  C5  <0> d           1.208  -0.679  -0.013  0.00  0.00     0.004 A 
ATOM      6  C6  <0> d           0.002  -0.004   0.002  0.00  0.00    -0.072 A 
ATOM      7  F1  <0> d           3.577  -0.630  -0.036  0.00  0.00    -0.205 F 
ATOM      8  H1  <0> d          -0.959   1.905   0.026  0.00  0.00     0.083 H 
ATOM      9  H2  <0> d           1.155   3.167   0.008  0.00  0.00     0.084 H 
ATOM     10  H3  <0> d          -0.926  -0.556   0.008  0.00  0.00     0.084 H 
ENDROOT
BRANCH   3  11
ATOM     11  C8  <0> d           3.671   2.186  -0.022  0.00  0.00     0.043 C 
ATOM     12  H7  <0> d           4.255   1.927   0.861  0.00  0.00     0.081 H 
ATOM     13  H8  <0> d           4.238   1.936  -0.919  0.00  0.00     0.081 H 
BRANCH  11  14
ATOM     14  O2  <0> d           3.389   3.587  -0.012  0.00  0.00    -0.396 OA
ATOM     15  H9  <0> d           4.178   4.147  -0.017  0.00  0.00     0.209 HD
ENDBRANCH  11  14
ENDBRANCH   3  11
BRANCH   5  16
ATOM     16  C7  <0> d           1.228  -2.186  -0.022  0.00  0.00     0.043 C 
ATOM     17  H4  <0> d           1.738  -2.537  -0.919  0.00  0.00     0.081 H 
ATOM     18  H5  <0> d           1.755  -2.548   0.861  0.00  0.00     0.081 H 
BRANCH  16  19
ATOM     19  O1  <0> d          -0.113  -2.680  -0.012  0.00  0.00    -0.396 OA
ATOM     20  H6  <0> d          -0.176  -3.645  -0.017  0.00  0.00     0.209 HD
ENDBRANCH  16  19
ENDBRANCH   5  16
TORSDOF 4
