REMARK  4 active torsions:
REMARK  status: ('A' for Active; 'I' for Inactive)
REMARK    1  A    between atoms: C3_3  and  C4_4 
REMARK    2  A    between atoms: C4_4  and  C5_6 
REMARK    3  A    between atoms: C5_6  and  C6_7 
REMARK    4  A    between atoms: C6_7  and  C7_8 
ROOT
ATOM      1  C4  <0> d          -0.742   1.585  -1.213  0.00  0.00     0.131 C 
ATOM      2  O1  <0> d          -1.732   2.265  -1.089  0.00  0.00    -0.298 OA
ENDROOT
BRANCH   1   3
ATOM      3  C3  <0> d          -0.235   1.235  -2.588  0.00  0.00     0.004 A 
ATOM      4  C1  <0> d          -0.204   2.351  -3.635  0.00  0.00    -0.055 A 
ATOM      5  C2  <0> d          -1.247   1.236  -3.736  0.00  0.00    -0.055 A 
ATOM      6  H1  <0> d          -0.550   3.338  -3.328  0.00  0.00     0.034 H 
ATOM      7  H2  <0> d           0.613   2.342  -4.356  0.00  0.00     0.034 H 
ATOM      8  H3  <0> d          -1.116   0.494  -4.523  0.00  0.00     0.034 H 
ATOM      9  H4  <0> d          -2.280   1.489  -3.495  0.00  0.00     0.034 H 
ATOM     10  H5  <0> d           0.670   0.816  -2.521  0.00  0.00     0.051 H 
ENDBRANCH   1   3
BRANCH   1  11
ATOM     11  C5  <0> d          -0.013   1.086   0.008  0.00  0.00    -0.000 C 
ATOM     12  H6  <0> d           0.001   0.086   0.003  0.00  0.00     0.045 H 
ATOM     13  H7  <0> d           1.010   1.463   0.000  0.00  0.00     0.045 H 
BRANCH  11  14
ATOM     14  C6  <0> d          -0.729   1.579   1.267  0.00  0.00     0.022 C 
ATOM     15  H8  <0> d          -0.744   2.669   1.273  0.00  0.00     0.049 H 
ATOM     16  H9  <0> d          -1.751   1.202   1.275  0.00  0.00     0.049 H 
BRANCH  14  17
ATOM     17  C7  <0> d           0.000   1.080   2.488  0.00  0.00     0.172 C 
ATOM     18  O2  <0> d           0.991   0.399   2.364  0.00  0.00    -0.648 OA
ATOM     19  O3  <0> d          -0.451   1.391   3.713  0.00  0.00    -0.648 OA
ENDBRANCH  14  17
ENDBRANCH  11  14
ENDBRANCH   1  11
TORSDOF 4
