REMARK  4 active torsions:
REMARK  status: ('A' for Active; 'I' for Inactive)
REMARK    1  A    between atoms: C1_1  and  O1_2 
REMARK    2  A    between atoms: O1_2  and  C2_3 
REMARK    3  A    between atoms: C2_3  and  C3_5 
REMARK    4  A    between atoms: C6_8  and  N1_11 
ROOT
ATOM      1  C3  <0> d           1.224  -0.685  -0.013  0.00  0.00     0.039 A 
ATOM      2  C4  <0> d           0.002  -0.004   0.002  0.00  0.00    -0.065 A 
ATOM      3  C5  <0> d          -0.017   1.367   0.010  0.00  0.00    -0.057 A 
ATOM      4  C6  <0> d           1.179   2.081   0.002  0.00  0.00     0.025 A 
ATOM      5  C7  <0> d           2.397   1.406  -0.013  0.00  0.00    -0.057 A 
ATOM      6  C8  <0> d           2.422   0.035  -0.021  0.00  0.00    -0.065 A 
ATOM      7  H4  <0> d          -0.925  -0.557   0.008  0.00  0.00     0.085 H 
ATOM      8  H5  <0> d          -0.959   1.893   0.017  0.00  0.00     0.086 H 
ATOM      9  H6  <0> d           3.322   1.963  -0.020  0.00  0.00     0.086 H 
ATOM     10  H7  <0> d           3.367  -0.488  -0.033  0.00  0.00     0.085 H 
ENDROOT
BRANCH   1  11
ATOM     11  C2  <0> d           1.247  -2.159  -0.021  0.00  0.00     0.292 C 
ATOM     12  O2  <0> d           0.205  -2.783  -0.014  0.00  0.00    -0.259 OA
BRANCH  11  13
ATOM     13  O1  <0> d           2.425  -2.814  -0.036  0.00  0.00    -0.323 OA
BRANCH  13  14
ATOM     14  C1  <0> d           2.373  -4.265  -0.043  0.00  0.00     0.013 C 
ATOM     15  H1  <0> d           1.855  -4.614   0.851  0.00  0.00     0.067 H 
ATOM     16  H2  <0> d           1.837  -4.605  -0.929  0.00  0.00     0.067 H 
ATOM     17  H3  <0> d           3.386  -4.665  -0.054  0.00  0.00     0.067 H 
ENDBRANCH  13  14
ENDBRANCH  11  13
ENDBRANCH   1  11
BRANCH   4  18
ATOM     18  N1  <0> d           1.156   3.471   0.010  0.00  0.00    -0.399 N 
ATOM     19  H8  <0> d           0.309   3.942   0.020  0.00  0.00     0.156 HD
ATOM     20  H9  <0> d           1.988   3.969   0.004  0.00  0.00     0.156 HD
ENDBRANCH   4  18
TORSDOF 4
