REMARK  3 active torsions:
REMARK  status: ('A' for Active; 'I' for Inactive)
REMARK    1  A    between atoms: C1_1  and  C2_2 
REMARK       I    between atoms: C2_2  and  N1_4 
REMARK    2  A    between atoms: N1_4  and  C3_5 
REMARK    3  A    between atoms: C3_5  and  C4_6 
REMARK       I    between atoms: C4_6  and  N2_8 
ROOT
ATOM      1  C2  <0> d          -0.014   1.209   0.009  0.00  0.00     0.213 C 
ATOM      2  O1  <0> d           0.002  -0.004   0.002  0.00  0.00    -0.274 OA
ATOM      3  N1  <0> d           1.143   1.898   0.001  0.00  0.00    -0.353 N 
ATOM      4  H4  <0> d           1.130   2.868   0.007  0.00  0.00     0.162 HD
ENDROOT
BRANCH   3   5
ATOM      5  C3  <0> d           2.422   1.183  -0.015  0.00  0.00     0.068 C 
ATOM      6  H5  <0> d           2.497   0.553   0.871  0.00  0.00     0.078 H 
ATOM      7  H6  <0> d           2.480   0.562  -0.909  0.00  0.00     0.078 H 
BRANCH   5   8
ATOM      8  C4  <0> d           3.554   2.178  -0.020  0.00  0.00     0.233 C 
ATOM      9  O2  <0> d           3.316   3.367  -0.011  0.00  0.00    -0.272 OA
ATOM     10  N2  <0> d           4.831   1.746  -0.035  0.00  0.00    -0.369 N 
ATOM     11  H7  <0> d           5.021   0.795  -0.042  0.00  0.00     0.159 HD
ATOM     12  H8  <0> d           5.559   2.386  -0.038  0.00  0.00     0.159 HD
ENDBRANCH   5   8
ENDBRANCH   3   5
BRANCH   1  13
ATOM     13  C1  <0> d          -1.330   1.944   0.019  0.00  0.00    -0.003 C 
ATOM     14  H1  <0> d          -2.148   1.225   0.019  0.00  0.00     0.040 H 
ATOM     15  H2  <0> d          -1.392   2.565   0.913  0.00  0.00     0.040 H 
ATOM     16  H3  <0> d          -1.400   2.575  -0.867  0.00  0.00     0.040 H 
ENDBRANCH   1  13
TORSDOF 3
