REMARK  3 active torsions:
REMARK  status: ('A' for Active; 'I' for Inactive)
REMARK    1  A    between atoms: C1_1  and  C2_2 
REMARK    2  A    between atoms: C6_7  and  O1_8 
REMARK    3  A    between atoms: O1_8  and  C7_9 
ROOT
ATOM      1  C2  <0> d          -1.197   3.417   0.030  0.00  0.00    -0.006 A 
ATOM      2  C3  <0> d          -1.224   2.033   0.019  0.00  0.00    -0.034 A 
ATOM      3  C4  <0> d          -0.016   1.347   0.009  0.00  0.00     0.134 A 
ATOM      4  C5  <0> d           1.167   2.062   0.002  0.00  0.00     0.042 A 
ATOM      5  N1  <0> d           1.159   3.382   0.009  0.00  0.00    -0.234 NA
ATOM      6  C6  <0> d           0.029   4.069   0.023  0.00  0.00     0.169 A 
ATOM      7  F1  <0> d           0.002  -0.004   0.002  0.00  0.00    -0.205 F 
ATOM      8  H4  <0> d          -2.163   1.499   0.020  0.00  0.00     0.089 H 
ATOM      9  H5  <0> d           2.110   1.535  -0.009  0.00  0.00     0.119 H 
ENDROOT
BRANCH   6  10
ATOM     10  O1  <0> d           0.068   5.426   0.030  0.00  0.00    -0.339 OA
BRANCH  10  11
ATOM     11  C7  <0> d           1.360   6.037   0.021  0.00  0.00     0.012 C 
ATOM     12  H6  <0> d           1.916   5.724   0.905  0.00  0.00     0.067 H 
ATOM     13  H7  <0> d           1.900   5.733  -0.875  0.00  0.00     0.067 H 
ATOM     14  H8  <0> d           1.248   7.122   0.028  0.00  0.00     0.067 H 
ENDBRANCH  10  11
ENDBRANCH   6  10
BRANCH   1  15
ATOM     15  C1  <0> d          -2.481   4.206   0.046  0.00  0.00    -0.047 C 
ATOM     16  H1  <0> d          -2.799   4.402  -0.978  0.00  0.00     0.033 H 
ATOM     17  H2  <0> d          -3.252   3.635   0.564  0.00  0.00     0.033 H 
ATOM     18  H3  <0> d          -2.320   5.152   0.563  0.00  0.00     0.033 H 
ENDBRANCH   1  15
TORSDOF 3
