REMARK  1 active torsions:
REMARK  status: ('A' for Active; 'I' for Inactive)
REMARK    1  A    between atoms: C3_4  and  N4_10 
ROOT
ATOM      1  C1  <0> d          -0.016   1.331   0.009  0.00  0.00     0.020 A 
ATOM      2  C2  <0> d           1.260   1.781  -0.000  0.00  0.00     0.005 A 
ATOM      3  N1  <0> d           2.072   0.685  -0.014  0.00  0.00    -0.289 N 
ATOM      4  C3  <0> d           3.430   0.514  -0.028  0.00  0.00     0.124 A 
ATOM      5  C4  <0> d           3.949  -0.746  -0.040  0.00  0.00     0.044 A 
ATOM      6  N2  <0> d           3.156  -1.816  -0.039  0.00  0.00    -0.265 NA
ATOM      7  C5  <0> d           1.849  -1.700  -0.025  0.00  0.00     0.046 A 
ATOM      8  C6  <0> d           1.258  -0.422  -0.012  0.00  0.00     0.152 A 
ATOM      9  N3  <0> d           0.002  -0.004   0.002  0.00  0.00    -0.240 NA
ATOM     10  H1  <0> d          -0.902   1.949   0.025  0.00  0.00     0.117 H 
ATOM     11  H2  <0> d           1.575   2.814   0.002  0.00  0.00     0.114 H 
ATOM     12  H3  <0> d           5.020  -0.880  -0.052  0.00  0.00     0.120 H 
ATOM     13  H4  <0> d           1.227  -2.583  -0.024  0.00  0.00     0.120 H 
ENDROOT
BRANCH   4  14
ATOM     14  N4  <0> d           4.271   1.613  -0.031  0.00  0.00    -0.384 N 
ATOM     15  H5  <0> d           3.898   2.508  -0.022  0.00  0.00     0.157 HD
ATOM     16  H6  <0> d           5.233   1.488  -0.041  0.00  0.00     0.157 HD
ENDBRANCH   4  14
TORSDOF 1
