REMARK  5 active torsions:
REMARK  status: ('A' for Active; 'I' for Inactive)
REMARK    1  A    between atoms: C1_1  and  C2_2 
REMARK    2  A    between atoms: C2_2  and  C3_4 
REMARK    3  A    between atoms: C2_2  and  O2_12 
REMARK    4  A    between atoms: C3_4  and  C4_5 
REMARK    5  A    between atoms: C4_5  and  N1_6 
ROOT
ATOM      1  N1  <0> d          -2.794  -2.566  -0.111  0.00  0.00     0.092 N 
ATOM      2  C5  <0> d          -3.427  -2.344   1.197  0.00  0.00     0.133 C 
ATOM      3  C6  <0> d          -4.877  -2.833   1.145  0.00  0.00     0.044 C 
ATOM      4  O1  <0> d          -4.897  -4.211   0.761  0.00  0.00    -0.388 OA
ATOM      5  C7  <0> d          -4.288  -4.463  -0.508  0.00  0.00     0.044 C 
ATOM      6  C8  <0> d          -2.833  -3.990  -0.473  0.00  0.00     0.133 C 
ATOM      7  H9  <0> d          -2.884  -2.897   1.963  0.00  0.00     0.083 H 
ATOM      8  H10 <0> d          -3.410  -1.280   1.434  0.00  0.00     0.083 H 
ATOM      9  H11 <0> d          -5.334  -2.723   2.129  0.00  0.00     0.077 H 
ATOM     10  H12 <0> d          -5.434  -2.244   0.417  0.00  0.00     0.077 H 
ATOM     11  H13 <0> d          -4.319  -5.532  -0.721  0.00  0.00     0.077 H 
ATOM     12  H14 <0> d          -4.828  -3.921  -1.285  0.00  0.00     0.077 H 
ATOM     13  H15 <0> d          -2.381  -4.128  -1.456  0.00  0.00     0.083 H 
ATOM     14  H16 <0> d          -2.280  -4.569   0.266  0.00  0.00     0.083 H 
ENDROOT
BRANCH   1  15
ATOM     15  C4  <0> d          -1.416  -2.058  -0.121  0.00  0.00     0.116 C 
ATOM     16  H7  <0> d          -0.933  -2.334  -1.059  0.00  0.00     0.080 H 
ATOM     17  H8  <0> d          -0.863  -2.489   0.713  0.00  0.00     0.080 H 
BRANCH  15  18
ATOM     18  C3  <0> d          -1.433  -0.534   0.013  0.00  0.00    -0.017 C 
ATOM     19  H5  <0> d          -1.916  -0.257   0.950  0.00  0.00     0.039 H 
ATOM     20  H6  <0> d          -1.986  -0.102  -0.821  0.00  0.00     0.039 H 
BRANCH  18  21
ATOM     21  C2  <0> d           0.002  -0.004   0.002  0.00  0.00     0.034 C 
ATOM     22  H1  <0> d           0.512  -0.356  -0.895  0.00  0.00     0.082 H 
BRANCH  21  23
ATOM     23  C1  <0> d          -0.019   1.526   0.010  0.00  0.00    -0.052 C 
ATOM     24  H2  <0> d           1.004   1.903   0.003  0.00  0.00     0.030 H 
ATOM     25  H3  <0> d          -0.546   1.887  -0.873  0.00  0.00     0.030 H 
ATOM     26  H4  <0> d          -0.529   1.877   0.907  0.00  0.00     0.030 H 
ENDBRANCH  21  23
BRANCH  21  27
ATOM     27  O2  <0> d           0.693  -0.477   1.160  0.00  0.00    -0.396 OA
ATOM     28  H17 <0> d           1.611  -0.180   1.219  0.00  0.00     0.210 HD
ENDBRANCH  21  27
ENDBRANCH  18  21
ENDBRANCH  15  18
ENDBRANCH   1  15
TORSDOF 5
