REMARK  3 active torsions:
REMARK  status: ('A' for Active; 'I' for Inactive)
REMARK    1  A    between atoms: C1_1  and  C2_2 
REMARK    2  A    between atoms: C5_5  and  O1_10 
REMARK    3  A    between atoms: C7_7  and  C8_8 
ROOT
ATOM      1  C2  <0> d          -2.083   1.789   1.226  0.00  0.00    -0.054 A 
ATOM      2  C3  <0> d          -2.734   2.230   2.363  0.00  0.00    -0.074 A 
ATOM      3  C4  <0> d          -2.020   2.465   3.522  0.00  0.00    -0.049 A 
ATOM      4  C5  <0> d          -0.650   2.253   3.547  0.00  0.00     0.087 A 
ATOM      5  C6  <0> d           0.001   1.806   2.405  0.00  0.00     0.073 A 
ATOM      6  C7  <0> d          -0.718   1.572   1.248  0.00  0.00    -0.032 A 
ATOM      7 Cl1  <0> d           1.717   1.540   2.431  0.00  0.00    -0.081 Cl
ATOM      8  H4  <0> d          -3.801   2.395   2.344  0.00  0.00     0.084 H 
ATOM      9  H5  <0> d          -2.529   2.813   4.409  0.00  0.00     0.087 H 
ENDROOT
BRANCH   1  10
ATOM     10  C1  <0> d          -2.864   1.540  -0.039  0.00  0.00    -0.051 C 
ATOM     11  H1  <0> d          -3.212   0.507  -0.053  0.00  0.00     0.033 H 
ATOM     12  H2  <0> d          -3.721   2.212  -0.075  0.00  0.00     0.033 H 
ATOM     13  H3  <0> d          -2.224   1.719  -0.903  0.00  0.00     0.033 H 
ENDBRANCH   1  10
BRANCH   6  14
ATOM     14  C8  <0> d          -0.013   1.086   0.008  0.00  0.00    -0.049 C 
ATOM     15  H6  <0> d           0.002  -0.004   0.002  0.00  0.00     0.033 H 
ATOM     16  H7  <0> d           1.010   1.463   0.000  0.00  0.00     0.033 H 
ATOM     17  H8  <0> d          -0.540   1.447  -0.875  0.00  0.00     0.033 H 
ENDBRANCH   6  14
BRANCH   4  18
ATOM     18  O1  <0> d           0.055   2.483   4.686  0.00  0.00    -0.359 OA
ATOM     19  H9  <0> d           0.392   3.386   4.764  0.00  0.00     0.217 HD
ENDBRANCH   4  18
TORSDOF 3
