REMARK  9 active torsions:
REMARK  status: ('A' for Active; 'I' for Inactive)
REMARK    1  A    between atoms: C1_1  and  C2_2 
REMARK    2  A    between atoms: C2_2  and  C3_3 
REMARK    3  A    between atoms: C3_3  and  C4_4 
REMARK    4  A    between atoms: C4_4  and  C5_5 
REMARK    5  A    between atoms: C5_5  and  C6_6 
REMARK    6  A    between atoms: C6_6  and  O1_7 
REMARK    7  A    between atoms: O1_7  and  C7_8 
REMARK    8  A    between atoms: C7_8  and  C8_9 
REMARK    9  A    between atoms: C8_9  and  O2_10 
ROOT
ATOM      1  C5  <0> d          -0.278   5.242   2.696  0.00  0.00    -0.045 C 
ATOM      2  H10 <0> d          -1.247   4.747   2.765  0.00  0.00     0.036 H 
ATOM      3  H11 <0> d           0.366   4.892   3.502  0.00  0.00     0.036 H 
ENDROOT
BRANCH   1   4
ATOM      4  C4  <0> d          -0.469   6.755   2.816  0.00  0.00    -0.063 C 
ATOM      5  H8  <0> d           0.499   7.250   2.747  0.00  0.00     0.033 H 
ATOM      6  H9  <0> d          -1.114   7.104   2.009  0.00  0.00     0.033 H 
BRANCH   4   7
ATOM      7  C3  <0> d          -1.115   7.083   4.163  0.00  0.00    -0.065 C 
ATOM      8  H6  <0> d          -2.084   6.588   4.232  0.00  0.00     0.033 H 
ATOM      9  H7  <0> d          -0.470   6.733   4.970  0.00  0.00     0.033 H 
BRANCH   7  10
ATOM     10  C2  <0> d          -1.306   8.596   4.283  0.00  0.00    -0.069 C 
ATOM     11  H4  <0> d          -0.337   9.091   4.214  0.00  0.00     0.032 H 
ATOM     12  H5  <0> d          -1.950   8.946   3.476  0.00  0.00     0.032 H 
BRANCH  10  13
ATOM     13  C1  <0> d          -1.952   8.924   5.630  0.00  0.00    -0.077 C 
ATOM     14  H1  <0> d          -1.307   8.574   6.437  0.00  0.00     0.027 H 
ATOM     15  H2  <0> d          -2.087  10.002   5.716  0.00  0.00     0.027 H 
ATOM     16  H3  <0> d          -2.920   8.429   5.699  0.00  0.00     0.027 H 
ENDBRANCH  10  13
ENDBRANCH   7  10
ENDBRANCH   4   7
ENDBRANCH   1   4
BRANCH   1  17
ATOM     17  C6  <0> d           0.367   4.914   1.348  0.00  0.00     0.020 C 
ATOM     18  H12 <0> d           1.336   5.409   1.280  0.00  0.00     0.074 H 
ATOM     19  H13 <0> d          -0.277   5.263   0.542  0.00  0.00     0.074 H 
BRANCH  17  20
ATOM     20  O1  <0> d           0.546   3.500   1.237  0.00  0.00    -0.389 OA
BRANCH  20  21
ATOM     21  C7  <0> d           1.145   3.085   0.008  0.00  0.00     0.039 C 
ATOM     22  H14 <0> d           2.130   3.542  -0.089  0.00  0.00     0.077 H 
ATOM     23  H15 <0> d           0.516   3.397  -0.827  0.00  0.00     0.077 H 
BRANCH  21  24
ATOM     24  C8  <0> d           1.286   1.562  -0.002  0.00  0.00     0.036 C 
ATOM     25  H16 <0> d           1.840   1.243   0.881  0.00  0.00     0.077 H 
ATOM     26  H17 <0> d           1.823   1.252  -0.899  0.00  0.00     0.077 H 
BRANCH  24  27
ATOM     27  O2  <0> d          -0.011   0.963   0.007  0.00  0.00    -0.399 OA
ATOM     28  H18 <0> d           0.002  -0.004   0.002  0.00  0.00     0.209 HD
ENDBRANCH  24  27
ENDBRANCH  21  24
ENDBRANCH  20  21
ENDBRANCH  17  20
ENDBRANCH   1  17
TORSDOF 9
