REMARK  2 active torsions:
REMARK  status: ('A' for Active; 'I' for Inactive)
REMARK    1  A    between atoms: C3_3  and  C6_7 
REMARK    2  A    between atoms: C6_7  and  C7_8 
ROOT
ATOM      1  C1  <0> d          -2.203   1.801   0.656  0.00  0.00    -0.049 C 
ATOM      2  C2  <0> d          -0.782   1.607   1.244  0.00  0.00    -0.055 C 
ATOM      3  C3  <0> d          -0.013   1.086   0.008  0.00  0.00    -0.029 C 
ATOM      4  H1  <0> d           0.002  -0.004   0.002  0.00  0.00     0.046 H 
ATOM      5  C4  <0> d          -0.788   1.608  -1.179  0.00  0.00    -0.102 C 
ATOM      6  C5  <0> d          -1.982   1.998  -0.826  0.00  0.00    -0.106 C 
ATOM      7  H2  <0> d          -2.676   2.682   1.090  0.00  0.00     0.038 H 
ATOM      8  H3  <0> d          -2.812   0.915   0.835  0.00  0.00     0.038 H 
ATOM      9  H4  <0> d          -0.786   0.867   2.043  0.00  0.00     0.034 H 
ATOM     10  H5  <0> d          -0.369   2.554   1.591  0.00  0.00     0.034 H 
ATOM     11  H6  <0> d          -0.404   1.653  -2.188  0.00  0.00     0.076 H 
ATOM     12  H7  <0> d          -2.716   2.408  -1.504  0.00  0.00     0.076 H 
ENDROOT
BRANCH   3  13
ATOM     13  C6  <0> d           1.414   1.637  -0.003  0.00  0.00     0.022 C 
ATOM     14  H8  <0> d           1.384   2.723  -0.099  0.00  0.00     0.050 H 
ATOM     15  H9  <0> d           1.915   1.369   0.928  0.00  0.00     0.050 H 
BRANCH  13  16
ATOM     16  C7  <0> d           2.171   1.051  -1.167  0.00  0.00     0.173 C 
ATOM     17  O1  <0> d           1.624   0.272  -1.912  0.00  0.00    -0.648 OA
ATOM     18  O2  <0> d           3.451   1.394  -1.377  0.00  0.00    -0.648 OA
ENDBRANCH  13  16
ENDBRANCH   3  13
TORSDOF 2
