REMARK  3 active torsions:
REMARK  status: ('A' for Active; 'I' for Inactive)
REMARK    1  A    between atoms: C1_1  and  C2_2 
REMARK       I    between atoms: C2_2  and  N1_4 
REMARK    2  A    between atoms: N1_4  and  C3_5 
REMARK    3  A    between atoms: N1_4  and  C4_6 
ROOT
ATOM      1  C2  <0> d           0.002  -0.004   0.003  0.00  0.00     0.221 C 
ATOM      2  O1  <0> d           1.060  -0.596  -0.009  0.00  0.00    -0.273 OA
ATOM      3  N1  <0> d          -1.156  -0.694   0.009  0.00  0.00    -0.307 N 
ENDROOT
BRANCH   3   4
ATOM      4  C3  <0> d          -2.431   0.017   0.135  0.00  0.00    -0.010 C 
ATOM      5  H4  <0> d          -2.802   0.275  -0.857  0.00  0.00     0.057 H 
ATOM      6  H5  <0> d          -3.155  -0.623   0.639  0.00  0.00     0.057 H 
ATOM      7  H6  <0> d          -2.284   0.927   0.717  0.00  0.00     0.057 H 
ENDBRANCH   3   4
BRANCH   3   8
ATOM      8  C4  <0> d          -1.140  -2.083  -0.103  0.00  0.00     0.131 A 
ATOM      9  N2  <0> d          -1.166  -2.830   0.989  0.00  0.00    -0.243 NA
ATOM     10  C8  <0> d          -1.158  -4.148   0.926  0.00  0.00     0.004 A 
ATOM     11  C7  <0> d          -1.111  -4.799  -0.290  0.00  0.00    -0.066 A 
ATOM     12  H10 <0> d          -1.184  -4.725   1.839  0.00  0.00     0.114 H 
ATOM     13  C6  <0> d          -1.078  -4.052  -1.460  0.00  0.00    -0.078 A 
ATOM     14  H9  <0> d          -1.101  -5.878  -0.332  0.00  0.00     0.085 H 
ATOM     15  C5  <0> d          -1.093  -2.671  -1.362  0.00  0.00    -0.038 A 
ATOM     16  H8  <0> d          -1.041  -4.537  -2.424  0.00  0.00     0.083 H 
ATOM     17  H7  <0> d          -1.068  -2.059  -2.252  0.00  0.00     0.089 H 
ENDBRANCH   3   8
BRANCH   1  18
ATOM     18  C1  <0> d          -0.018   1.503   0.009  0.00  0.00    -0.002 C 
ATOM     19  H1  <0> d           1.004   1.880   0.002  0.00  0.00     0.040 H 
ATOM     20  H2  <0> d          -0.544   1.863  -0.875  0.00  0.00     0.040 H 
ATOM     21  H3  <0> d          -0.530   1.855   0.905  0.00  0.00     0.040 H 
ENDBRANCH   1  18
TORSDOF 3
