REMARK  5 active torsions:
REMARK  status: ('A' for Active; 'I' for Inactive)
REMARK    1  A    between atoms: C1_1  and  C2_2 
REMARK    2  A    between atoms: C2_2  and  C3_3 
REMARK    3  A    between atoms: C3_3  and  C4_5 
REMARK    4  A    between atoms: C3_3  and  N1_6 
REMARK       I    between atoms: N1_6  and  C5_7 
REMARK       I    between atoms: C5_7  and  N2_9 
REMARK    5  A    between atoms: N2_9  and  C6_10 
ROOT
ATOM      1  C3  <0> d          -2.164   1.050   1.278  0.00  0.00     0.010 C 
ATOM      2  H1  <0> d          -2.152  -0.036   1.182  0.00  0.00     0.071 H 
ENDROOT
BRANCH   1   3
ATOM      3  C2  <0> d          -0.729   1.579   1.267  0.00  0.00    -0.050 C 
ATOM      4  H5  <0> d          -0.202   1.218   2.150  0.00  0.00     0.035 H 
ATOM      5  H6  <0> d          -0.744   2.669   1.273  0.00  0.00     0.035 H 
BRANCH   3   6
ATOM      6  C1  <0> d          -0.013   1.086   0.008  0.00  0.00    -0.075 C 
ATOM      7  H2  <0> d           0.002  -0.004   0.002  0.00  0.00     0.027 H 
ATOM      8  H3  <0> d           1.010   1.463   0.000  0.00  0.00     0.027 H 
ATOM      9  H4  <0> d          -0.540   1.447  -0.875  0.00  0.00     0.027 H 
ENDBRANCH   3   6
ENDBRANCH   1   3
BRANCH   1  10
ATOM     10  C4  <0> d          -2.841   1.438   2.594  0.00  0.00    -0.057 C 
ATOM     11  H7  <0> d          -2.854   2.524   2.689  0.00  0.00     0.030 H 
ATOM     12  H8  <0> d          -3.864   1.061   2.601  0.00  0.00     0.030 H 
ATOM     13  H9  <0> d          -2.288   1.006   3.428  0.00  0.00     0.030 H 
ENDBRANCH   1  10
BRANCH   1  14
ATOM     14  N1  <0> d          -2.907   1.630   0.156  0.00  0.00    -0.339 N 
ATOM     15  C5  <0> d          -3.975   0.983  -0.351  0.00  0.00     0.316 C 
ATOM     16  O1  <0> d          -4.321  -0.083   0.121  0.00  0.00    -0.247 OA
ATOM     17  N2  <0> d          -4.659   1.517  -1.383  0.00  0.00    -0.347 N 
ATOM     18  H11 <0> d          -4.382   2.367  -1.760  0.00  0.00     0.163 HD
ATOM     19  H10 <0> d          -2.631   2.480  -0.221  0.00  0.00     0.164 HD
BRANCH  17  20
ATOM     20  C6  <0> d          -5.819   0.813  -1.935  0.00  0.00    -0.017 C 
ATOM     21  H12 <0> d          -6.239   1.394  -2.757  0.00  0.00     0.056 H 
ATOM     22  H13 <0> d          -5.510  -0.165  -2.302  0.00  0.00     0.056 H 
ATOM     23  H14 <0> d          -6.572   0.688  -1.157  0.00  0.00     0.056 H 
ENDBRANCH  17  20
ENDBRANCH   1  14
TORSDOF 5
