REMARK  2 active torsions:
REMARK  status: ('A' for Active; 'I' for Inactive)
REMARK    1  A    between atoms: C2_2  and  C3_3 
REMARK    2  A    between atoms: C3_3  and  N1_4 
ROOT
ATOM      1  C1  <0> d          -1.292   1.962  -2.136  0.00  0.00    -0.152 C 
ATOM      2  C2  <0> d          -0.725   1.573  -1.185  0.00  0.00    -0.096 C 
ATOM      3  H1  <0> d          -1.800   2.310  -2.986  0.00  0.00     0.166 H 
ENDROOT
BRANCH   2   4
ATOM      4  C3  <0> d          -0.013   1.086   0.008  0.00  0.00     0.071 C 
ATOM      5  H2  <0> d           0.002  -0.004   0.002  0.00  0.00     0.086 H 
ATOM      6  H3  <0> d           1.010   1.463   0.000  0.00  0.00     0.086 H 
BRANCH   4   7
ATOM      7  N1  <0> d          -0.698   1.558   1.213  0.00  0.00    -0.251 N 
ATOM      8  N3  <0> d          -1.003   2.889   1.541  0.00  0.00    -0.164 NA
ATOM      9  C5  <0> d          -1.616   2.863   2.696  0.00  0.00     0.107 A 
ATOM     10  N2  <0> d          -1.704   1.600   3.110  0.00  0.00    -0.234 NA
ATOM     11  H5  <0> d          -1.986   3.726   3.229  0.00  0.00     0.149 H 
ATOM     12  C4  <0> d          -1.156   0.804   2.228  0.00  0.00     0.085 A 
ATOM     13  H4  <0> d          -1.084  -0.271   2.302  0.00  0.00     0.146 H 
ENDBRANCH   4   7
ENDBRANCH   2   4
TORSDOF 2
