REMARK  2 active torsions:
REMARK  status: ('A' for Active; 'I' for Inactive)
REMARK    1  A    between atoms: C3_3  and  N3_12 
REMARK    2  A    between atoms: C7_8  and  N2_11 
ROOT
ATOM      1  C1  <0> d          -0.017   1.406   0.010  0.00  0.00    -0.067 A 
ATOM      2  C2  <0> d           1.174   2.068   0.002  0.00  0.00    -0.038 A 
ATOM      3  C3  <0> d           2.375   1.345  -0.013  0.00  0.00     0.121 A 
ATOM      4  N1  <0> d           2.386   0.028  -0.021  0.00  0.00    -0.231 NA
ATOM      5  C4  <0> d           1.248  -0.677  -0.014  0.00  0.00     0.069 A 
ATOM      6  C5  <0> d           0.002  -0.004   0.002  0.00  0.00    -0.005 A 
ATOM      7  C6  <0> d          -1.188  -0.747   0.009  0.00  0.00    -0.046 A 
ATOM      8  C7  <0> d          -1.129  -2.123   0.001  0.00  0.00     0.026 A 
ATOM      9  C8  <0> d           0.105  -2.782  -0.014  0.00  0.00    -0.056 A 
ATOM     10  C9  <0> d           1.272  -2.082  -0.022  0.00  0.00    -0.052 A 
ATOM     11  H1  <0> d          -0.952   1.947   0.026  0.00  0.00     0.085 H 
ATOM     12  H2  <0> d           1.192   3.148   0.007  0.00  0.00     0.089 H 
ATOM     13  H3  <0> d          -2.144  -0.243   0.021  0.00  0.00     0.088 H 
ATOM     14  H4  <0> d           0.133  -3.861  -0.020  0.00  0.00     0.087 H 
ATOM     15  H5  <0> d           2.216  -2.607  -0.034  0.00  0.00     0.087 H 
ENDROOT
BRANCH   3  16
ATOM     16  N3  <0> d           3.580   2.033  -0.021  0.00  0.00    -0.384 N 
ATOM     17  H8  <0> d           3.585   3.003  -0.016  0.00  0.00     0.157 HD
ATOM     18  H9  <0> d           4.418   1.544  -0.032  0.00  0.00     0.157 HD
ENDBRANCH   3  16
BRANCH   8  19
ATOM     19  N2  <0> d          -2.312  -2.868   0.007  0.00  0.00    -0.399 N 
ATOM     20  H6  <0> d          -3.170  -2.416   0.018  0.00  0.00     0.156 HD
ATOM     21  H7  <0> d          -2.275  -3.837   0.001  0.00  0.00     0.156 HD
ENDBRANCH   8  19
TORSDOF 2
