REMARK  1 active torsions:
REMARK  status: ('A' for Active; 'I' for Inactive)
REMARK    1  A    between atoms: C3_3  and  C5_7 
ROOT
ATOM      1  C1  <0> d          -0.016   1.348   0.009  0.00  0.00    -0.066 A 
ATOM      2  C2  <0> d           1.313   1.794  -0.001  0.00  0.00    -0.053 A 
ATOM      3  C3  <0> d           2.113   0.686  -0.014  0.00  0.00     0.068 A 
ATOM      4  N1  <0> d           1.298  -0.420  -0.013  0.00  0.00    -0.364 N 
ATOM      5  H1  <0> d           1.597  -1.343  -0.020  0.00  0.00     0.165 HD
ATOM      6  C4  <0> d           0.002  -0.004   0.002  0.00  0.00    -0.022 A 
ATOM      7  H2  <0> d          -0.897   1.973   0.025  0.00  0.00     0.085 H 
ATOM      8  H3  <0> d           1.643   2.822   0.001  0.00  0.00     0.087 H 
ATOM      9  H4  <0> d          -0.866  -0.646   0.007  0.00  0.00     0.111 H 
ENDROOT
BRANCH   3  10
ATOM     10  C5  <0> d           3.583   0.679  -0.029  0.00  0.00     0.129 A 
ATOM     11  O1  <0> d           4.384   1.763  -0.032  0.00  0.00    -0.211 OA
ATOM     12  N2  <0> d           5.726   1.310  -0.045  0.00  0.00    -0.140 NA
ATOM     13  C7  <0> d           5.716   0.006  -0.058  0.00  0.00     0.032 A 
ATOM     14  C6  <0> d           4.384  -0.426  -0.048  0.00  0.00    -0.027 A 
ATOM     15  H6  <0> d           6.587  -0.632  -0.072  0.00  0.00     0.118 H 
ATOM     16  H5  <0> d           4.049  -1.453  -0.054  0.00  0.00     0.090 H 
ENDBRANCH   3  10
TORSDOF 1
