REMARK  3 active torsions:
REMARK  status: ('A' for Active; 'I' for Inactive)
REMARK    1  A    between atoms: C1_1  and  O1_2 
REMARK    2  A    between atoms: O1_2  and  C2_3 
REMARK    3  A    between atoms: C7_8  and  N1_9 
ROOT
ATOM      1  C2  <0> d           1.181   1.784   0.000  0.00  0.00     0.094 A 
ATOM      2  C3  <0> d          -0.013   1.076   0.008  0.00  0.00    -0.047 A 
ATOM      3  C4  <0> d          -1.217   1.747   0.017  0.00  0.00    -0.060 A 
ATOM      4  C5  <0> d          -1.238   3.144   0.031  0.00  0.00     0.046 A 
ATOM      5  C6  <0> d          -0.038   3.859   0.023  0.00  0.00    -0.035 A 
ATOM      6  C7  <0> d           1.167   3.179   0.007  0.00  0.00     0.061 A 
ATOM      7  C8  <0> d          -2.489   3.842   0.046  0.00  0.00     0.099 C 
ATOM      8  N2  <0> d          -3.481   4.396   0.059  0.00  0.00    -0.191 NA
ATOM      9  H4  <0> d           0.002  -0.004   0.002  0.00  0.00     0.087 H 
ATOM     10  H5  <0> d          -2.144   1.193   0.018  0.00  0.00     0.086 H 
ATOM     11  H6  <0> d          -0.050   4.939   0.028  0.00  0.00     0.089 H 
ENDROOT
BRANCH   6  12
ATOM     12  N1  <0> d           2.372   3.891  -0.000  0.00  0.00    -0.397 N 
ATOM     13  H7  <0> d           2.362   4.991   0.005  0.00  0.00     0.156 HD
ATOM     14  H8  <0> d           3.330   3.351  -0.012  0.00  0.00     0.156 HD
ENDBRANCH   6  12
BRANCH   1  15
ATOM     15  O1  <0> d           2.364   1.117  -0.015  0.00  0.00    -0.354 OA
BRANCH  15  16
ATOM     16  C1  <0> d           2.305  -0.310  -0.022  0.00  0.00     0.010 C 
ATOM     17  H1  <0> d           3.326  -0.720  -0.034  0.00  0.00     0.066 H 
ATOM     18  H2  <0> d           1.763  -0.650  -0.916  0.00  0.00     0.066 H 
ATOM     19  H3  <0> d           1.780  -0.660   0.880  0.00  0.00     0.066 H 
ENDBRANCH  15  16
ENDBRANCH   1  15
TORSDOF 3
