REMARK  0 active torsions:
REMARK  status: ('A' for Active; 'I' for Inactive)
ROOT
ATOM      1  C1  <0> d          -1.972   3.359   0.068  0.00  0.00    -0.044 C 
ATOM      2  C2  <0> d          -1.615   2.573  -1.172  0.00  0.00    -0.106 C 
ATOM      3  C3  <0> d          -0.762   1.596  -1.202  0.00  0.00    -0.104 C 
ATOM      4  C4  <0> d          -0.013   1.086   0.008  0.00  0.00    -0.025 C 
ATOM      5  C5  <0> d          -0.741   1.584   1.241  0.00  0.00     0.055 C 
ATOM      6  H1  <0> d          -1.734   1.138   1.287  0.00  0.00     0.085 H 
ATOM      7  C6  <0> d          -0.867   3.132   1.089  0.00  0.00    -0.017 C 
ATOM      8  H2  <0> d           0.066   3.611   0.793  0.00  0.00     0.045 H 
ATOM      9  C7  <0> d          -1.258   3.465   2.541  0.00  0.00     0.022 C 
ATOM     10  C8  <0> d          -0.411   2.461   3.321  0.00  0.00     0.259 C 
ATOM     11  O1  <0> d          -0.084   2.573   4.479  0.00  0.00    -0.265 OA
ATOM     12  O2  <0> d          -0.084   1.426   2.511  0.00  0.00    -0.315 OA
ATOM     13  H3  <0> d          -2.042   4.420  -0.173  0.00  0.00     0.039 H 
ATOM     14  H4  <0> d          -2.924   3.008   0.467  0.00  0.00     0.039 H 
ATOM     15  H5  <0> d          -2.104   2.843  -2.097  0.00  0.00     0.076 H 
ATOM     16  H6  <0> d          -0.576   1.116  -2.151  0.00  0.00     0.076 H 
ATOM     17  H7  <0> d           0.002  -0.004   0.002  0.00  0.00     0.042 H 
ATOM     18  H8  <0> d           1.007   1.470   0.000  0.00  0.00     0.042 H 
ATOM     19  H9  <0> d          -0.983   4.489   2.794  0.00  0.00     0.048 H 
ATOM     20  H10 <0> d          -2.321   3.294   2.708  0.00  0.00     0.048 H 
ENDROOT
TORSDOF 0
