REMARK  8 active torsions:
REMARK  status: ('A' for Active; 'I' for Inactive)
REMARK    1  A    between atoms: C1_1  and  C2_2 
REMARK    2  A    between atoms: C2_2  and  C3_3 
REMARK    3  A    between atoms: C3_3  and  C4_4 
REMARK    4  A    between atoms: C4_4  and  C5_6 
REMARK    5  A    between atoms: C4_4  and  C8_11 
REMARK    6  A    between atoms: C5_6  and  C6_8 
REMARK    7  A    between atoms: C5_6  and  O1_10 
REMARK    8  A    between atoms: C6_8  and  C7_9 
ROOT
ATOM      1  C4  <0> d           0.821  -1.929  -1.269  0.00  0.00     0.055 C 
ATOM      2  H1  <0> d          -0.083  -2.477  -1.533  0.00  0.00     0.060 H 
ENDROOT
BRANCH   1   3
ATOM      3  C3  <0> d           0.444  -0.532  -0.771  0.00  0.00    -0.050 C 
ATOM      4  H8  <0> d          -0.009   0.034  -1.586  0.00  0.00     0.034 H 
ATOM      5  H9  <0> d           1.339  -0.016  -0.424  0.00  0.00     0.034 H 
BRANCH   3   6
ATOM      6  C2  <0> d          -0.555  -0.654   0.381  0.00  0.00    -0.068 C 
ATOM      7  H6  <0> d          -0.103  -1.219   1.196  0.00  0.00     0.032 H 
ATOM      8  H7  <0> d          -1.450  -1.170   0.034  0.00  0.00     0.032 H 
BRANCH   6   9
ATOM      9  C1  <0> d          -0.933   0.743   0.878  0.00  0.00    -0.076 C 
ATOM     10  H3  <0> d          -0.038   1.259   1.226  0.00  0.00     0.027 H 
ATOM     11  H4  <0> d          -1.385   1.309   0.064  0.00  0.00     0.027 H 
ATOM     12  H5  <0> d          -1.644   0.656   1.700  0.00  0.00     0.027 H 
ENDBRANCH   6   9
ENDBRANCH   3   6
ENDBRANCH   1   3
BRANCH   1  13
ATOM     13  C5  <0> d           1.722  -1.806  -2.500  0.00  0.00     0.048 C 
ATOM     14  H2  <0> d           2.066  -2.796  -2.798  0.00  0.00     0.084 H 
BRANCH  13  15
ATOM     15  C6  <0> d           0.932  -1.173  -3.648  0.00  0.00    -0.044 C 
ATOM     16  H10 <0> d           0.025  -1.750  -3.826  0.00  0.00     0.036 H 
ATOM     17  H11 <0> d           0.665  -0.149  -3.384  0.00  0.00     0.036 H 
BRANCH  15  18
ATOM     18  C7  <0> d           1.791  -1.167  -4.914  0.00  0.00    -0.074 C 
ATOM     19  H12 <0> d           2.058  -2.190  -5.177  0.00  0.00     0.027 H 
ATOM     20  H13 <0> d           1.228  -0.716  -5.732  0.00  0.00     0.027 H 
ATOM     21  H14 <0> d           2.698  -0.589  -4.735  0.00  0.00     0.027 H 
ENDBRANCH  15  18
ENDBRANCH  13  15
BRANCH  13  22
ATOM     22  O1  <0> d           2.848  -0.984  -2.186  0.00  0.00    -0.395 OA
ATOM     23  H15 <0> d           2.615  -0.086  -1.912  0.00  0.00     0.210 HD
ENDBRANCH  13  22
ENDBRANCH   1  13
BRANCH   1  24
ATOM     24  C8  <0> d           1.557  -2.668  -0.180  0.00  0.00     0.179 C 
ATOM     25  O2  <0> d           2.320  -2.073   0.544  0.00  0.00    -0.648 OA
ATOM     26  O3  <0> d           1.364  -3.986  -0.016  0.00  0.00    -0.648 OA
ENDBRANCH   1  24
TORSDOF 8
