REMARK  5 active torsions:
REMARK  status: ('A' for Active; 'I' for Inactive)
REMARK    1  A    between atoms: C1_1  and  C2_2 
REMARK    2  A    between atoms: C2_2  and  C3_3 
REMARK    3  A    between atoms: C3_3  and  C4_4 
REMARK    4  A    between atoms: C4_4  and  N1_5 
REMARK    5  A    between atoms: C7_8  and  C8_10 
ROOT
ATOM      1  C4  <0> d           1.468   4.364   0.011  0.00  0.00     0.016 C 
ATOM      2  H8  <0> d           1.329   4.905   0.947  0.00  0.00     0.067 H 
ATOM      3  H9  <0> d           2.514   4.077  -0.090  0.00  0.00     0.067 H 
ENDROOT
BRANCH   1   4
ATOM      4  C3  <0> d           1.069   5.262  -1.162  0.00  0.00    -0.049 C 
ATOM      5  H6  <0> d           1.208   4.720  -2.098  0.00  0.00     0.035 H 
ATOM      6  H7  <0> d           0.022   5.549  -1.060  0.00  0.00     0.035 H 
BRANCH   4   7
ATOM      7  C2  <0> d           1.944   6.517  -1.164  0.00  0.00    -0.067 C 
ATOM      8  H4  <0> d           1.805   7.058  -0.228  0.00  0.00     0.032 H 
ATOM      9  H5  <0> d           2.991   6.229  -1.266  0.00  0.00     0.032 H 
BRANCH   7  10
ATOM     10  C1  <0> d           1.546   7.414  -2.337  0.00  0.00    -0.076 C 
ATOM     11  H1  <0> d           2.169   8.308  -2.338  0.00  0.00     0.027 H 
ATOM     12  H2  <0> d           1.685   6.873  -3.273  0.00  0.00     0.027 H 
ATOM     13  H3  <0> d           0.499   7.701  -2.236  0.00  0.00     0.027 H 
ENDBRANCH   7  10
ENDBRANCH   4   7
ENDBRANCH   1   4
BRANCH   1  14
ATOM     14  N1  <0> d           0.630   3.162   0.013  0.00  0.00    -0.281 N 
ATOM     15  N2  <0> d          -0.771   3.134   0.026  0.00  0.00    -0.178 NA
ATOM     16  C7  <0> d          -1.155   1.883   0.017  0.00  0.00     0.052 A 
ATOM     17  C6  <0> d          -0.013   1.076   0.008  0.00  0.00    -0.041 A 
ATOM     18  C5  <0> d           1.071   1.887   0.002  0.00  0.00     0.000 A 
ATOM     19  H11 <0> d           0.002  -0.004   0.002  0.00  0.00     0.088 H 
ATOM     20  H10 <0> d           2.103   1.570  -0.010  0.00  0.00     0.114 H 
BRANCH  16  21
ATOM     21  C8  <0> d          -2.581   1.397   0.020  0.00  0.00    -0.034 C 
ATOM     22  H12 <0> d          -2.921   1.274   1.049  0.00  0.00     0.035 H 
ATOM     23  H13 <0> d          -3.214   2.124  -0.487  0.00  0.00     0.035 H 
ATOM     24  H14 <0> d          -2.639   0.440  -0.498  0.00  0.00     0.035 H 
ENDBRANCH  16  21
ENDBRANCH   1  14
TORSDOF 5
