REMARK  2 active torsions:
REMARK  status: ('A' for Active; 'I' for Inactive)
REMARK    1  A    between atoms: C5_7  and  O1_12 
REMARK    2  A    between atoms: C7_9  and  N2_11 
ROOT
ATOM      1  C1  <0> d          -0.018   1.461   0.010  0.00  0.00    -0.053 A 
ATOM      2  C2  <0> d           1.260   1.871   0.000  0.00  0.00    -0.022 A 
ATOM      3  N1  <0> d           2.097   0.786  -0.014  0.00  0.00    -0.365 N 
ATOM      4  H1  <0> d           3.066   0.830  -0.022  0.00  0.00     0.165 HD
ATOM      5  C3  <0> d           1.358  -0.376  -0.013  0.00  0.00     0.047 A 
ATOM      6  C4  <0> d           0.002  -0.004   0.002  0.00  0.00     0.025 A 
ATOM      7  C5  <0> d          -0.995  -0.988   0.006  0.00  0.00     0.080 A 
ATOM      8  C6  <0> d          -0.638  -2.322  -0.003  0.00  0.00    -0.025 A 
ATOM      9  C7  <0> d           0.707  -2.689  -0.018  0.00  0.00     0.030 A 
ATOM     10  C8  <0> d           1.699  -1.724  -0.023  0.00  0.00    -0.031 A 
ATOM     11  H2  <0> d          -0.895   2.092   0.018  0.00  0.00     0.087 H 
ATOM     12  H3  <0> d           1.580   2.903   0.002  0.00  0.00     0.111 H 
ATOM     13  H4  <0> d          -1.403  -3.084   0.001  0.00  0.00     0.091 H 
ATOM     14  H5  <0> d           2.738  -2.018  -0.034  0.00  0.00     0.090 H 
ENDROOT
BRANCH   9  15
ATOM     15  N2  <0> d           1.056  -4.042  -0.029  0.00  0.00    -0.399 N 
ATOM     16  H6  <0> d           1.990  -4.302  -0.039  0.00  0.00     0.156 HD
ATOM     17  H7  <0> d           0.363  -4.722  -0.025  0.00  0.00     0.156 HD
ENDBRANCH   9  15
BRANCH   7  18
ATOM     18  O1  <0> d          -2.306  -0.632   0.021  0.00  0.00    -0.360 OA
ATOM     19  H8  <0> d          -2.694  -0.524  -0.858  0.00  0.00     0.217 HD
ENDBRANCH   7  18
TORSDOF 2
