REMARK  8 active torsions:
REMARK  status: ('A' for Active; 'I' for Inactive)
REMARK    1  A    between atoms: C1_1  and  C2_2 
REMARK    2  A    between atoms: C2_2  and  C3_3 
REMARK    3  A    between atoms: C2_2  and  C5_6 
REMARK    4  A    between atoms: C2_2  and  O3_9 
REMARK    5  A    between atoms: C3_3  and  C4_4 
REMARK    6  A    between atoms: C4_4  and  O1_5 
REMARK    7  A    between atoms: C5_6  and  C6_7 
REMARK    8  A    between atoms: C6_7  and  O2_8 
ROOT
ATOM      1  C2  <0> d           2.534   3.726  -0.002  0.00  0.00     0.058 C 
ENDROOT
BRANCH   1   2
ATOM      2  C1  <0> d           3.355   3.183   1.169  0.00  0.00    -0.048 C 
ATOM      3  H1  <0> d           3.453   2.101   1.073  0.00  0.00     0.031 H 
ATOM      4  H2  <0> d           4.345   3.639   1.162  0.00  0.00     0.031 H 
ATOM      5  H3  <0> d           2.852   3.420   2.106  0.00  0.00     0.031 H 
ENDBRANCH   1   2
BRANCH   1   6
ATOM      6  C3  <0> d           1.145   3.085   0.008  0.00  0.00    -0.017 C 
ATOM      7  H4  <0> d           0.591   3.404  -0.875  0.00  0.00     0.040 H 
ATOM      8  H5  <0> d           0.608   3.395   0.904  0.00  0.00     0.040 H 
BRANCH   6   9
ATOM      9  C4  <0> d           1.286   1.562  -0.002  0.00  0.00     0.019 C 
ATOM     10  H6  <0> d           1.840   1.243   0.881  0.00  0.00     0.074 H 
ATOM     11  H7  <0> d           1.823   1.252  -0.899  0.00  0.00     0.074 H 
BRANCH   9  12
ATOM     12  O1  <0> d          -0.011   0.963   0.007  0.00  0.00    -0.401 OA
ATOM     13  H8  <0> d           0.002  -0.004   0.002  0.00  0.00     0.209 HD
ENDBRANCH   9  12
ENDBRANCH   6   9
ENDBRANCH   1   6
BRANCH   1  14
ATOM     14  C5  <0> d           2.396   5.244   0.133  0.00  0.00    -0.017 C 
ATOM     15  H9  <0> d           1.811   5.632  -0.701  0.00  0.00     0.040 H 
ATOM     16  H10 <0> d           1.893   5.481   1.071  0.00  0.00     0.040 H 
BRANCH  14  17
ATOM     17  C6  <0> d           3.785   5.886   0.123  0.00  0.00     0.019 C 
ATOM     18  H11 <0> d           4.370   5.498   0.958  0.00  0.00     0.074 H 
ATOM     19  H12 <0> d           4.288   5.648  -0.814  0.00  0.00     0.074 H 
BRANCH  17  20
ATOM     20  O2  <0> d           3.656   7.303   0.249  0.00  0.00    -0.401 OA
ATOM     21  H13 <0> d           4.500   7.776   0.251  0.00  0.00     0.209 HD
ENDBRANCH  17  20
ENDBRANCH  14  17
ENDBRANCH   1  14
BRANCH   1  22
ATOM     22  O3  <0> d           3.193   3.416  -1.231  0.00  0.00    -0.390 OA
ATOM     23  H14 <0> d           2.728   3.731  -2.018  0.00  0.00     0.210 HD
ENDBRANCH   1  22
TORSDOF 8
