REMARK  5 active torsions:
REMARK  status: ('A' for Active; 'I' for Inactive)
REMARK    1  A    between atoms: C1_1  and  O1_2 
REMARK    2  A    between atoms: O1_2  and  C2_3 
REMARK    3  A    between atoms: C4_5  and  N3_11 
REMARK    4  A    between atoms: C5_7  and  O2_9 
REMARK    5  A    between atoms: O2_9  and  C6_10 
ROOT
ATOM      1  C2  <0> d          -3.896   1.211   2.617  0.00  0.00     0.171 A 
ATOM      2  C3  <0> d          -4.526   0.407   1.676  0.00  0.00     0.012 A 
ATOM      3  C4  <0> d          -3.801   0.003   0.558  0.00  0.00     0.129 A 
ATOM      4  N1  <0> d          -2.537   0.398   0.430  0.00  0.00    -0.190 NA
ATOM      5  C5  <0> d          -1.971   1.164   1.348  0.00  0.00     0.272 A 
ATOM      6  N2  <0> d          -2.628   1.563   2.424  0.00  0.00    -0.182 NA
ATOM      7  H4  <0> d          -5.554   0.103   1.808  0.00  0.00     0.096 H 
ENDROOT
BRANCH   1   8
ATOM      8  O1  <0> d          -4.564   1.629   3.721  0.00  0.00    -0.339 OA
BRANCH   8   9
ATOM      9  C1  <0> d          -3.845   2.453   4.641  0.00  0.00     0.012 C 
ATOM     10  H1  <0> d          -3.518   3.362   4.135  0.00  0.00     0.067 H 
ATOM     11  H2  <0> d          -4.494   2.716   5.476  0.00  0.00     0.067 H 
ATOM     12  H3  <0> d          -2.975   1.911   5.012  0.00  0.00     0.067 H 
ENDBRANCH   8   9
ENDBRANCH   1   8
BRANCH   5  13
ATOM     13  O2  <0> d          -0.682   1.547   1.184  0.00  0.00    -0.324 OA
BRANCH  13  14
ATOM     14  C6  <0> d          -0.013   1.086   0.008  0.00  0.00     0.013 C 
ATOM     15  H5  <0> d           0.002  -0.004   0.002  0.00  0.00     0.067 H 
ATOM     16  H6  <0> d           1.010   1.463   0.000  0.00  0.00     0.067 H 
ATOM     17  H7  <0> d          -0.540   1.447  -0.875  0.00  0.00     0.067 H 
ENDBRANCH  13  14
ENDBRANCH   5  13
BRANCH   3  18
ATOM     18  N3  <0> d          -4.387  -0.800  -0.407  0.00  0.00    -0.384 N 
ATOM     19  H8  <0> d          -3.876  -1.078  -1.183  0.00  0.00     0.157 HD
ATOM     20  H9  <0> d          -5.309  -1.085  -0.307  0.00  0.00     0.157 HD
ENDBRANCH   3  18
TORSDOF 5
