REMARK  2 active torsions:
REMARK  status: ('A' for Active; 'I' for Inactive)
REMARK    1  A    between atoms: C1_1  and  C2_2 
REMARK    2  A    between atoms: C2_2  and  O1_10 
ROOT
ATOM      1  C2  <0> d           1.287   1.562  -0.002  0.00  0.00     0.054 C 
ATOM      2  C3  <0> d           2.087   1.071   1.199  0.00  0.00    -0.037 C 
ATOM      3  C4  <0> d           1.970   1.990   2.406  0.00  0.00    -0.062 C 
ATOM      4  C5  <0> d           0.711   1.682   3.211  0.00  0.00    -0.065 C 
ATOM      5  C6  <0> d          -0.520   2.330   2.601  0.00  0.00    -0.065 C 
ATOM      6  C7  <0> d          -0.210   3.674   1.962  0.00  0.00    -0.065 C 
ATOM      7  C8  <0> d          -0.189   3.560   0.441  0.00  0.00    -0.062 C 
ATOM      8  C9  <0> d           1.181   3.082  -0.038  0.00  0.00    -0.037 C 
ATOM      9  H4  <0> d           1.740   0.068   1.474  0.00  0.00     0.037 H 
ATOM     10  H5  <0> d           3.143   0.989   0.912  0.00  0.00     0.037 H 
ATOM     11  H6  <0> d           2.016   3.031   2.126  0.00  0.00     0.033 H 
ATOM     12  H7  <0> d           2.841   1.800   3.062  0.00  0.00     0.033 H 
ATOM     13  H8  <0> d           0.844   2.043   4.236  0.00  0.00     0.033 H 
ATOM     14  H9  <0> d           0.569   0.596   3.252  0.00  0.00     0.033 H 
ATOM     15  H10 <0> d          -1.267   2.484   3.397  0.00  0.00     0.033 H 
ATOM     16  H11 <0> d          -0.973   1.661   1.868  0.00  0.00     0.033 H 
ATOM     17  H12 <0> d           0.728   4.079   2.329  0.00  0.00     0.033 H 
ATOM     18  H13 <0> d          -1.003   4.386   2.242  0.00  0.00     0.033 H 
ATOM     19  H14 <0> d          -0.380   4.553   0.012  0.00  0.00     0.033 H 
ATOM     20  H15 <0> d          -0.975   2.893   0.102  0.00  0.00     0.033 H 
ATOM     21  H16 <0> d           1.972   3.543   0.543  0.00  0.00     0.037 H 
ATOM     22  H17 <0> d           1.310   3.411  -1.082  0.00  0.00     0.037 H 
ENDROOT
BRANCH   1  23
ATOM     23  C1  <0> d           2.008   1.099  -1.283  0.00  0.00    -0.048 C 
ATOM     24  H1  <0> d           1.437   1.416  -2.156  0.00  0.00     0.031 H 
ATOM     25  H2  <0> d           3.003   1.540  -1.319  0.00  0.00     0.031 H 
ATOM     26  H3  <0> d           2.092   0.012  -1.280  0.00  0.00     0.031 H 
ENDBRANCH   1  23
BRANCH   1  27
ATOM     27  O1  <0> d          -0.011   0.963   0.007  0.00  0.00    -0.390 OA
ATOM     28  H18 <0> d           0.002  -0.004   0.002  0.00  0.00     0.210 HD
ENDBRANCH   1  27
TORSDOF 2
