REMARK  3 active torsions:
REMARK  status: ('A' for Active; 'I' for Inactive)
REMARK    1  A    between atoms: C1_1  and  C2_2 
REMARK    2  A    between atoms: C2_2  and  C3_3 
REMARK    3  A    between atoms: C5_8  and  N3_9 
ROOT
ATOM      1  C3  <0> d           0.718  -0.497  -1.257  0.00  0.00     0.036 A 
ATOM      2  H1  <0> d           0.266  -0.065  -2.149  0.00  0.00     0.060 H 
ATOM      3  C4  <0> d           2.196  -0.169  -1.194  0.00  0.00     0.012 A 
ATOM      4  N1  <0> d           2.817  -1.300  -1.224  0.00  0.00    -0.189 NA
ATOM      5  N2  <0> d           1.948  -2.384  -1.300  0.00  0.00    -0.267 N 
ATOM      6  C5  <0> d           0.695  -2.012  -1.326  0.00  0.00     0.100 A 
ATOM      7  H7  <0> d           2.641   0.814  -1.137  0.00  0.00     0.111 H 
ATOM      8  H10 <0> d           2.238  -3.309  -1.331  0.00  0.00     0.190 HD
ENDROOT
BRANCH   1   9
ATOM      9  C2  <0> d           0.002  -0.004   0.002  0.00  0.00    -0.054 C 
ATOM     10  H5  <0> d           0.529  -0.365   0.885  0.00  0.00     0.034 H 
ATOM     11  H6  <0> d          -1.020  -0.381   0.010  0.00  0.00     0.034 H 
BRANCH   9  12
ATOM     12  C1  <0> d          -0.019   1.526   0.010  0.00  0.00    -0.075 C 
ATOM     13  H2  <0> d           1.004   1.903   0.003  0.00  0.00     0.027 H 
ATOM     14  H3  <0> d          -0.546   1.887  -0.873  0.00  0.00     0.027 H 
ATOM     15  H4  <0> d          -0.529   1.877   0.907  0.00  0.00     0.027 H 
ENDBRANCH   9  12
ENDBRANCH   1   9
BRANCH   6  16
ATOM     16  N3  <0> d          -0.408  -2.818  -1.399  0.00  0.00    -0.387 N 
ATOM     17  H8  <0> d          -1.296  -2.426  -1.411  0.00  0.00     0.157 HD
ATOM     18  H9  <0> d          -0.303  -3.781  -1.439  0.00  0.00     0.157 HD
ENDBRANCH   6  16
TORSDOF 3
