REMARK  1 active torsions:
REMARK  status: ('A' for Active; 'I' for Inactive)
REMARK    1  A    between atoms: C1_1  and  C2_2 
ROOT
ATOM      1  C2  <0> d           0.613   3.056   0.012  0.00  0.00     0.049 A 
ATOM      2  C3  <0> d           1.081   1.794   0.001  0.00  0.00     0.003 A 
ATOM      3  N1  <0> d          -0.011   0.966   0.007  0.00  0.00    -0.339 N 
ATOM      4  H1  <0> d           0.003  -0.034   0.006  0.00  0.00     0.167 HD
ATOM      5  C4  <0> d          -1.109   1.753   0.016  0.00  0.00     0.201 A 
ATOM      6  N2  <0> d          -0.728   3.002   0.024  0.00  0.00    -0.224 NA
ATOM      7 Cl1  <0> d          -2.753   1.196   0.021  0.00  0.00    -0.043 Cl
ATOM      8  H5  <0> d           2.118   1.492  -0.010  0.00  0.00     0.114 H 
ENDROOT
BRANCH   1   9
ATOM      9  C1  <0> d           1.448   4.310   0.011  0.00  0.00    -0.034 C 
ATOM     10  H2  <0> d           1.641   4.618  -1.017  0.00  0.00     0.035 H 
ATOM     11  H3  <0> d           0.914   5.104   0.533  0.00  0.00     0.035 H 
ATOM     12  H4  <0> d           2.395   4.117   0.515  0.00  0.00     0.035 H 
ENDBRANCH   1   9
TORSDOF 1
