REMARK  1 active torsions:
REMARK  status: ('A' for Active; 'I' for Inactive)
REMARK    1  A    between atoms: C6_6  and  O1_7 
ROOT
ATOM      1  C1  <0> d          -3.933   3.736   0.684  0.00  0.00    -0.050 A 
ATOM      2  C2  <0> d          -2.945   3.069   1.385  0.00  0.00    -0.073 A 
ATOM      3  C3  <0> d          -1.945   2.393   0.711  0.00  0.00    -0.044 A 
ATOM      4  C4  <0> d          -1.929   2.381  -0.684  0.00  0.00     0.019 A 
ATOM      5  C5  <0> d          -2.933   3.059  -1.390  0.00  0.00    -0.037 A 
ATOM      6  C6  <0> d          -3.928   3.732  -0.704  0.00  0.00     0.066 A 
ATOM      7  C7  <0> d          -0.781   1.605  -1.183  0.00  0.00     0.160 A 
ATOM      8  O2  <0> d          -0.502   1.416  -2.348  0.00  0.00    -0.292 OA
ATOM      9  C8  <0> d          -0.013   1.086   0.008  0.00  0.00    -0.001 A 
ATOM     10  C9  <0> d          -0.771   1.601   1.239  0.00  0.00    -0.034 A 
ATOM     11  H1  <0> d          -4.710   4.262   1.219  0.00  0.00     0.087 H 
ATOM     12  H2  <0> d          -2.955   3.076   2.464  0.00  0.00     0.084 H 
ATOM     13  H3  <0> d          -2.930   3.057  -2.470  0.00  0.00     0.089 H 
ATOM     14  H5  <0> d           0.014   0.087  -0.022  0.00  0.00     0.045 H 
ATOM     15  H6  <0> d           1.005   1.477   0.000  0.00  0.00     0.045 H 
ATOM     16  H7  <0> d          -1.124   0.762   1.839  0.00  0.00     0.040 H 
ATOM     17  H8  <0> d          -0.123   2.242   1.837  0.00  0.00     0.040 H 
ENDROOT
BRANCH   6  18
ATOM     18  O1  <0> d          -4.900   4.389  -1.389  0.00  0.00    -0.361 OA
ATOM     19  H4  <0> d          -4.687   5.311  -1.588  0.00  0.00     0.217 HD
ENDBRANCH   6  18
TORSDOF 1
