REMARK  0 active torsions:
REMARK  status: ('A' for Active; 'I' for Inactive)
ROOT
ATOM      1  C1  <0> d          -0.013   1.076   0.008  0.00  0.00     0.029 A 
ATOM      2  C2  <0> d          -1.214   1.771   0.017  0.00  0.00     0.215 A 
ATOM      3  N1  <0> d          -1.192   3.097   0.030  0.00  0.00    -0.213 NA
ATOM      4  C3  <0> d          -0.049   3.753   0.023  0.00  0.00     0.092 A 
ATOM      5  N2  <0> d           1.111   3.128   0.008  0.00  0.00    -0.213 NA
ATOM      6  C4  <0> d           1.169   1.803   0.001  0.00  0.00     0.215 A 
ATOM      7  F1  <0> d           2.363   1.170  -0.015  0.00  0.00    -0.184 F 
ATOM      8  F2  <0> d          -2.390   1.105   0.019  0.00  0.00    -0.184 F 
ATOM      9  H1  <0> d           0.002  -0.004   0.002  0.00  0.00     0.098 H 
ATOM     10  H2  <0> d          -0.064   4.833   0.028  0.00  0.00     0.146 H 
ENDROOT
TORSDOF 0
