REMARK  1 active torsions:
REMARK  status: ('A' for Active; 'I' for Inactive)
REMARK    1  A    between atoms: C1_1  and  N1_2 
ROOT
ATOM      1  N1  <0> d           1.288  -0.421  -0.013  0.00  0.00    -0.334 N 
ATOM      2  C2  <0> d           0.002  -0.004   0.002  0.00  0.00     0.068 A 
ATOM      3  N2  <0> d          -0.016   1.301   0.009  0.00  0.00    -0.228 NA
ATOM      4  C3  <0> d           1.245   1.761  -0.000  0.00  0.00     0.166 A 
ATOM      5  C4  <0> d           2.076   0.699  -0.014  0.00  0.00     0.147 A 
ATOM      6 Cl1  <0> d           3.812   0.744  -0.031  0.00  0.00    -0.061 Cl
ATOM      7 Cl2  <0> d           1.721   3.430   0.004  0.00  0.00    -0.059 Cl
ATOM      8  H4  <0> d          -0.867  -0.645   0.007  0.00  0.00     0.143 H 
ENDROOT
BRANCH   1   9
ATOM      9  C1  <0> d           1.751  -1.810  -0.025  0.00  0.00    -0.012 C 
ATOM     10  H1  <0> d           1.856  -2.149  -1.056  0.00  0.00     0.057 H 
ATOM     11  H2  <0> d           2.715  -1.876   0.479  0.00  0.00     0.057 H 
ATOM     12  H3  <0> d           1.027  -2.440   0.492  0.00  0.00     0.057 H 
ENDBRANCH   1   9
TORSDOF 1
