REMARK  3 active torsions:
REMARK  status: ('A' for Active; 'I' for Inactive)
REMARK    1  A    between atoms: C1_1  and  N1_2 
REMARK    2  A    between atoms: N1_2  and  C2_3 
REMARK    3  A    between atoms: C5_6  and  N3_9 
ROOT
ATOM      1  C2  <0> d           0.625  -0.698   1.038  0.00  0.00     0.144 A 
ATOM      2  C3  <0> d           0.644  -2.090   1.019  0.00  0.00     0.081 A 
ATOM      3  C4  <0> d           1.266  -2.769   2.052  0.00  0.00    -0.032 A 
ATOM      4  C5  <0> d           1.852  -2.027   3.077  0.00  0.00     0.045 A 
ATOM      5  C6  <0> d           1.793  -0.643   3.028  0.00  0.00     0.030 A 
ATOM      6  N2  <0> d           1.196  -0.027   2.024  0.00  0.00    -0.240 NA
ATOM      7 Cl1  <0> d          -0.102  -2.962  -0.282  0.00  0.00    -0.080 Cl
ATOM      8  H5  <0> d           1.296  -3.849   2.065  0.00  0.00     0.089 H 
ATOM      9  H6  <0> d           2.244  -0.061   3.818  0.00  0.00     0.118 H 
ENDROOT
BRANCH   1  10
ATOM     10  N1  <0> d           0.002  -0.004   0.002  0.00  0.00    -0.378 N 
ATOM     11  H4  <0> d          -0.418  -0.491  -0.724  0.00  0.00     0.160 HD
BRANCH  10  12
ATOM     12  C1  <0> d          -0.018   1.461   0.010  0.00  0.00    -0.020 C 
ATOM     13  H1  <0> d           1.005   1.838   0.002  0.00  0.00     0.056 H 
ATOM     14  H2  <0> d          -0.545   1.822  -0.873  0.00  0.00     0.056 H 
ATOM     15  H3  <0> d          -0.528   1.812   0.907  0.00  0.00     0.056 H 
ENDBRANCH  10  12
ENDBRANCH   1  10
BRANCH   4  16
ATOM     16  N3  <0> d           2.491  -2.672   4.143  0.00  0.00    -0.398 N 
ATOM     17  H7  <0> d           2.528  -3.641   4.171  0.00  0.00     0.156 HD
ATOM     18  H8  <0> d           2.897  -2.150   4.853  0.00  0.00     0.156 HD
ENDBRANCH   4  16
TORSDOF 3
