REMARK  6 active torsions:
REMARK  status: ('A' for Active; 'I' for Inactive)
REMARK    1  A    between atoms: N2_4  and  C3_6 
REMARK    2  A    between atoms: C3_6  and  C4_7 
REMARK    3  A    between atoms: C4_7  and  O1_8 
REMARK    4  A    between atoms: O1_8  and  C5_9 
REMARK    5  A    between atoms: C5_9  and  C6_10 
REMARK    6  A    between atoms: C6_10  and  O2_11 
ROOT
ATOM      1  C4  <0> d           1.291  -2.538   1.158  0.00  0.00     0.036 C 
ATOM      2  H5  <0> d           1.577  -2.049   2.089  0.00  0.00     0.076 H 
ATOM      3  H6  <0> d           0.204  -2.562   1.079  0.00  0.00     0.076 H 
ENDROOT
BRANCH   1   4
ATOM      4  C3  <0> d           1.872  -1.761  -0.025  0.00  0.00     0.037 C 
ATOM      5  H3  <0> d           1.587  -2.250  -0.957  0.00  0.00     0.070 H 
ATOM      6  H4  <0> d           2.959  -1.737   0.054  0.00  0.00     0.070 H 
BRANCH   4   7
ATOM      7  N2  <0> d           1.352  -0.392  -0.013  0.00  0.00    -0.260 N 
ATOM      8  C2  <0> d           2.072   0.744  -0.014  0.00  0.00     0.084 A 
ATOM      9  N1  <0> d           1.238   1.753  -0.000  0.00  0.00    -0.234 NA
ATOM     10  H2  <0> d           3.149   0.812  -0.024  0.00  0.00     0.146 H 
ATOM     11  C1  <0> d          -0.016   1.303   0.009  0.00  0.00     0.107 A 
ATOM     12  N3  <0> d           0.002  -0.004   0.002  0.00  0.00    -0.165 NA
ATOM     13  H1  <0> d          -0.903   1.918   0.025  0.00  0.00     0.149 H 
ENDBRANCH   4   7
ENDBRANCH   1   4
BRANCH   1  14
ATOM     14  O1  <0> d           1.799  -3.874   1.146  0.00  0.00    -0.387 OA
BRANCH  14  15
ATOM     15  C5  <0> d           1.316  -4.689   2.215  0.00  0.00     0.039 C 
ATOM     16  H7  <0> d           1.602  -4.244   3.169  0.00  0.00     0.077 H 
ATOM     17  H8  <0> d           0.229  -4.757   2.158  0.00  0.00     0.077 H 
BRANCH  15  18
ATOM     18  C6  <0> d           1.921  -6.089   2.103  0.00  0.00     0.036 C 
ATOM     19  H9  <0> d           1.486  -6.736   2.865  0.00  0.00     0.077 H 
ATOM     20  H10 <0> d           1.710  -6.498   1.115  0.00  0.00     0.077 H 
BRANCH  18  21
ATOM     21  O2  <0> d           3.335  -6.013   2.295  0.00  0.00    -0.399 OA
ATOM     22  H11 <0> d           3.786  -6.867   2.237  0.00  0.00     0.209 HD
ENDBRANCH  18  21
ENDBRANCH  15  18
ENDBRANCH  14  15
ENDBRANCH   1  14
TORSDOF 6
