REMARK  0 active torsions:
REMARK  status: ('A' for Active; 'I' for Inactive)
ROOT
ATOM      1  C1  <0> d          -0.019   1.572   0.011  0.00  0.00    -0.051 C 
ATOM      2  C2  <0> d           1.551   1.686  -0.004  0.00  0.00    -0.036 C 
ATOM      3  H1  <0> d           1.968   2.690  -0.074  0.00  0.00     0.046 H 
ATOM      4  C3  <0> d           1.906   0.874   1.287  0.00  0.00    -0.047 C 
ATOM      5  C4  <0> d           0.861  -0.249   1.291  0.00  0.00     0.010 C 
ATOM      6  C5  <0> d           0.002  -0.004   0.002  0.00  0.00    -0.026 C 
ATOM      7  H2  <0> d          -0.963  -0.510  -0.043  0.00  0.00     0.047 H 
ATOM      8  C6  <0> d           0.971  -0.236  -1.166  0.00  0.00    -0.101 C 
ATOM      9  C7  <0> d           1.863   0.735  -1.166  0.00  0.00    -0.102 C 
ATOM     10  C8  <0> d           1.386  -1.669   1.467  0.00  0.00     0.029 C 
ATOM     11  O1  <0> d           1.052  -1.484   2.861  0.00  0.00    -0.389 OA
ATOM     12  C9  <0> d           0.082  -0.449   2.586  0.00  0.00     0.029 C 
ATOM     13  H3  <0> d          -0.459   1.978   0.921  0.00  0.00     0.035 H 
ATOM     14  H4  <0> d          -0.476   1.988  -0.887  0.00  0.00     0.035 H 
ATOM     15  H5  <0> d           2.913   0.463   1.218  0.00  0.00     0.035 H 
ATOM     16  H6  <0> d           1.804   1.498   2.175  0.00  0.00     0.035 H 
ATOM     17  H7  <0> d           0.929  -1.055  -1.869  0.00  0.00     0.077 H 
ATOM     18  H8  <0> d           2.677   0.843  -1.867  0.00  0.00     0.076 H 
ATOM     19  H9  <0> d           0.785  -2.428   0.966  0.00  0.00     0.075 H 
ATOM     20  H10 <0> d           2.454  -1.773   1.278  0.00  0.00     0.075 H 
ATOM     21  H11 <0> d           0.133   0.399   3.269  0.00  0.00     0.075 H 
ATOM     22  H12 <0> d          -0.932  -0.821   2.439  0.00  0.00     0.075 H 
ENDROOT
TORSDOF 0
