REMARK  2 active torsions:
REMARK  status: ('A' for Active; 'I' for Inactive)
REMARK    1  A    between atoms: C3_3  and  N1_10 
REMARK    2  A    between atoms: C4_4  and  C7_8 
ROOT
ATOM      1  C1  <0> d          -1.240   1.788   0.015  0.00  0.00    -0.043 A 
ATOM      2  C2  <0> d          -0.058   1.076   0.025  0.00  0.00    -0.054 A 
ATOM      3  C3  <0> d           1.158   1.746   0.020  0.00  0.00     0.043 A 
ATOM      4  C4  <0> d           1.179   3.150   0.011  0.00  0.00     0.069 A 
ATOM      5  C5  <0> d          -0.026   3.858   0.006  0.00  0.00    -0.027 A 
ATOM      6  C6  <0> d          -1.225   3.175   0.011  0.00  0.00     0.117 A 
ATOM      7  F1  <0> d          -2.389   3.861   0.007  0.00  0.00    -0.206 F 
ATOM      8  H1  <0> d          -2.183   1.261   0.014  0.00  0.00     0.088 H 
ATOM      9  H2  <0> d          -0.079  -0.004   0.032  0.00  0.00     0.087 H 
ATOM     10  H3  <0> d          -0.019   4.938  -0.001  0.00  0.00     0.089 H 
ENDROOT
BRANCH   3  11
ATOM     11  N1  <0> d           2.349   1.030   0.024  0.00  0.00    -0.398 N 
ATOM     12  H4  <0> d           2.372   0.125  -0.323  0.00  0.00     0.156 HD
ATOM     13  H5  <0> d           3.158   1.436   0.374  0.00  0.00     0.156 HD
ENDBRANCH   3  11
BRANCH   4  14
ATOM     14  C7  <0> d           2.463   3.872   0.006  0.00  0.00     0.211 C 
ATOM     15  O1  <0> d           3.506   3.257  -0.098  0.00  0.00    -0.644 OA
ATOM     16  O2  <0> d           2.481   5.215   0.118  0.00  0.00    -0.644 OA
ENDBRANCH   4  14
TORSDOF 2
