REMARK  3 active torsions:
REMARK  status: ('A' for Active; 'I' for Inactive)
REMARK    1  A    between atoms: C4_4  and  C7_7 
REMARK    2  A    between atoms: C7_7  and  C8_9 
REMARK    3  A    between atoms: C7_7  and  O3_12 
ROOT
ATOM      1  C1  <0> d          -0.017   1.378   0.010  0.00  0.00    -0.083 A 
ATOM      2  C2  <0> d           1.171   2.086   0.002  0.00  0.00    -0.082 A 
ATOM      3  C3  <0> d           2.377   1.411  -0.013  0.00  0.00    -0.074 A 
ATOM      4  C4  <0> d           2.396   0.029  -0.020  0.00  0.00    -0.019 A 
ATOM      5  C5  <0> d           1.208  -0.679  -0.012  0.00  0.00    -0.074 A 
ATOM      6  C6  <0> d           0.002  -0.004   0.002  0.00  0.00    -0.082 A 
ATOM      7  H2  <0> d          -0.959   1.905   0.026  0.00  0.00     0.083 H 
ATOM      8  H3  <0> d           1.156   3.165   0.008  0.00  0.00     0.083 H 
ATOM      9  H4  <0> d           3.305   1.963  -0.020  0.00  0.00     0.084 H 
ATOM     10  H5  <0> d           1.223  -1.759  -0.018  0.00  0.00     0.084 H 
ATOM     11  H6  <0> d          -0.926  -0.557   0.008  0.00  0.00     0.083 H 
ENDROOT
BRANCH   4  12
ATOM     12  C7  <0> d           3.711  -0.707  -0.038  0.00  0.00     0.144 C 
ATOM     13  H1  <0> d           4.487  -0.074   0.392  0.00  0.00     0.107 H 
BRANCH  12  14
ATOM     14  C8  <0> d           4.074  -1.053  -1.459  0.00  0.00     0.207 C 
ATOM     15  O1  <0> d           4.311  -0.166  -2.261  0.00  0.00    -0.646 OA
ATOM     16  O2  <0> d           4.132  -2.221  -1.806  0.00  0.00    -0.646 OA
ENDBRANCH  12  14
BRANCH  12  17
ATOM     17  O3  <0> d           3.596  -1.907   0.731  0.00  0.00    -0.380 OA
ATOM     18  H7  <0> d           2.922  -2.519   0.405  0.00  0.00     0.211 HD
ENDBRANCH  12  17
ENDBRANCH   4  12
TORSDOF 3
