REMARK  2 active torsions:
REMARK  status: ('A' for Active; 'I' for Inactive)
REMARK    1  A    between atoms: C1_1  and  C2_2 
REMARK    2  A    between atoms: C10_10  and  O1_12 
ROOT
ATOM      1  C2  <0> d           1.067   1.838   0.002  0.00  0.00    -0.050 A 
ATOM      2  C3  <0> d          -0.013   1.076   0.008  0.00  0.00    -0.068 A 
ATOM      3  C4  <0> d          -1.240   1.894   0.018  0.00  0.00    -0.027 A 
ATOM      4  C5  <0> d          -2.593   1.546   0.022  0.00  0.00    -0.072 A 
ATOM      5  C6  <0> d          -3.556   2.534   0.031  0.00  0.00    -0.082 A 
ATOM      6  C7  <0> d          -3.190   3.868   0.036  0.00  0.00    -0.082 A 
ATOM      7  C8  <0> d          -1.851   4.221   0.042  0.00  0.00    -0.073 A 
ATOM      8  C9  <0> d          -0.883   3.244   0.028  0.00  0.00    -0.015 A 
ATOM      9  C10 <0> d           0.626   3.284   0.014  0.00  0.00     0.083 A 
ATOM     10  H1  <0> d           0.982   3.794  -0.881  0.00  0.00     0.098 H 
ATOM     11  H5  <0> d           0.002  -0.004   0.002  0.00  0.00     0.085 H 
ATOM     12  H6  <0> d          -2.884   0.506   0.017  0.00  0.00     0.084 H 
ATOM     13  H7  <0> d          -4.602   2.264   0.034  0.00  0.00     0.083 H 
ATOM     14  H8  <0> d          -3.950   4.635   0.043  0.00  0.00     0.083 H 
ATOM     15  H9  <0> d          -1.567   5.263   0.045  0.00  0.00     0.084 H 
ENDROOT
BRANCH   1  16
ATOM     16  C1  <0> d           2.492   1.351  -0.015  0.00  0.00    -0.052 C 
ATOM     17  H2  <0> d           2.503   0.261  -0.021  0.00  0.00     0.033 H 
ATOM     18  H3  <0> d           2.994   1.724  -0.908  0.00  0.00     0.033 H 
ATOM     19  H4  <0> d           3.011   1.714   0.872  0.00  0.00     0.033 H 
ENDBRANCH   1  16
BRANCH   9  20
ATOM     20  O1  <0> d           1.114   3.940   1.185  0.00  0.00    -0.386 OA
ATOM     21  H10 <0> d           2.079   3.962   1.251  0.00  0.00     0.210 HD
ENDBRANCH   9  20
TORSDOF 2
