REMARK  3 active torsions:
REMARK  status: ('A' for Active; 'I' for Inactive)
REMARK    1  A    between atoms: C1_1  and  N1_2 
REMARK    2  A    between atoms: N1_2  and  C2_3 
REMARK    3  A    between atoms: C3_4  and  N4_9 
ROOT
ATOM      1  C2  <0> d           2.276   1.417  -0.012  0.00  0.00     0.169 A 
ATOM      2  C3  <0> d           2.296   0.015  -0.020  0.00  0.00     0.167 A 
ATOM      3  N2  <0> d           1.155  -0.656  -0.013  0.00  0.00    -0.239 NA
ATOM      4  C4  <0> d           0.002  -0.004   0.002  0.00  0.00     0.021 A 
ATOM      5  C5  <0> d          -0.017   1.374   0.010  0.00  0.00     0.021 A 
ATOM      6  N3  <0> d           1.118   2.058   0.002  0.00  0.00    -0.239 NA
ATOM      7  H5  <0> d          -0.927  -0.554   0.008  0.00  0.00     0.117 H 
ATOM      8  H6  <0> d          -0.961   1.899   0.017  0.00  0.00     0.117 H 
ENDROOT
BRANCH   1   9
ATOM      9  N1  <0> d           3.471   2.133  -0.020  0.00  0.00    -0.376 N 
ATOM     10  H4  <0> d           4.432   1.598  -0.032  0.00  0.00     0.160 HD
BRANCH   9  11
ATOM     11  C1  <0> d           3.447   3.597  -0.011  0.00  0.00    -0.019 C 
ATOM     12  H1  <0> d           4.478   3.981  -0.019  0.00  0.00     0.056 H 
ATOM     13  H2  <0> d           2.932   3.950   0.894  0.00  0.00     0.056 H 
ATOM     14  H3  <0> d           2.914   3.961  -0.902  0.00  0.00     0.056 H 
ENDBRANCH   9  11
ENDBRANCH   1   9
BRANCH   2  15
ATOM     15  N4  <0> d           3.509  -0.667  -0.036  0.00  0.00    -0.381 N 
ATOM     16  H7  <0> d           3.521  -1.767  -0.042  0.00  0.00     0.157 HD
ATOM     17  H8  <0> d           4.455  -0.106  -0.041  0.00  0.00     0.157 HD
ENDBRANCH   2  15
TORSDOF 3
