REMARK  2 active torsions:
REMARK  status: ('A' for Active; 'I' for Inactive)
REMARK    1  A    between atoms: C1_1  and  C2_2 
REMARK    2  A    between atoms: C2_2  and  C3_4 
ROOT
ATOM      1  C3  <0> d           1.192   2.154   0.002  0.00  0.00     0.030 A 
ATOM      2  C4  <0> d           1.156   3.550   0.010  0.00  0.00    -0.068 A 
ATOM      3  C5  <0> d          -0.058   4.208   0.024  0.00  0.00    -0.082 A 
ATOM      4  C6  <0> d          -1.244   3.494   0.032  0.00  0.00    -0.082 A 
ATOM      5  C7  <0> d          -1.230   2.113   0.019  0.00  0.00    -0.062 A 
ATOM      6  C8  <0> d          -0.017   1.428   0.010  0.00  0.00     0.058 A 
ATOM      7  C9  <0> d           0.002  -0.004   0.002  0.00  0.00     0.100 C 
ATOM      8  N1  <0> d           0.018  -1.140  -0.004  0.00  0.00    -0.191 NA
ATOM      9  H4  <0> d           2.076   4.114   0.004  0.00  0.00     0.085 H 
ATOM     10  H5  <0> d          -0.082   5.288   0.029  0.00  0.00     0.083 H 
ATOM     11  H6  <0> d          -2.187   4.021   0.043  0.00  0.00     0.083 H 
ATOM     12  H7  <0> d          -2.160   1.563   0.021  0.00  0.00     0.085 H 
ENDROOT
BRANCH   1  13
ATOM     13  C2  <0> d           2.481   1.446  -0.014  0.00  0.00     0.157 C 
ATOM     14  O1  <0> d           2.507   0.234  -0.021  0.00  0.00    -0.293 OA
BRANCH  13  15
ATOM     15  C1  <0> d           3.769   2.228  -0.022  0.00  0.00    -0.017 C 
ATOM     16  H1  <0> d           3.566   3.207  -0.015  0.00  0.00     0.038 H 
ATOM     17  H2  <0> d           4.355   1.972   0.861  0.00  0.00     0.038 H 
ATOM     18  H3  <0> d           4.338   1.982  -0.919  0.00  0.00     0.038 H 
ENDBRANCH  13  15
ENDBRANCH   1  13
TORSDOF 2
