REMARK  5 active torsions:
REMARK  status: ('A' for Active; 'I' for Inactive)
REMARK    1  A    between atoms: C1_1  and  C2_2 
REMARK    2  A    between atoms: C2_2  and  C3_3 
REMARK    3  A    between atoms: C6_6  and  C8_9 
REMARK    4  A    between atoms: C8_9  and  C9_11 
REMARK    5  A    between atoms: C8_9  and  O1_12 
ROOT
ATOM      1  C3  <0> d           3.395   0.378  -3.468  0.00  0.00    -0.041 A 
ATOM      2  C4  <0> d           2.073  -0.018  -3.333  0.00  0.00    -0.073 A 
ATOM      3  C5  <0> d           1.384   0.366  -2.193  0.00  0.00    -0.056 A 
ATOM      4  C6  <0> d           2.028   1.134  -1.242  0.00  0.00     0.062 A 
ATOM      5  N1  <0> d           3.287   1.492  -1.404  0.00  0.00    -0.262 NA
ATOM      6  C7  <0> d           3.975   1.141  -2.473  0.00  0.00     0.009 A 
ATOM      7  H7  <0> d           1.594  -0.614  -4.095  0.00  0.00     0.084 H 
ATOM      8  H8  <0> d           0.354   0.071  -2.052  0.00  0.00     0.086 H 
ATOM      9  H9  <0> d           5.005   1.454  -2.571  0.00  0.00     0.115 H 
ENDROOT
BRANCH   4  10
ATOM     10  C8  <0> d           1.286   1.562  -0.002  0.00  0.00     0.074 C 
ATOM     11  H1  <0> d           1.123   2.650  -0.008  0.00  0.00     0.092 H 
BRANCH  10  12
ATOM     12  C9  <0> d           2.064   1.114   1.238  0.00  0.00    -0.047 C 
ATOM     13  H10 <0> d           1.522   1.426   2.143  0.00  0.00     0.031 H 
ATOM     14  H11 <0> d           3.062   1.575   1.231  0.00  0.00     0.031 H 
ATOM     15  H12 <0> d           2.165   0.019   1.231  0.00  0.00     0.031 H 
ENDBRANCH  10  12
BRANCH  10  16
ATOM     16  O1  <0> d          -0.011   0.963   0.007  0.00  0.00    -0.390 OA
ATOM     17  H13 <0> d          -0.702   1.160   0.840  0.00  0.00     0.210 HD
ENDBRANCH  10  16
ENDBRANCH   4  10
BRANCH   1  18
ATOM     18  C2  <0> d           4.189  -0.018  -4.687  0.00  0.00    -0.043 C 
ATOM     19  H5  <0> d           4.943   0.755  -4.900  0.00  0.00     0.039 H 
ATOM     20  H6  <0> d           3.513  -0.118  -5.548  0.00  0.00     0.039 H 
BRANCH  18  21
ATOM     21  C1  <0> d           4.888  -1.354  -4.428  0.00  0.00    -0.073 C 
ATOM     22  H2  <0> d           5.467  -1.643  -5.317  0.00  0.00     0.028 H 
ATOM     23  H3  <0> d           4.134  -2.126  -4.214  0.00  0.00     0.028 H 
ATOM     24  H4  <0> d           5.564  -1.254  -3.566  0.00  0.00     0.028 H 
ENDBRANCH  18  21
ENDBRANCH   1  18
TORSDOF 5
