REMARK  3 active torsions:
REMARK  status: ('A' for Active; 'I' for Inactive)
REMARK    1  A    between atoms: C1_1  and  C2_2 
REMARK    2  A    between atoms: C2_2  and  C7_11 
REMARK    3  A    between atoms: C3_3  and  C6_9 
ROOT
ATOM      1  C2  <0> d          -0.719   1.538   1.288  0.00  0.00     0.077 C 
ATOM      2  C3  <0> d          -2.217   1.176   1.222  0.00  0.00     0.069 C 
ATOM      3  H1  <0> d          -2.506   0.572   2.083  0.00  0.00     0.062 H 
ATOM      4  C4  <0> d          -2.912   2.557   1.264  0.00  0.00     0.031 C 
ATOM      5  C5  <0> d          -1.822   3.488   1.764  0.00  0.00     0.260 C 
ATOM      6  O1  <0> d          -1.979   4.487   2.424  0.00  0.00    -0.265 OA
ATOM      7  O2  <0> d          -0.648   2.991   1.333  0.00  0.00    -0.310 OA
ATOM      8  H5  <0> d          -3.752   2.542   1.958  0.00  0.00     0.049 H 
ATOM      9  H6  <0> d          -3.241   2.852   0.268  0.00  0.00     0.049 H 
ENDROOT
BRANCH   1  10
ATOM     10  C1  <0> d           0.003   1.015   0.044  0.00  0.00    -0.046 C 
ATOM     11  H2  <0> d          -0.132  -0.064  -0.028  0.00  0.00     0.031 H 
ATOM     12  H3  <0> d           1.066   1.245   0.117  0.00  0.00     0.031 H 
ATOM     13  H4  <0> d          -0.412   1.492  -0.844  0.00  0.00     0.031 H 
ENDBRANCH   1  10
BRANCH   1  14
ATOM     14  C7  <0> d          -0.090   0.941   2.548  0.00  0.00    -0.046 C 
ATOM     15  H7  <0> d           0.965   1.215   2.592  0.00  0.00     0.031 H 
ATOM     16  H8  <0> d          -0.602   1.329   3.429  0.00  0.00     0.031 H 
ATOM     17  H9  <0> d          -0.183  -0.144   2.523  0.00  0.00     0.031 H 
ENDBRANCH   1  14
BRANCH   2  18
ATOM     18  C6  <0> d          -2.536   0.458  -0.064  0.00  0.00     0.180 C 
ATOM     19  O3  <0> d          -2.810   1.090  -1.057  0.00  0.00    -0.648 OA
ATOM     20  O4  <0> d          -2.515  -0.883  -0.108  0.00  0.00    -0.648 OA
ENDBRANCH   2  18
TORSDOF 3
