REMARK  9 active torsions:
REMARK  status: ('A' for Active; 'I' for Inactive)
REMARK    1  A    between atoms: C1_1  and  C2_2 
REMARK    2  A    between atoms: C2_2  and  O1_3 
REMARK    3  A    between atoms: O1_3  and  C3_4 
REMARK    4  A    between atoms: C3_4  and  C4_5 
REMARK    5  A    between atoms: C4_5  and  C5_6 
REMARK    6  A    between atoms: C4_5  and  O3_10 
REMARK    7  A    between atoms: C5_6  and  O2_7 
REMARK    8  A    between atoms: O2_7  and  C6_8 
REMARK    9  A    between atoms: C6_8  and  C7_9 
ROOT
ATOM      1  C4  <0> d          -0.017   1.425   0.010  0.00  0.00     0.076 C 
ATOM      2  H8  <0> d           1.005   1.802   0.002  0.00  0.00     0.089 H 
ENDROOT
BRANCH   1   3
ATOM      3  C3  <0> d          -0.757   1.932  -1.230  0.00  0.00     0.045 C 
ATOM      4  H6  <0> d          -1.750   1.484  -1.268  0.00  0.00     0.078 H 
ATOM      5  H7  <0> d          -0.850   3.017  -1.179  0.00  0.00     0.078 H 
BRANCH   3   6
ATOM      6  O1  <0> d          -0.025   1.570  -2.402  0.00  0.00    -0.389 OA
BRANCH   6   7
ATOM      7  C2  <0> d          -0.634   1.998  -3.623  0.00  0.00     0.016 C 
ATOM      8  H4  <0> d          -1.624   1.552  -3.711  0.00  0.00     0.073 H 
ATOM      9  H5  <0> d          -0.724   3.085  -3.622  0.00  0.00     0.073 H 
BRANCH   7  10
ATOM     10  C1  <0> d           0.231   1.559  -4.806  0.00  0.00    -0.056 C 
ATOM     11  H1  <0> d          -0.233   1.886  -5.736  0.00  0.00     0.030 H 
ATOM     12  H2  <0> d           1.222   2.006  -4.717  0.00  0.00     0.030 H 
ATOM     13  H3  <0> d           0.321   0.473  -4.806  0.00  0.00     0.030 H 
ENDBRANCH   7  10
ENDBRANCH   6   7
ENDBRANCH   3   6
ENDBRANCH   1   3
BRANCH   1  14
ATOM     14  C5  <0> d          -0.733   1.918   1.269  0.00  0.00     0.045 C 
ATOM     15  H9  <0> d          -0.827   3.004   1.232  0.00  0.00     0.078 H 
ATOM     16  H10 <0> d          -1.726   1.470   1.322  0.00  0.00     0.078 H 
BRANCH  14  17
ATOM     17  O2  <0> d           0.021   1.544   2.423  0.00  0.00    -0.389 OA
BRANCH  17  18
ATOM     18  C6  <0> d          -0.564   1.959   3.659  0.00  0.00     0.016 C 
ATOM     19  H11 <0> d          -0.654   3.045   3.672  0.00  0.00     0.073 H 
ATOM     20  H12 <0> d          -1.553   1.512   3.762  0.00  0.00     0.073 H 
BRANCH  18  21
ATOM     21  C7  <0> d           0.323   1.507   4.821  0.00  0.00    -0.056 C 
ATOM     22  H13 <0> d           0.413   0.421   4.808  0.00  0.00     0.030 H 
ATOM     23  H14 <0> d           1.312   1.955   4.718  0.00  0.00     0.030 H 
ATOM     24  H15 <0> d          -0.123   1.824   5.763  0.00  0.00     0.030 H 
ENDBRANCH  18  21
ENDBRANCH  17  18
ENDBRANCH  14  17
ENDBRANCH   1  14
BRANCH   1  25
ATOM     25  O3  <0> d           0.002  -0.004   0.002  0.00  0.00    -0.391 OA
ATOM     26  H16 <0> d          -0.876  -0.409   0.008  0.00  0.00     0.210 HD
ENDBRANCH   1  25
TORSDOF 9
