REMARK  3 active torsions:
REMARK  status: ('A' for Active; 'I' for Inactive)
REMARK    1  A    between atoms: C1_1  and  C2_2 
REMARK    2  A    between atoms: C2_2  and  C3_3 
REMARK    3  A    between atoms: C2_2  and  C4_4 
ROOT
ATOM      1  C2  <0> d           0.002  -0.004   0.002  0.00  0.00    -0.002 C 
ATOM      2  H4  <0> d          -1.020  -0.381   0.010  0.00  0.00     0.051 H 
ENDROOT
BRANCH   1   3
ATOM      3  C1  <0> d          -0.019   1.526   0.010  0.00  0.00    -0.066 C 
ATOM      4  H1  <0> d           1.004   1.903   0.003  0.00  0.00     0.028 H 
ATOM      5  H2  <0> d          -0.546   1.887  -0.873  0.00  0.00     0.028 H 
ATOM      6  H3  <0> d          -0.529   1.877   0.907  0.00  0.00     0.028 H 
ENDBRANCH   1   3
BRANCH   1   7
ATOM      7  C3  <0> d           0.718  -0.497  -1.257  0.00  0.00    -0.066 C 
ATOM      8  H5  <0> d           1.741  -0.120  -1.264  0.00  0.00     0.028 H 
ATOM      9  H6  <0> d           0.733  -1.587  -1.263  0.00  0.00     0.028 H 
ATOM     10  H7  <0> d           0.191  -0.136  -2.140  0.00  0.00     0.028 H 
ENDBRANCH   1   7
BRANCH   1  11
ATOM     11  C4  <0> d           0.731  -0.503   1.223  0.00  0.00     0.130 A 
ATOM     12  N2  <0> d           0.092  -1.273   2.081  0.00  0.00    -0.221 NA
ATOM     13  C7  <0> d           0.702  -1.735   3.162  0.00  0.00     0.129 A 
ATOM     14  C6  <0> d           2.027  -1.388   3.389  0.00  0.00    -0.027 A 
ATOM     15 Cl1  <0> d          -0.145  -2.755   4.283  0.00  0.00    -0.062 Cl
ATOM     16  C5  <0> d           2.661  -0.572   2.467  0.00  0.00     0.007 A 
ATOM     17  H9  <0> d           2.550  -1.746   4.264  0.00  0.00     0.090 H 
ATOM     18  N1  <0> d           1.988  -0.154   1.407  0.00  0.00    -0.245 NA
ATOM     19  H8  <0> d           3.692  -0.282   2.611  0.00  0.00     0.115 H 
ENDBRANCH   1  11
TORSDOF 3
