REMARK  0 active torsions:
REMARK  status: ('A' for Active; 'I' for Inactive)
ROOT
ATOM      1  C1  <0> d           1.201  -0.726  -0.013  0.00  0.00    -0.079 A 
ATOM      2  C2  <0> d           2.415  -0.126  -0.022  0.00  0.00    -0.050 A 
ATOM      3  C3  <0> d           2.505   1.279  -0.015  0.00  0.00     0.119 A 
ATOM      4  C4  <0> d           1.248   2.070   0.001  0.00  0.00     0.139 A 
ATOM      5  C5  <0> d          -0.016   1.355   0.009  0.00  0.00     0.067 A 
ATOM      6  C6  <0> d           0.002  -0.004   0.002  0.00  0.00    -0.059 A 
ATOM      7 Cl1  <0> d          -1.522   2.219   0.021  0.00  0.00    -0.082 Cl
ATOM      8  N1  <0> d           1.681   3.305   0.003  0.00  0.00    -0.101 NA
ATOM      9  O1  <0> d           2.896   3.299  -0.009  0.00  0.00    -0.106 OA
ATOM     10  N2  <0> d           3.429   2.207  -0.020  0.00  0.00    -0.103 NA
ATOM     11  H1  <0> d           1.156  -1.805  -0.018  0.00  0.00     0.083 H 
ATOM     12  H2  <0> d           3.314  -0.725  -0.033  0.00  0.00     0.087 H 
ATOM     13  H3  <0> d          -0.934  -0.542   0.008  0.00  0.00     0.086 H 
ENDROOT
TORSDOF 0
