REMARK  4 active torsions:
REMARK  status: ('A' for Active; 'I' for Inactive)
REMARK    1  A    between atoms: C1_1  and  C2_2 
REMARK    2  A    between atoms: C6_7  and  C7_9 
REMARK    3  A    between atoms: C6_7  and  C8_10 
REMARK    4  A    between atoms: C8_10  and  O2_11 
ROOT
ATOM      1  C2  <0> d           0.650  -0.585   1.135  0.00  0.00     0.036 C 
ATOM      2  H1  <0> d           0.149  -0.260   2.047  0.00  0.00     0.082 H 
ATOM      3  C3  <0> d           2.114  -0.137   1.170  0.00  0.00    -0.041 C 
ATOM      4  C4  <0> d           2.171   1.393   1.211  0.00  0.00    -0.060 C 
ATOM      5  C5  <0> d           1.419   1.953  -0.001  0.00  0.00    -0.034 C 
ATOM      6  C6  <0> d          -0.017   1.425   0.010  0.00  0.00     0.079 C 
ATOM      7  O1  <0> d           0.002  -0.004   0.002  0.00  0.00    -0.373 OA
ATOM      8  H5  <0> d           2.598  -0.544   2.058  0.00  0.00     0.036 H 
ATOM      9  H6  <0> d           2.626  -0.498   0.278  0.00  0.00     0.036 H 
ATOM     10  H7  <0> d           1.702   1.751   2.127  0.00  0.00     0.033 H 
ATOM     11  H8  <0> d           3.210   1.720   1.180  0.00  0.00     0.033 H 
ATOM     12  H9  <0> d           1.917   1.636  -0.917  0.00  0.00     0.037 H 
ATOM     13  H10 <0> d           1.407   3.042   0.050  0.00  0.00     0.037 H 
ENDROOT
BRANCH   6  14
ATOM     14  C7  <0> d          -0.733   1.919   1.269  0.00  0.00    -0.046 C 
ATOM     15  H11 <0> d          -0.206   1.558   2.152  0.00  0.00     0.031 H 
ATOM     16  H12 <0> d          -0.748   3.008   1.275  0.00  0.00     0.031 H 
ATOM     17  H13 <0> d          -1.756   1.541   1.277  0.00  0.00     0.031 H 
ENDBRANCH   6  14
BRANCH   6  18
ATOM     18  C8  <0> d          -0.757   1.932  -1.230  0.00  0.00     0.045 C 
ATOM     19  H14 <0> d          -0.695   3.019  -1.270  0.00  0.00     0.078 H 
ATOM     20  H15 <0> d          -0.300   1.508  -2.124  0.00  0.00     0.078 H 
BRANCH  18  21
ATOM     21  O2  <0> d          -2.128   1.535  -1.162  0.00  0.00    -0.398 OA
ATOM     22  H16 <0> d          -2.659   1.823  -1.917  0.00  0.00     0.209 HD
ENDBRANCH  18  21
ENDBRANCH   6  18
BRANCH   1  23
ATOM     23  C1  <0> d           0.585  -2.110   1.034  0.00  0.00    -0.052 C 
ATOM     24  H2  <0> d           1.087  -2.436   0.123  0.00  0.00     0.030 H 
ATOM     25  H3  <0> d           1.079  -2.553   1.899  0.00  0.00     0.030 H 
ATOM     26  H4  <0> d          -0.457  -2.429   1.009  0.00  0.00     0.030 H 
ENDBRANCH   1  23
TORSDOF 4
