REMARK  3 active torsions:
REMARK  status: ('A' for Active; 'I' for Inactive)
REMARK    1  A    between atoms: C2_2  and  C6_9 
REMARK    2  A    between atoms: C4_5  and  O1_8 
REMARK    3  A    between atoms: C6_9  and  O2_10 
ROOT
ATOM      1  C1  <0> d           1.077   3.768  -1.186  0.00  0.00    -0.048 A 
ATOM      2  C2  <0> d           1.147   3.062   0.008  0.00  0.00    -0.015 A 
ATOM      3  C3  <0> d           1.094   3.750   1.203  0.00  0.00     0.013 A 
ATOM      4  N1  <0> d           0.972   5.064   1.223  0.00  0.00    -0.235 NA
ATOM      5  C4  <0> d           0.897   5.771   0.108  0.00  0.00     0.184 A 
ATOM      6  C5  <0> d           0.945   5.145  -1.132  0.00  0.00     0.087 A 
ATOM      7 Cl1  <0> d           0.845   6.077  -2.593  0.00  0.00    -0.080 Cl
ATOM      8  H1  <0> d           1.120   3.254  -2.135  0.00  0.00     0.087 H 
ATOM      9  H2  <0> d           1.153   3.206   2.134  0.00  0.00     0.115 H 
ENDROOT
BRANCH   2  10
ATOM     10  C6  <0> d           1.286   1.562  -0.002  0.00  0.00     0.042 C 
ATOM     11  H4  <0> d           1.840   1.243   0.881  0.00  0.00     0.081 H 
ATOM     12  H5  <0> d           1.823   1.252  -0.899  0.00  0.00     0.081 H 
BRANCH  10  13
ATOM     13  O2  <0> d          -0.011   0.963   0.007  0.00  0.00    -0.396 OA
ATOM     14  H6  <0> d           0.002  -0.004   0.002  0.00  0.00     0.209 HD
ENDBRANCH  10  13
ENDBRANCH   2  10
BRANCH   5  15
ATOM     15  O1  <0> d           0.772   7.121   0.175  0.00  0.00    -0.344 OA
ATOM     16  H3  <0> d           1.615   7.594   0.187  0.00  0.00     0.219 HD
ENDBRANCH   5  15
TORSDOF 3
