REMARK  7 active torsions:
REMARK  status: ('A' for Active; 'I' for Inactive)
REMARK    1  A    between atoms: C1_1  and  C2_2 
REMARK    2  A    between atoms: C2_2  and  O1_3 
REMARK    3  A    between atoms: O1_3  and  C3_4 
REMARK    4  A    between atoms: C3_4  and  C4_6 
REMARK    5  A    between atoms: C4_6  and  C5_8 
REMARK    6  A    between atoms: C4_6  and  N1_10 
REMARK    7  A    between atoms: C5_8  and  O3_9 
ROOT
ATOM      1  C3  <0> d           2.506   3.717  -0.126  0.00  0.00     0.294 C 
ATOM      2  O2  <0> d           3.076   4.138   0.853  0.00  0.00    -0.263 OA
ENDROOT
BRANCH   1   3
ATOM      3  O1  <0> d           3.087   3.812  -1.332  0.00  0.00    -0.320 OA
BRANCH   3   4
ATOM      4  C2  <0> d           4.399   4.432  -1.386  0.00  0.00     0.025 C 
ATOM      5  H5  <0> d           5.101   3.858  -0.764  0.00  0.00     0.074 H 
ATOM      6  H6  <0> d           4.333   5.463  -1.008  0.00  0.00     0.074 H 
BRANCH   4   7
ATOM      7  C1  <0> d           4.896   4.451  -2.833  0.00  0.00    -0.056 C 
ATOM      8  H2  <0> d           5.889   4.920  -2.873  0.00  0.00     0.030 H 
ATOM      9  H3  <0> d           4.193   5.025  -3.454  0.00  0.00     0.030 H 
ATOM     10  H4  <0> d           4.962   3.420  -3.211  0.00  0.00     0.030 H 
ENDBRANCH   4   7
ENDBRANCH   3   4
ENDBRANCH   1   3
BRANCH   1  11
ATOM     11  C4  <0> d           1.145   3.085   0.008  0.00  0.00     0.232 C 
ATOM     12  H1  <0> d           0.496   3.426  -0.812  0.00  0.00     0.107 H 
BRANCH  11  13
ATOM     13  C5  <0> d           1.286   1.562  -0.002  0.00  0.00     0.054 C 
ATOM     14  H7  <0> d           1.828   1.250  -0.907  0.00  0.00     0.078 H 
ATOM     15  H8  <0> d           1.845   1.240   0.889  0.00  0.00     0.078 H 
BRANCH  13  16
ATOM     16  O3  <0> d          -0.011   0.963   0.007  0.00  0.00    -0.398 OA
ATOM     17  H9  <0> d          -0.111  -0.133   0.002  0.00  0.00     0.209 HD
ENDBRANCH  13  16
ENDBRANCH  11  13
BRANCH  11  18
ATOM     18  N1  <0> d           0.529   3.512   1.271  0.00  0.00     0.094 N 
ATOM     19  H10 <0> d          -0.465   3.051   1.369  0.00  0.00     0.314 HD
ATOM     20  H11 <0> d           1.163   3.197   2.113  0.00  0.00     0.314 HD
ENDBRANCH  11  18
ENDBRANCH   1  11
TORSDOF 7
