REMARK  2 active torsions:
REMARK  status: ('A' for Active; 'I' for Inactive)
REMARK    1  A    between atoms: C2_2  and  C5_10 
REMARK    2  A    between atoms: C3_4  and  N3_9 
ROOT
ATOM      1  C1  <0> d          -3.583   2.938   0.036  0.00  0.00     0.018 A 
ATOM      2  C2  <0> d          -3.520   1.558   0.028  0.00  0.00     0.157 A 
ATOM      3  N1  <0> d          -2.329   0.947   0.018  0.00  0.00    -0.058 NA
ATOM      4  C3  <0> d          -1.206   1.635   0.017  0.00  0.00     0.701 A 
ATOM      5  N2  <0> d          -1.207   2.995   0.030  0.00  0.00    -0.155 N 
ATOM      6  H1  <0> d          -0.341   3.495   0.036  0.00  0.00     0.187 HD
ATOM      7  C4  <0> d          -2.376   3.670   0.034  0.00  0.00     0.262 A 
ATOM      8  O1  <0> d          -2.389   4.890   0.041  0.00  0.00    -0.268 OA
ATOM      9  H2  <0> d          -4.536   3.446   0.044  0.00  0.00     0.096 H 
ENDROOT
BRANCH   2  10
ATOM     10  C5  <0> d          -4.770   0.755   0.030  0.00  0.00     0.229 C 
ATOM     11  O2  <0> d          -5.849   1.311   0.038  0.00  0.00    -0.643 OA
ATOM     12  O3  <0> d          -4.706  -0.590   0.022  0.00  0.00    -0.643 OA
ENDBRANCH   2  10
BRANCH   4  13
ATOM     13  N3  <0> d          -0.011   0.966   0.007  0.00  0.00    -0.233 N 
ATOM     14  H3  <0> d           0.002  -0.004   0.002  0.00  0.00     0.174 HD
ATOM     15  H4  <0> d           0.822   1.462   0.002  0.00  0.00     0.174 HD
ENDBRANCH   4  13
TORSDOF 2
