REMARK  4 active torsions:
REMARK  status: ('A' for Active; 'I' for Inactive)
REMARK    1  A    between atoms: C1_1  and  C2_2 
REMARK    2  A    between atoms: C7_7  and  C8_8 
REMARK    3  A    between atoms: C8_8  and  C9_10 
REMARK    4  A    between atoms: C9_10  and  N1_11 
ROOT
ATOM      1  C2  <0> d          -0.226  -0.027   0.035  0.00  0.00    -0.048 A 
ATOM      2  C3  <0> d          -0.325  -0.712  -1.158  0.00  0.00    -0.076 A 
ATOM      3  C4  <0> d          -0.079  -2.073  -1.200  0.00  0.00    -0.082 A 
ATOM      4  C5  <0> d           0.266  -2.758  -0.048  0.00  0.00    -0.082 A 
ATOM      5  C6  <0> d           0.369  -2.087   1.152  0.00  0.00    -0.069 A 
ATOM      6  C7  <0> d           0.129  -0.710   1.202  0.00  0.00     0.017 A 
ATOM      7  H4  <0> d          -0.594  -0.185  -2.061  0.00  0.00     0.084 H 
ATOM      8  H5  <0> d          -0.158  -2.604  -2.137  0.00  0.00     0.083 H 
ATOM      9  H6  <0> d           0.456  -3.820  -0.089  0.00  0.00     0.083 H 
ATOM     10  H7  <0> d           0.638  -2.623   2.050  0.00  0.00     0.085 H 
ENDROOT
BRANCH   6  11
ATOM     11  C8  <0> d           0.242   0.015   2.478  0.00  0.00     0.187 C 
ATOM     12  O1  <0> d           0.140   1.223   2.501  0.00  0.00    -0.290 OA
BRANCH  11  13
ATOM     13  C9  <0> d           0.485  -0.745   3.757  0.00  0.00     0.168 C 
ATOM     14  H8  <0> d          -0.332  -1.446   3.924  0.00  0.00     0.091 H 
ATOM     15  H9  <0> d           1.425  -1.293   3.681  0.00  0.00     0.091 H 
BRANCH  13  16
ATOM     16  N1  <0> d           0.559   0.199   4.880  0.00  0.00     0.085 N 
ATOM     17  H10 <0> d          -0.275   0.765   4.933  0.00  0.00     0.313 HD
ATOM     18  H11 <0> d           0.722  -0.286   5.750  0.00  0.00     0.313 HD
ENDBRANCH  13  16
ENDBRANCH  11  13
ENDBRANCH   6  11
BRANCH   1  19
ATOM     19  C1  <0> d          -0.493   1.456   0.079  0.00  0.00    -0.050 C 
ATOM     20  H1  <0> d           0.452   1.997   0.018  0.00  0.00     0.033 H 
ATOM     21  H2  <0> d          -1.127   1.736  -0.762  0.00  0.00     0.033 H 
ATOM     22  H3  <0> d          -0.995   1.707   1.013  0.00  0.00     0.033 H 
ENDBRANCH   1  19
TORSDOF 4
