REMARK  2 active torsions:
REMARK  status: ('A' for Active; 'I' for Inactive)
REMARK    1  A    between atoms: C4_4  and  C7_7 
REMARK    2  A    between atoms: C7_7  and  O1_8 
ROOT
ATOM      1  C1  <0> d           1.272  -0.800  -0.014  0.00  0.00    -0.035 C 
ATOM      2  C2  <0> d           0.002  -0.004   0.002  0.00  0.00    -0.103 C 
ATOM      3  C3  <0> d          -0.015   1.294   0.009  0.00  0.00    -0.097 C 
ATOM      4  C4  <0> d           1.233   2.124   0.002  0.00  0.00    -0.002 C 
ATOM      5  C5  <0> d           2.418   1.325   0.454  0.00  0.00    -0.097 C 
ATOM      6  C6  <0> d           2.435   0.026   0.447  0.00  0.00    -0.103 C 
ATOM      7  H1  <0> d           1.163  -1.661   0.644  0.00  0.00     0.044 H 
ATOM      8  H2  <0> d           1.462  -1.149  -1.029  0.00  0.00     0.044 H 
ATOM      9  H3  <0> d          -0.939  -0.534   0.009  0.00  0.00     0.076 H 
ATOM     10  H4  <0> d          -0.971   1.798   0.016  0.00  0.00     0.077 H 
ATOM     11  H5  <0> d           1.100   2.975   0.670  0.00  0.00     0.055 H 
ATOM     12  H6  <0> d           3.294   1.851   0.801  0.00  0.00     0.077 H 
ATOM     13  H7  <0> d           3.326  -0.480   0.787  0.00  0.00     0.076 H 
ENDROOT
BRANCH   4  14
ATOM     14  C7  <0> d           1.486   2.637  -1.417  0.00  0.00     0.026 C 
ATOM     15  H8  <0> d           1.692   1.794  -2.077  0.00  0.00     0.075 H 
ATOM     16  H9  <0> d           0.604   3.169  -1.774  0.00  0.00     0.075 H 
BRANCH  14  17
ATOM     17  O1  <0> d           2.607   3.523  -1.411  0.00  0.00    -0.400 OA
ATOM     18  H10 <0> d           2.825   3.887  -2.280  0.00  0.00     0.209 HD
ENDBRANCH  14  17
ENDBRANCH   4  14
TORSDOF 2
