REMARK  0 active torsions:
REMARK  status: ('A' for Active; 'I' for Inactive)
ROOT
ATOM      1  C1  <0> d          -0.017   1.399   0.010  0.00  0.00    -0.071 A 
ATOM      2  C2  <0> d           1.152   2.092   0.002  0.00  0.00    -0.062 A 
ATOM      3  C3  <0> d           2.388   1.421  -0.014  0.00  0.00     0.045 A 
ATOM      4  C4  <0> d           2.439   0.035  -0.021  0.00  0.00    -0.051 A 
ATOM      5  C5  <0> d           1.243  -0.695  -0.013  0.00  0.00    -0.007 A 
ATOM      6  C6  <0> d           0.002  -0.004   0.002  0.00  0.00    -0.023 A 
ATOM      7  C7  <0> d          -1.181  -0.765   0.009  0.00  0.00    -0.055 A 
ATOM      8  C8  <0> d          -1.085  -2.124   0.000  0.00  0.00     0.003 A 
ATOM      9  N1  <0> d           0.087  -2.744  -0.014  0.00  0.00    -0.272 NA
ATOM     10  C9  <0> d           1.230  -2.100  -0.021  0.00  0.00     0.013 A 
ATOM     11  C10 <0> d           3.605   2.175  -0.022  0.00  0.00     0.099 C 
ATOM     12  N2  <0> d           4.571   2.774  -0.029  0.00  0.00    -0.191 NA
ATOM     13  H1  <0> d          -0.959   1.928   0.026  0.00  0.00     0.084 H 
ATOM     14  H2  <0> d           1.132   3.171   0.008  0.00  0.00     0.085 H 
ATOM     15  H3  <0> d           3.390  -0.476  -0.034  0.00  0.00     0.087 H 
ATOM     16  H4  <0> d          -2.146  -0.281   0.021  0.00  0.00     0.087 H 
ATOM     17  H5  <0> d          -1.990  -2.713   0.006  0.00  0.00     0.114 H 
ATOM     18  H6  <0> d           2.160  -2.650  -0.034  0.00  0.00     0.116 H 
ENDROOT
TORSDOF 0
