REMARK  4 active torsions:
REMARK  status: ('A' for Active; 'I' for Inactive)
REMARK    1  A    between atoms: C1_1  and  C2_2 
REMARK    2  A    between atoms: C2_2  and  C3_3 
REMARK    3  A    between atoms: C2_2  and  C4_4 
REMARK    4  A    between atoms: C7_8  and  N3_10 
ROOT
ATOM      1  C4  <0> d           0.707  -0.490  -1.238  0.00  0.00     0.058 A 
ATOM      2  C5  <0> d           0.016  -0.623  -2.432  0.00  0.00    -0.041 A 
ATOM      3  C6  <0> d           0.702  -1.073  -3.549  0.00  0.00     0.023 A 
ATOM      4  N1  <0> d           1.989  -1.360  -3.443  0.00  0.00    -0.075 NA
ATOM      5  C7  <0> d           2.621  -1.222  -2.286  0.00  0.00     0.720 A 
ATOM      6  N2  <0> d           1.995  -0.790  -1.201  0.00  0.00    -0.068 NA
ATOM      7  H8  <0> d          -1.035  -0.382  -2.490  0.00  0.00     0.088 H 
ATOM      8  H9  <0> d           0.193  -1.188  -4.494  0.00  0.00     0.115 H 
ENDROOT
BRANCH   1   9
ATOM      9  C2  <0> d           0.002  -0.004   0.002  0.00  0.00    -0.018 C 
ATOM     10  H4  <0> d           0.529  -0.365   0.885  0.00  0.00     0.048 H 
BRANCH   9  11
ATOM     11  C1  <0> d          -0.019   1.526   0.010  0.00  0.00    -0.068 C 
ATOM     12  H1  <0> d           1.004   1.903   0.003  0.00  0.00     0.028 H 
ATOM     13  H2  <0> d          -0.546   1.887  -0.873  0.00  0.00     0.028 H 
ATOM     14  H3  <0> d          -0.529   1.877   0.907  0.00  0.00     0.028 H 
ENDBRANCH   9  11
BRANCH   9  15
ATOM     15  C3  <0> d          -1.433  -0.534   0.013  0.00  0.00    -0.068 C 
ATOM     16  H5  <0> d          -1.960  -0.173  -0.870  0.00  0.00     0.028 H 
ATOM     17  H6  <0> d          -1.419  -1.623   0.007  0.00  0.00     0.028 H 
ATOM     18  H7  <0> d          -1.944  -0.182   0.910  0.00  0.00     0.028 H 
ENDBRANCH   9  15
ENDBRANCH   1   9
BRANCH   5  19
ATOM     19  N3  <0> d           3.968  -1.532  -2.211  0.00  0.00    -0.231 N 
ATOM     20  H10 <0> d           4.438  -1.846  -2.999  0.00  0.00     0.174 HD
ATOM     21  H11 <0> d           4.441  -1.435  -1.370  0.00  0.00     0.174 HD
ENDBRANCH   5  19
TORSDOF 4
