REMARK  4 active torsions:
REMARK  status: ('A' for Active; 'I' for Inactive)
REMARK    1  A    between atoms: C1_1  and  C2_2 
REMARK    2  A    between atoms: C2_2  and  C3_3 
REMARK    3  A    between atoms: C2_2  and  C4_4 
REMARK    4  A    between atoms: C2_2  and  C5_5 
ROOT
ATOM      1  C5  <0> d           1.170   2.086   0.002  0.00  0.00    -0.051 A 
ATOM      2  C6  <0> d          -0.017   1.375   0.010  0.00  0.00    -0.075 A 
ATOM      3  C7  <0> d           0.002  -0.004   0.002  0.00  0.00    -0.062 A 
ATOM      4  C8  <0> d           1.222  -0.682  -0.013  0.00  0.00     0.044 A 
ATOM      5  C9  <0> d           2.416   0.042  -0.021  0.00  0.00    -0.062 A 
ATOM      6  C10 <0> d           2.383   1.421  -0.013  0.00  0.00    -0.075 A 
ATOM      7  C11 <0> d           1.250  -2.114  -0.021  0.00  0.00     0.099 C 
ATOM      8  N1  <0> d           1.271  -3.250  -0.027  0.00  0.00    -0.191 NA
ATOM      9  H10 <0> d          -0.960   1.901   0.017  0.00  0.00     0.084 H 
ATOM     10  H11 <0> d          -0.925  -0.558   0.007  0.00  0.00     0.085 H 
ATOM     11  H12 <0> d           3.364  -0.477  -0.032  0.00  0.00     0.085 H 
ATOM     12  H13 <0> d           3.306   1.982  -0.019  0.00  0.00     0.084 H 
ENDROOT
BRANCH   1  13
ATOM     13  C2  <0> d           1.142   3.593   0.010  0.00  0.00    -0.024 C 
BRANCH  13  14
ATOM     14  C1  <0> d           0.423   4.083   1.269  0.00  0.00    -0.066 C 
ATOM     15  H1  <0> d           0.952   3.724   2.152  0.00  0.00     0.028 H 
ATOM     16  H2  <0> d           0.402   5.173   1.275  0.00  0.00     0.028 H 
ATOM     17  H3  <0> d          -0.598   3.700   1.277  0.00  0.00     0.028 H 
ENDBRANCH  13  14
BRANCH  13  18
ATOM     18  C3  <0> d           2.574   4.130  -0.000  0.00  0.00    -0.066 C 
ATOM     19  H4  <0> d           3.086   3.782  -0.897  0.00  0.00     0.028 H 
ATOM     20  H5  <0> d           2.554   5.220   0.006  0.00  0.00     0.028 H 
ATOM     21  H6  <0> d           3.103   3.772   0.883  0.00  0.00     0.028 H 
ENDBRANCH  13  18
BRANCH  13  22
ATOM     22  C4  <0> d           0.399   4.096  -1.229  0.00  0.00    -0.066 C 
ATOM     23  H7  <0> d          -0.621   3.713  -1.221  0.00  0.00     0.028 H 
ATOM     24  H8  <0> d           0.379   5.186  -1.223  0.00  0.00     0.028 H 
ATOM     25  H9  <0> d           0.911   3.747  -2.126  0.00  0.00     0.028 H 
ENDBRANCH  13  22
ENDBRANCH   1  13
TORSDOF 4
