REMARK  5 active torsions:
REMARK  status: ('A' for Active; 'I' for Inactive)
REMARK    1  A    between atoms: C1_1  and  O1_2 
REMARK    2  A    between atoms: O1_2  and  C2_3 
REMARK    3  A    between atoms: C2_3  and  C3_4 
REMARK    4  A    between atoms: C2_3  and  O2_8 
REMARK    5  A    between atoms: O2_8  and  C4_9 
ROOT
ATOM      1  C2  <0> d           0.325   0.863   0.042  0.00  0.00     0.225 C 
ATOM      2  H4  <0> d           0.651  -0.164  -0.123  0.00  0.00     0.143 H 
ENDROOT
BRANCH   1   3
ATOM      3  O1  <0> d          -0.361   1.337  -1.118  0.00  0.00    -0.358 OA
BRANCH   3   4
ATOM      4  C1  <0> d          -1.258   0.384  -1.693  0.00  0.00     0.007 C 
ATOM      5  H1  <0> d          -1.577   0.733  -2.675  0.00  0.00     0.066 H 
ATOM      6  H2  <0> d          -0.751  -0.576  -1.795  0.00  0.00     0.066 H 
ATOM      7  H3  <0> d          -2.128   0.269  -1.048  0.00  0.00     0.066 H 
ENDBRANCH   3   4
ENDBRANCH   1   3
BRANCH   1   8
ATOM      8  C3  <0> d           1.544   1.748   0.311  0.00  0.00     0.437 C 
ATOM      9  F1  <0> d           1.126   3.066   0.523  0.00  0.00    -0.166 F 
ATOM     10  F2  <0> d           2.216   1.283   1.447  0.00  0.00    -0.166 F 
ATOM     11  F3  <0> d           2.405   1.703  -0.791  0.00  0.00    -0.166 F 
ENDBRANCH   1   8
BRANCH   1  12
ATOM     12  O2  <0> d          -0.554   0.908   1.168  0.00  0.00    -0.358 OA
BRANCH  12  13
ATOM     13  C4  <0> d          -1.515  -0.149   1.198  0.00  0.00     0.007 C 
ATOM     14  H5  <0> d          -2.329   0.080   0.510  0.00  0.00     0.066 H 
ATOM     15  H6  <0> d          -1.038  -1.082   0.898  0.00  0.00     0.066 H 
ATOM     16  H7  <0> d          -1.911  -0.251   2.208  0.00  0.00     0.066 H 
ENDBRANCH  12  13
ENDBRANCH   1  12
TORSDOF 5
