REMARK  4 active torsions:
REMARK  status: ('A' for Active; 'I' for Inactive)
REMARK    1  A    between atoms: C1_1  and  C2_2 
REMARK    2  A    between atoms: C3_3  and  C4_4 
REMARK    3  A    between atoms: C4_4  and  O1_10 
REMARK    4  A    between atoms: O1_10  and  C10_11 
ROOT
ATOM      1  C4  <0> d           0.038  -2.650  -0.013  0.00  0.00     0.123 C 
ATOM      2  C5  <0> d           0.754  -3.143  -1.271  0.00  0.00    -0.025 C 
ATOM      3  C6  <0> d           0.014  -2.636  -2.511  0.00  0.00    -0.061 C 
ATOM      4  C7  <0> d          -1.421  -3.166  -2.500  0.00  0.00    -0.065 C 
ATOM      5  C8  <0> d          -2.137  -2.672  -1.241  0.00  0.00    -0.061 C 
ATOM      6  C9  <0> d          -1.397  -3.179  -0.002  0.00  0.00    -0.025 C 
ATOM      7  H4  <0> d           1.777  -2.766  -1.279  0.00  0.00     0.038 H 
ATOM      8  H5  <0> d           0.769  -4.233  -1.277  0.00  0.00     0.038 H 
ATOM      9  H6  <0> d          -0.001  -1.546  -2.505  0.00  0.00     0.033 H 
ATOM     10  H7  <0> d           0.524  -2.988  -3.408  0.00  0.00     0.033 H 
ATOM     11  H8  <0> d          -1.948  -2.805  -3.383  0.00  0.00     0.033 H 
ATOM     12  H9  <0> d          -1.407  -4.256  -2.506  0.00  0.00     0.033 H 
ATOM     13  H10 <0> d          -2.152  -1.583  -1.235  0.00  0.00     0.033 H 
ATOM     14  H11 <0> d          -3.160  -3.050  -1.234  0.00  0.00     0.033 H 
ATOM     15  H12 <0> d          -1.383  -4.269  -0.008  0.00  0.00     0.038 H 
ATOM     16  H13 <0> d          -1.908  -2.828   0.895  0.00  0.00     0.038 H 
ENDROOT
BRANCH   1  17
ATOM     17  C3  <0> d           0.018  -1.178  -0.004  0.00  0.00    -0.069 C 
ATOM     18  C2  <0> d           0.002  -0.004   0.002  0.00  0.00    -0.108 C 
BRANCH  18  19
ATOM     19  C1  <0> d          -0.018   1.468   0.010  0.00  0.00    -0.021 C 
ATOM     20  H1  <0> d           1.005   1.845   0.002  0.00  0.00     0.044 H 
ATOM     21  H2  <0> d          -0.545   1.829  -0.873  0.00  0.00     0.044 H 
ATOM     22  H3  <0> d          -0.528   1.819   0.907  0.00  0.00     0.044 H 
ENDBRANCH  18  19
ENDBRANCH   1  17
BRANCH   1  23
ATOM     23  O1  <0> d           0.729  -3.123   1.145  0.00  0.00    -0.372 OA
BRANCH  23  24
ATOM     24  C10 <0> d           2.086  -2.683   1.232  0.00  0.00     0.006 C 
ATOM     25  H14 <0> d           2.639  -3.036   0.361  0.00  0.00     0.066 H 
ATOM     26  H15 <0> d           2.114  -1.594   1.264  0.00  0.00     0.066 H 
ATOM     27  H16 <0> d           2.541  -3.085   2.138  0.00  0.00     0.066 H 
ENDBRANCH  23  24
ENDBRANCH   1  23
TORSDOF 4
