REMARK  5 active torsions:
REMARK  status: ('A' for Active; 'I' for Inactive)
REMARK    1  A    between atoms: C1_1  and  O1_2 
REMARK    2  A    between atoms: O1_2  and  C2_3 
REMARK    3  A    between atoms: C2_3  and  N1_4 
REMARK    4  A    between atoms: C2_3  and  O2_10 
REMARK    5  A    between atoms: O2_10  and  C8_11 
ROOT
ATOM      1  N1  <0> d           0.033   1.460  -0.067  0.00  0.00     0.143 N 
ATOM      2  C3  <0> d          -0.522   1.940  -1.339  0.00  0.00     0.119 C 
ATOM      3  C4  <0> d          -0.607   3.468  -1.315  0.00  0.00    -0.040 C 
ATOM      4  C5  <0> d           0.793   4.049  -1.095  0.00  0.00    -0.062 C 
ATOM      5  C6  <0> d           1.367   3.495   0.212  0.00  0.00    -0.040 C 
ATOM      6  C7  <0> d           1.395   1.966   0.144  0.00  0.00     0.119 C 
ATOM      7  H5  <0> d           0.130   1.622  -2.166  0.00  0.00     0.080 H 
ATOM      8  H6  <0> d          -1.528   1.520  -1.482  0.00  0.00     0.080 H 
ATOM      9  H7  <0> d          -1.008   3.828  -2.274  0.00  0.00     0.035 H 
ATOM     10  H8  <0> d          -1.270   3.786  -0.497  0.00  0.00     0.035 H 
ATOM     11  H9  <0> d           1.444   3.764  -1.934  0.00  0.00     0.033 H 
ATOM     12  H10 <0> d           0.730   5.145  -1.035  0.00  0.00     0.033 H 
ATOM     13  H11 <0> d           2.389   3.876   0.354  0.00  0.00     0.035 H 
ATOM     14  H12 <0> d           0.736   3.815   1.055  0.00  0.00     0.035 H 
ATOM     15  H13 <0> d           1.793   1.565   1.088  0.00  0.00     0.080 H 
ATOM     16  H14 <0> d           2.037   1.649  -0.690  0.00  0.00     0.080 H 
ENDROOT
BRANCH   1  17
ATOM     17  C2  <0> d           0.000  -0.007   0.001  0.00  0.00     0.324 C 
ATOM     18  H4  <0> d           0.438  -0.368   0.944  0.00  0.00     0.182 H 
BRANCH  17  19
ATOM     19  O1  <0> d          -1.353  -0.458  -0.078  0.00  0.00    -0.342 OA
BRANCH  19  20
ATOM     20  C1  <0> d          -2.087  -0.310   1.139  0.00  0.00     0.009 C 
ATOM     21  H1  <0> d          -3.114  -0.678   0.996  0.00  0.00     0.066 H 
ATOM     22  H2  <0> d          -2.115   0.752   1.424  0.00  0.00     0.066 H 
ATOM     23  H3  <0> d          -1.598  -0.890   1.935  0.00  0.00     0.066 H 
ENDBRANCH  19  20
ENDBRANCH  17  19
BRANCH  17  24
ATOM     24  O2  <0> d           0.748  -0.551  -1.089  0.00  0.00    -0.342 OA
BRANCH  24  25
ATOM     25  C8  <0> d           1.110  -1.923  -0.918  0.00  0.00     0.009 C 
ATOM     26  H15 <0> d           1.679  -2.263  -1.795  0.00  0.00     0.066 H 
ATOM     27  H16 <0> d           0.200  -2.532  -0.813  0.00  0.00     0.066 H 
ATOM     28  H17 <0> d           1.729  -2.029  -0.015  0.00  0.00     0.066 H 
ENDBRANCH  24  25
ENDBRANCH  17  24
ENDBRANCH   1  17
TORSDOF 5
