REMARK  0 active torsions:
REMARK  status: ('A' for Active; 'I' for Inactive)
ROOT
ATOM      1  C1  <0> d          -2.208   4.565   0.048  0.00  0.00    -0.054 A 
ATOM      2  C2  <0> d          -1.555   5.737   0.047  0.00  0.00    -0.020 A 
ATOM      3  N1  <0> d          -0.203   5.519   0.033  0.00  0.00    -0.350 N 
ATOM      4  H1  <0> d           0.472   6.215   0.030  0.00  0.00     0.166 HD
ATOM      5  C3  <0> d           0.057   4.172   0.024  0.00  0.00     0.137 A 
ATOM      6  C4  <0> d          -1.189   3.512   0.032  0.00  0.00     0.013 A 
ATOM      7  C5  <0> d          -1.232   2.120   0.019  0.00  0.00    -0.048 A 
ATOM      8  C6  <0> d          -0.017   1.428   0.010  0.00  0.00     0.063 A 
ATOM      9  C7  <0> d           1.180   2.154   0.002  0.00  0.00     0.025 A 
ATOM     10  N2  <0> d           1.183   3.467   0.009  0.00  0.00    -0.241 NA
ATOM     11  C8  <0> d           0.002  -0.004   0.002  0.00  0.00     0.101 C 
ATOM     12  N3  <0> d           0.018  -1.140  -0.004  0.00  0.00    -0.191 NA
ATOM     13  H2  <0> d          -3.279   4.425   0.058  0.00  0.00     0.087 H 
ATOM     14  H3  <0> d          -2.026   6.709   0.057  0.00  0.00     0.111 H 
ATOM     15  H4  <0> d          -2.174   1.591   0.021  0.00  0.00     0.087 H 
ATOM     16  H5  <0> d           2.120   1.623  -0.009  0.00  0.00     0.117 H 
ENDROOT
TORSDOF 0
