REMARK  1 active torsions:
REMARK  status: ('A' for Active; 'I' for Inactive)
REMARK    1  A    between atoms: C1_1  and  C2_2 
ROOT
ATOM      1  C2  <0> d          -2.146   2.060   0.620  0.00  0.00     0.173 C 
ATOM      2  C3  <0> d          -0.790   1.611   1.234  0.00  0.00     0.011 C 
ATOM      3  H1  <0> d          -0.899   0.865   2.021  0.00  0.00     0.049 H 
ATOM      4  C4  <0> d          -0.138   2.927   1.715  0.00  0.00    -0.036 C 
ATOM      5  C5  <0> d          -1.363   3.866   1.853  0.00  0.00     0.024 C 
ATOM      6  O1  <0> d          -2.218   3.492   0.733  0.00  0.00    -0.354 OA
ATOM      7  C6  <0> d          -0.013   1.086   0.008  0.00  0.00     0.024 C 
ATOM      8  C7  <0> d          -0.800   1.615  -1.177  0.00  0.00     0.262 C 
ATOM      9  O2  <0> d          -0.355   1.905  -2.262  0.00  0.00    -0.265 OA
ATOM     10  O3  <0> d          -2.086   1.698  -0.791  0.00  0.00    -0.283 OA
ATOM     11  H5  <0> d           0.355   2.787   2.677  0.00  0.00     0.036 H 
ATOM     12  H6  <0> d           0.562   3.309   0.971  0.00  0.00     0.036 H 
ATOM     13  H7  <0> d          -1.878   3.689   2.797  0.00  0.00     0.074 H 
ATOM     14  H8  <0> d          -1.058   4.909   1.771  0.00  0.00     0.074 H 
ATOM     15  H9  <0> d           0.002  -0.004   0.002  0.00  0.00     0.048 H 
ATOM     16  H10 <0> d           1.003   1.482   0.000  0.00  0.00     0.048 H 
ENDROOT
BRANCH   1  17
ATOM     17  C1  <0> d          -3.328   1.385   1.319  0.00  0.00    -0.024 C 
ATOM     18  H2  <0> d          -3.234   0.303   1.228  0.00  0.00     0.035 H 
ATOM     19  H3  <0> d          -3.333   1.663   2.373  0.00  0.00     0.035 H 
ATOM     20  H4  <0> d          -4.259   1.710   0.854  0.00  0.00     0.035 H 
ENDBRANCH   1  17
TORSDOF 1
