REMARK  2 active torsions:
REMARK  status: ('A' for Active; 'I' for Inactive)
REMARK    1  A    between atoms: C3_3  and  O2_9 
REMARK    2  A    between atoms: C5_6  and  O1_8 
ROOT
ATOM      1  C1  <0> d           2.061   1.161   1.266  0.00  0.00    -0.039 C 
ATOM      2  C2  <0> d           2.376   2.471   2.020  0.00  0.00    -0.039 C 
ATOM      3  C3  <0> d           1.297   3.465   1.524  0.00  0.00     0.038 C 
ATOM      4  H1  <0> d           0.355   3.307   2.049  0.00  0.00     0.083 H 
ATOM      5  C4  <0> d           1.159   3.099   0.025  0.00  0.00    -0.017 C 
ATOM      6  C5  <0> d           1.286   1.562  -0.002  0.00  0.00     0.038 C 
ATOM      7  H2  <0> d           1.836   1.248  -0.889  0.00  0.00     0.083 H 
ATOM      8  H3  <0> d           1.447   0.510   1.889  0.00  0.00     0.036 H 
ATOM      9  H4  <0> d           2.986   0.654   0.994  0.00  0.00     0.036 H 
ATOM     10  H5  <0> d           3.373   2.829   1.762  0.00  0.00     0.036 H 
ATOM     11  H6  <0> d           2.292   2.323   3.097  0.00  0.00     0.036 H 
ATOM     12  H7  <0> d           1.959   3.558  -0.555  0.00  0.00     0.040 H 
ATOM     13  H8  <0> d           0.185   3.408  -0.355  0.00  0.00     0.040 H 
ENDROOT
BRANCH   3  14
ATOM     14  O2  <0> d           1.739   4.816   1.676  0.00  0.00    -0.395 OA
ATOM     15  H10 <0> d           1.842   5.094   2.596  0.00  0.00     0.210 HD
ENDBRANCH   3  14
BRANCH   6  16
ATOM     16  O1  <0> d          -0.011   0.963   0.007  0.00  0.00    -0.395 OA
ATOM     17  H9  <0> d           0.002  -0.004   0.002  0.00  0.00     0.210 HD
ENDBRANCH   6  16
TORSDOF 2
