REMARK  7 active torsions:
REMARK  status: ('A' for Active; 'I' for Inactive)
REMARK    1  A    between atoms: C1_1  and  C2_2 
REMARK    2  A    between atoms: C2_2  and  C3_3 
REMARK       I    between atoms: C3_3  and  N1_5 
REMARK    3  A    between atoms: N1_5  and  C4_6 
REMARK    4  A    between atoms: C4_6  and  O2_7 
REMARK    5  A    between atoms: O2_7  and  C5_8 
REMARK    6  A    between atoms: C5_8  and  C6_9 
REMARK    7  A    between atoms: C5_8  and  C7_10 
ROOT
ATOM      1  C4  <0> d           2.258   0.725  -0.668  0.00  0.00     0.080 C 
ATOM      2  H7  <0> d           3.270   0.964  -0.342  0.00  0.00     0.107 H 
ATOM      3  H8  <0> d           2.034  -0.314  -0.426  0.00  0.00     0.107 H 
ENDROOT
BRANCH   1   4
ATOM      4  N1  <0> d           2.153   0.921  -2.116  0.00  0.00    -0.340 N 
ATOM      5  C3  <0> d           2.985   1.778  -2.742  0.00  0.00     0.218 C 
ATOM      6  O1  <0> d           3.820   2.385  -2.107  0.00  0.00    -0.274 OA
ATOM      7  H6  <0> d           1.484   0.436  -2.624  0.00  0.00     0.164 HD
BRANCH   5   8
ATOM      8  C2  <0> d           2.876   1.980  -4.232  0.00  0.00     0.006 C 
ATOM      9  H4  <0> d           3.043   1.031  -4.741  0.00  0.00     0.046 H 
ATOM     10  H5  <0> d           1.881   2.353  -4.476  0.00  0.00     0.046 H 
BRANCH   8  11
ATOM     11  C1  <0> d           3.927   2.995  -4.686  0.00  0.00    -0.068 C 
ATOM     12  H1  <0> d           3.760   3.944  -4.177  0.00  0.00     0.028 H 
ATOM     13  H2  <0> d           4.922   2.622  -4.442  0.00  0.00     0.028 H 
ATOM     14  H3  <0> d           3.849   3.141  -5.763  0.00  0.00     0.028 H 
ENDBRANCH   8  11
ENDBRANCH   5   8
ENDBRANCH   1   4
BRANCH   1  15
ATOM     15  O2  <0> d           1.328   1.580  -0.002  0.00  0.00    -0.368 OA
BRANCH  15  16
ATOM     16  C5  <0> d          -0.013   1.086   0.008  0.00  0.00     0.033 C 
ATOM     17  H9  <0> d           0.002  -0.004   0.002  0.00  0.00     0.082 H 
BRANCH  16  18
ATOM     18  C6  <0> d          -0.753   1.593  -1.232  0.00  0.00    -0.052 C 
ATOM     19  H10 <0> d          -0.242   1.241  -2.128  0.00  0.00     0.030 H 
ATOM     20  H11 <0> d          -1.775   1.215  -1.224  0.00  0.00     0.030 H 
ATOM     21  H12 <0> d          -0.767   2.683  -1.226  0.00  0.00     0.030 H 
ENDBRANCH  16  18
BRANCH  16  22
ATOM     22  C7  <0> d          -0.729   1.579   1.267  0.00  0.00    -0.052 C 
ATOM     23  H13 <0> d          -0.744   2.669   1.273  0.00  0.00     0.030 H 
ATOM     24  H14 <0> d          -1.751   1.202   1.275  0.00  0.00     0.030 H 
ATOM     25  H15 <0> d          -0.202   1.218   2.150  0.00  0.00     0.030 H 
ENDBRANCH  16  22
ENDBRANCH  15  16
ENDBRANCH   1  15
TORSDOF 7
