REMARK  1 active torsions:
REMARK  status: ('A' for Active; 'I' for Inactive)
REMARK    1  A    between atoms: C1_1  and  C2_2 
ROOT
ATOM      1  C2  <0> d           1.296   2.058   0.001  0.00  0.00    -0.053 A 
ATOM      2  C3  <0> d           2.237   1.056  -0.014  0.00  0.00    -0.050 A 
ATOM      3  C4  <0> d           1.769  -0.248  -0.016  0.00  0.00     0.085 A 
ATOM      4  S1  <0> d           0.002  -0.004   0.002  0.00  0.00    -0.090 SA
ATOM      5  C5  <0> d          -0.021   1.729   0.012  0.00  0.00    -0.038 A 
ATOM      6  C6  <0> d           2.511  -1.473  -0.029  0.00  0.00     0.107 C 
ATOM      7  N1  <0> d           3.100  -2.445  -0.040  0.00  0.00    -0.191 NA
ATOM      8  H4  <0> d           3.294   1.276  -0.022  0.00  0.00     0.087 H 
ATOM      9  H5  <0> d          -0.877   2.389   0.019  0.00  0.00     0.095 H 
ENDROOT
BRANCH   1  10
ATOM     10  C1  <0> d           1.721   3.503   0.004  0.00  0.00    -0.051 C 
ATOM     11  H1  <0> d           1.834   3.847   1.032  0.00  0.00     0.033 H 
ATOM     12  H2  <0> d           2.673   3.603  -0.519  0.00  0.00     0.033 H 
ATOM     13  H3  <0> d           0.965   4.106  -0.499  0.00  0.00     0.033 H 
ENDBRANCH   1  10
TORSDOF 1
