REMARK  3 active torsions:
REMARK  status: ('A' for Active; 'I' for Inactive)
REMARK    1  A    between atoms: C1_1  and  N1_2 
REMARK       I    between atoms: N1_2  and  C2_3 
REMARK    2  A    between atoms: C2_3  and  C3_5 
REMARK    3  A    between atoms: C7_9  and  O2_11 
ROOT
ATOM      1  C3  <0> d           3.106   2.414  -1.210  0.00  0.00     0.034 A 
ATOM      2  C4  <0> d           3.743   2.697   0.000  0.00  0.00    -0.068 A 
ATOM      3  C5  <0> d           3.119   2.397   1.194  0.00  0.00    -0.079 A 
ATOM      4  C6  <0> d           1.862   1.822   1.196  0.00  0.00    -0.051 A 
ATOM      5  C7  <0> d           1.223   1.532  -0.001  0.00  0.00     0.066 A 
ATOM      6  C8  <0> d           1.840   1.829  -1.205  0.00  0.00    -0.036 A 
ATOM      7  H5  <0> d           4.723   3.150   0.002  0.00  0.00     0.085 H 
ATOM      8  H6  <0> d           3.613   2.616   2.129  0.00  0.00     0.083 H 
ATOM      9  H7  <0> d           1.377   1.593   2.134  0.00  0.00     0.087 H 
ATOM     10  H8  <0> d           1.342   1.608  -2.138  0.00  0.00     0.089 H 
ENDROOT
BRANCH   1  11
ATOM     11  C2  <0> d           3.771   2.734  -2.491  0.00  0.00     0.251 C 
ATOM     12  N1  <0> d           4.995   3.299  -2.492  0.00  0.00    -0.361 N 
ATOM     13  H4  <0> d           5.439   3.496  -1.653  0.00  0.00     0.162 HD
ATOM     14  O1  <0> d           3.214   2.487  -3.543  0.00  0.00    -0.268 OA
BRANCH  12  15
ATOM     15  C1  <0> d           5.654   3.616  -3.762  0.00  0.00    -0.018 C 
ATOM     16  H1  <0> d           6.627   4.064  -3.564  0.00  0.00     0.056 H 
ATOM     17  H2  <0> d           5.785   2.703  -4.341  0.00  0.00     0.056 H 
ATOM     18  H3  <0> d           5.039   4.318  -4.325  0.00  0.00     0.056 H 
ENDBRANCH  12  15
ENDBRANCH   1  11
BRANCH   5  19
ATOM     19  O2  <0> d          -0.011   0.963   0.007  0.00  0.00    -0.361 OA
ATOM     20  H9  <0> d           0.002  -0.004   0.002  0.00  0.00     0.217 HD
ENDBRANCH   5  19
TORSDOF 3
