REMARK  4 active torsions:
REMARK  status: ('A' for Active; 'I' for Inactive)
REMARK    1  A    between atoms: C1_1  and  C2_2 
REMARK    2  A    between atoms: C2_2  and  N1_3 
REMARK    3  A    between atoms: N2_7  and  C7_10 
REMARK    4  A    between atoms: C7_10  and  C8_11 
ROOT
ATOM      1  N1  <0> d           0.688  -0.476  -1.203  0.00  0.00    -0.334 N 
ATOM      2  C3  <0> d           2.135  -0.696  -1.166  0.00  0.00     0.001 C 
ATOM      3  C4  <0> d           2.502  -1.799  -2.164  0.00  0.00    -0.035 C 
ATOM      4  C5  <0> d           1.973  -1.401  -3.547  0.00  0.00     0.001 C 
ATOM      5  N2  <0> d           0.535  -1.143  -3.455  0.00  0.00    -0.334 N 
ATOM      6  C6  <0> d          -0.024  -0.704  -2.317  0.00  0.00     0.320 C 
ATOM      7  O1  <0> d          -1.222  -0.501  -2.297  0.00  0.00    -0.247 OA
ATOM      8  H6  <0> d           2.650   0.226  -1.435  0.00  0.00     0.064 H 
ATOM      9  H7  <0> d           2.431  -0.999  -0.162  0.00  0.00     0.064 H 
ATOM     10  H8  <0> d           3.585  -1.910  -2.205  0.00  0.00     0.037 H 
ATOM     11  H9  <0> d           2.049  -2.740  -1.853  0.00  0.00     0.037 H 
ATOM     12  H10 <0> d           2.484  -0.500  -3.886  0.00  0.00     0.064 H 
ATOM     13  H11 <0> d           2.154  -2.212  -4.253  0.00  0.00     0.064 H 
ENDROOT
BRANCH   1  14
ATOM     14  C2  <0> d           0.002  -0.004   0.002  0.00  0.00    -0.004 C 
ATOM     15  H4  <0> d           0.529  -0.365   0.885  0.00  0.00     0.063 H 
ATOM     16  H5  <0> d          -1.020  -0.381   0.010  0.00  0.00     0.063 H 
BRANCH  14  17
ATOM     17  C1  <0> d          -0.019   1.526   0.010  0.00  0.00    -0.061 C 
ATOM     18  H1  <0> d           1.004   1.903   0.003  0.00  0.00     0.029 H 
ATOM     19  H2  <0> d          -0.546   1.887  -0.873  0.00  0.00     0.029 H 
ATOM     20  H3  <0> d          -0.529   1.877   0.907  0.00  0.00     0.029 H 
ENDBRANCH  14  17
ENDBRANCH   1  14
BRANCH   5  21
ATOM     21  C7  <0> d          -0.311  -1.374  -4.628  0.00  0.00    -0.004 C 
ATOM     22  H12 <0> d          -1.158  -0.688  -4.606  0.00  0.00     0.063 H 
ATOM     23  H13 <0> d           0.270  -1.205  -5.535  0.00  0.00     0.063 H 
BRANCH  21  24
ATOM     24  C8  <0> d          -0.823  -2.816  -4.612  0.00  0.00    -0.061 C 
ATOM     25  H14 <0> d          -1.404  -2.985  -3.706  0.00  0.00     0.029 H 
ATOM     26  H15 <0> d          -1.453  -2.987  -5.485  0.00  0.00     0.029 H 
ATOM     27  H16 <0> d           0.023  -3.502  -4.634  0.00  0.00     0.029 H 
ENDBRANCH  21  24
ENDBRANCH   5  21
TORSDOF 4
