REMARK  2 active torsions:
REMARK  status: ('A' for Active; 'I' for Inactive)
REMARK    1  A    between atoms: C1_1  and  N1_2 
REMARK    2  A    between atoms: C5_6  and  N4_11 
ROOT
ATOM      1  N1  <0> d           0.002  -0.004   0.002  0.00  0.00    -0.254 N 
ATOM      2  C2  <0> d           0.024  -0.816   1.110  0.00  0.00     0.084 A 
ATOM      3  C3  <0> d           0.034  -0.601   2.483  0.00  0.00    -0.051 A 
ATOM      4  C4  <0> d           0.057  -1.665   3.340  0.00  0.00    -0.055 A 
ATOM      5  C5  <0> d           0.070  -2.971   2.852  0.00  0.00     0.028 A 
ATOM      6  C6  <0> d           0.060  -3.209   1.492  0.00  0.00    -0.026 A 
ATOM      7  C7  <0> d           0.037  -2.130   0.605  0.00  0.00     0.111 A 
ATOM      8  N2  <0> d           0.022  -2.003  -0.737  0.00  0.00    -0.130 NA
ATOM      9  N3  <0> d          -0.003  -0.754  -1.045  0.00  0.00    -0.065 NA
ATOM     10  H4  <0> d           0.024   0.406   2.872  0.00  0.00     0.087 H 
ATOM     11  H5  <0> d           0.065  -1.492   4.407  0.00  0.00     0.087 H 
ATOM     12  H6  <0> d           0.070  -4.222   1.116  0.00  0.00     0.090 H 
ENDROOT
BRANCH   1  13
ATOM     13  C1  <0> d          -0.018   1.461   0.010  0.00  0.00     0.004 C 
ATOM     14  H1  <0> d           1.005   1.838   0.002  0.00  0.00     0.059 H 
ATOM     15  H2  <0> d          -0.545   1.822  -0.873  0.00  0.00     0.059 H 
ATOM     16  H3  <0> d          -0.528   1.812   0.907  0.00  0.00     0.059 H 
ENDBRANCH   1  13
BRANCH   5  17
ATOM     17  N4  <0> d           0.093  -4.047   3.746  0.00  0.00    -0.399 N 
ATOM     18  H7  <0> d           0.102  -4.957   3.410  0.00  0.00     0.156 HD
ATOM     19  H8  <0> d           0.099  -3.884   4.702  0.00  0.00     0.156 HD
ENDBRANCH   5  17
TORSDOF 2
