REMARK  4 active torsions:
REMARK  status: ('A' for Active; 'I' for Inactive)
REMARK    1  A    between atoms: C1_1  and  N1_2 
REMARK    2  A    between atoms: N1_2  and  C2_3 
REMARK    3  A    between atoms: N1_2  and  C3_4 
REMARK    4  A    between atoms: C6_8  and  N4_10 
ROOT
ATOM      1  C3  <0> d           2.308  -0.051  -0.020  0.00  0.00     0.148 A 
ATOM      2  C4  <0> d           2.324   1.344  -0.013  0.00  0.00     0.018 A 
ATOM      3  C5  <0> d           1.114   2.017   0.002  0.00  0.00     0.231 A 
ATOM      4  N2  <0> d          -0.016   1.320   0.009  0.00  0.00    -0.034 NA
ATOM      5  C6  <0> d           0.002  -0.004   0.002  0.00  0.00     0.724 A 
ATOM      6  N3  <0> d           1.139  -0.684  -0.012  0.00  0.00    -0.045 NA
ATOM      7  F1  <0> d           1.084   3.368   0.009  0.00  0.00    -0.183 F 
ATOM      8  H7  <0> d           3.258   1.886  -0.019  0.00  0.00     0.096 H 
ENDROOT
BRANCH   1   9
ATOM      9  N1  <0> d           3.494  -0.767  -0.034  0.00  0.00    -0.374 N 
BRANCH   9  10
ATOM     10  C1  <0> d           4.776  -0.064   0.068  0.00  0.00    -0.018 C 
ATOM     11  H1  <0> d           5.056   0.029   1.117  0.00  0.00     0.056 H 
ATOM     12  H2  <0> d           5.542  -0.626  -0.465  0.00  0.00     0.056 H 
ATOM     13  H3  <0> d           4.681   0.929  -0.372  0.00  0.00     0.056 H 
ENDBRANCH   9  10
BRANCH   9  14
ATOM     14  C2  <0> d           3.467  -2.227  -0.151  0.00  0.00    -0.018 C 
ATOM     15  H4  <0> d           2.434  -2.567  -0.216  0.00  0.00     0.056 H 
ATOM     16  H5  <0> d           4.006  -2.529  -1.049  0.00  0.00     0.056 H 
ATOM     17  H6  <0> d           3.942  -2.671   0.724  0.00  0.00     0.056 H 
ENDBRANCH   9  14
ENDBRANCH   1   9
BRANCH   5  18
ATOM     18  N4  <0> d          -1.197  -0.695   0.010  0.00  0.00    -0.231 N 
ATOM     19  H8  <0> d          -2.037  -0.209   0.020  0.00  0.00     0.174 HD
ATOM     20  H9  <0> d          -1.198  -1.665   0.005  0.00  0.00     0.174 HD
ENDBRANCH   5  18
TORSDOF 4
