REMARK  3 active torsions:
REMARK  status: ('A' for Active; 'I' for Inactive)
REMARK    1  A    between atoms: C1_1  and  N1_2 
REMARK    2  A    between atoms: N1_2  and  C2_3 
REMARK       I    between atoms: N1_2  and  C3_4 
REMARK    3  A    between atoms: C3_4  and  C4_6 
ROOT
ATOM      1  C4  <0> d          -0.019   1.541   0.011  0.00  0.00     0.090 C 
ATOM      2  H1  <0> d          -0.511   1.906   0.912  0.00  0.00     0.087 H 
ATOM      3  C5  <0> d           0.002  -0.004   0.002  0.00  0.00    -0.030 C 
ATOM      4  C6  <0> d           1.367  -0.297  -0.662  0.00  0.00     0.011 C 
ATOM      5  C7  <0> d           2.190   0.940  -0.380  0.00  0.00     0.218 C 
ATOM      6  O2  <0> d           3.397   1.010  -0.482  0.00  0.00    -0.274 OA
ATOM      7  N2  <0> d           1.390   1.951  -0.001  0.00  0.00    -0.348 N 
ATOM      8  H8  <0> d          -0.031  -0.400   1.017  0.00  0.00     0.037 H 
ATOM      9  H9  <0> d          -0.817  -0.402  -0.597  0.00  0.00     0.037 H 
ATOM     10  H10 <0> d           1.831  -1.175  -0.211  0.00  0.00     0.047 H 
ATOM     11  H11 <0> d           1.246  -0.438  -1.736  0.00  0.00     0.047 H 
ATOM     12  H12 <0> d           1.703   2.838   0.235  0.00  0.00     0.163 HD
ENDROOT
BRANCH   1  13
ATOM     13  C3  <0> d          -0.723   2.059  -1.217  0.00  0.00     0.241 C 
ATOM     14  N1  <0> d          -2.070   2.084  -1.261  0.00  0.00    -0.359 N 
ATOM     15  O1  <0> d          -0.078   2.454  -2.165  0.00  0.00    -0.271 OA
BRANCH  14  16
ATOM     16  C1  <0> d          -2.755   2.589  -2.454  0.00  0.00    -0.017 C 
ATOM     17  H2  <0> d          -2.474   1.984  -3.316  0.00  0.00     0.056 H 
ATOM     18  H3  <0> d          -3.833   2.531  -2.305  0.00  0.00     0.056 H 
ATOM     19  H4  <0> d          -2.466   3.625  -2.627  0.00  0.00     0.056 H 
ENDBRANCH  14  16
BRANCH  14  20
ATOM     20  C2  <0> d          -2.849   1.607  -0.116  0.00  0.00    -0.017 C 
ATOM     21  H5  <0> d          -3.038   2.436   0.566  0.00  0.00     0.056 H 
ATOM     22  H6  <0> d          -3.798   1.202  -0.466  0.00  0.00     0.056 H 
ATOM     23  H7  <0> d          -2.291   0.829   0.405  0.00  0.00     0.056 H 
ENDBRANCH  14  20
ENDBRANCH   1  13
TORSDOF 3
