REMARK  6 active torsions:
REMARK  status: ('A' for Active; 'I' for Inactive)
REMARK    1  A    between atoms: C1_1  and  C2_2 
REMARK    2  A    between atoms: C5_5  and  C9_11 
REMARK    3  A    between atoms: N1_6  and  C6_7 
REMARK    4  A    between atoms: C6_7  and  C7_8 
REMARK    5  A    between atoms: C7_8  and  C8_9 
REMARK    6  A    between atoms: C8_9  and  O1_10 
ROOT
ATOM      1  C2  <0> d           0.002  -0.004   0.002  0.00  0.00     0.008 A 
ATOM      2  C3  <0> d           0.008  -0.789  -1.095  0.00  0.00    -0.060 A 
ATOM      3  C4  <0> d           0.029  -2.127  -0.656  0.00  0.00    -0.060 A 
ATOM      4  C5  <0> d           0.035  -2.110   0.693  0.00  0.00     0.008 A 
ATOM      5  N1  <0> d           0.024  -0.809   1.102  0.00  0.00    -0.355 N 
ATOM      6  H4  <0> d          -0.001  -0.453  -2.121  0.00  0.00     0.086 H 
ATOM      7  H5  <0> d           0.039  -3.006  -1.284  0.00  0.00     0.086 H 
ENDROOT
BRANCH   5   8
ATOM      8  C6  <0> d           0.030  -0.352   2.494  0.00  0.00     0.002 C 
ATOM      9  H6  <0> d           0.559  -1.078   3.112  0.00  0.00     0.065 H 
ATOM     10  H7  <0> d           0.531   0.614   2.557  0.00  0.00     0.065 H 
BRANCH   8  11
ATOM     11  C7  <0> d          -1.410  -0.214   2.992  0.00  0.00    -0.030 C 
ATOM     12  H8  <0> d          -1.940   0.511   2.374  0.00  0.00     0.038 H 
ATOM     13  H9  <0> d          -1.911  -1.180   2.929  0.00  0.00     0.038 H 
BRANCH  11  14
ATOM     14  C8  <0> d          -1.404   0.263   4.446  0.00  0.00     0.018 C 
ATOM     15  H10 <0> d          -0.874  -0.462   5.064  0.00  0.00     0.074 H 
ATOM     16  H11 <0> d          -0.903   1.229   4.509  0.00  0.00     0.074 H 
BRANCH  14  17
ATOM     17  O1  <0> d          -2.749   0.393   4.910  0.00  0.00    -0.401 OA
ATOM     18  H12 <0> d          -2.821   0.692   5.827  0.00  0.00     0.209 HD
ENDBRANCH  14  17
ENDBRANCH  11  14
ENDBRANCH   8  11
ENDBRANCH   5   8
BRANCH   1  19
ATOM     19  C1  <0> d          -0.018   1.503   0.010  0.00  0.00    -0.037 C 
ATOM     20  H1  <0> d           1.004   1.880   0.003  0.00  0.00     0.035 H 
ATOM     21  H2  <0> d          -0.545   1.864  -0.873  0.00  0.00     0.035 H 
ATOM     22  H3  <0> d          -0.529   1.854   0.907  0.00  0.00     0.035 H 
ENDBRANCH   1  19
BRANCH   4  23
ATOM     23  C9  <0> d           0.055  -3.319   1.592  0.00  0.00    -0.037 C 
ATOM     24  H13 <0> d           1.087  -3.596   1.804  0.00  0.00     0.035 H 
ATOM     25  H14 <0> d          -0.458  -3.086   2.525  0.00  0.00     0.035 H 
ATOM     26  H15 <0> d          -0.450  -4.148   1.097  0.00  0.00     0.035 H 
ENDBRANCH   4  23
TORSDOF 6
