REMARK  6 active torsions:
REMARK  status: ('A' for Active; 'I' for Inactive)
REMARK    1  A    between atoms: C1_1  and  C2_2 
REMARK    2  A    between atoms: C2_2  and  O2_4 
REMARK    3  A    between atoms: O2_4  and  C3_5 
REMARK    4  A    between atoms: C3_5  and  C4_6 
REMARK    5  A    between atoms: C3_5  and  C5_7 
REMARK    6  A    between atoms: C3_5  and  C6_8 
ROOT
ATOM      1  C6  <0> d           3.522   2.029  -0.021  0.00  0.00    -0.079 C 
ATOM      2  C7  <0> d           4.443   2.757  -0.026  0.00  0.00    -0.151 C 
ATOM      3  H10 <0> d           5.267   3.408  -0.030  0.00  0.00     0.166 H 
ENDROOT
BRANCH   1   4
ATOM      4  C3  <0> d           2.367   1.117  -0.015  0.00  0.00     0.125 C 
BRANCH   4   5
ATOM      5  O2  <0> d           1.139   1.891   0.001  0.00  0.00    -0.298 OA
BRANCH   5   6
ATOM      6  C2  <0> d          -0.014   1.204   0.009  0.00  0.00     0.256 C 
ATOM      7  O1  <0> d           0.002  -0.004   0.002  0.00  0.00    -0.266 OA
BRANCH   6   8
ATOM      8  C1  <0> d          -1.329   1.940   0.019  0.00  0.00     0.004 C 
ATOM      9  H1  <0> d          -1.642   2.111   1.049  0.00  0.00     0.041 H 
ATOM     10  H2  <0> d          -1.214   2.897  -0.490  0.00  0.00     0.041 H 
ATOM     11  H3  <0> d          -2.083   1.343  -0.495  0.00  0.00     0.041 H 
ENDBRANCH   6   8
ENDBRANCH   5   6
ENDBRANCH   4   5
BRANCH   4  12
ATOM     12  C4  <0> d           2.426   0.228   1.229  0.00  0.00    -0.037 C 
ATOM     13  H4  <0> d           1.571  -0.448   1.234  0.00  0.00     0.033 H 
ATOM     14  H5  <0> d           3.348  -0.353   1.218  0.00  0.00     0.033 H 
ATOM     15  H6  <0> d           2.401   0.852   2.123  0.00  0.00     0.033 H 
ENDBRANCH   4  12
BRANCH   4  16
ATOM     16  C5  <0> d           2.402   0.241  -1.269  0.00  0.00    -0.037 C 
ATOM     17  H7  <0> d           2.360   0.875  -2.155  0.00  0.00     0.033 H 
ATOM     18  H8  <0> d           3.324  -0.340  -1.281  0.00  0.00     0.033 H 
ATOM     19  H9  <0> d           1.547  -0.434  -1.264  0.00  0.00     0.033 H 
ENDBRANCH   4  16
ENDBRANCH   1   4
TORSDOF 6
