REMARK  3 active torsions:
REMARK  status: ('A' for Active; 'I' for Inactive)
REMARK    1  A    between atoms: C1_1  and  O1_2 
REMARK    2  A    between atoms: O1_2  and  C2_3 
REMARK    3  A    between atoms: C2_3  and  C3_5 
ROOT
ATOM      1  C3  <0> d           1.194  -0.350  -0.915  0.00  0.00     0.088 C 
ATOM      2  H1  <0> d           0.873  -0.538  -1.843  0.00  0.00     0.067 H 
ATOM      3  C4  <0> d           0.002  -0.004   0.002  0.00  0.00    -0.046 C 
ATOM      4  C5  <0> d          -0.019   1.546   0.011  0.00  0.00    -0.058 C 
ATOM      5  C6  <0> d           1.490   1.897  -0.002  0.00  0.00    -0.009 C 
ATOM      6  C7  <0> d           2.114   0.853  -0.911  0.00  0.00     0.140 C 
ATOM      7  O3  <0> d           3.151   0.963  -1.519  0.00  0.00    -0.297 OA
ATOM      8  H5  <0> d           0.168  -0.390   1.008  0.00  0.00     0.034 H 
ATOM      9  H6  <0> d          -0.927  -0.397  -0.410  0.00  0.00     0.034 H 
ATOM     10  H7  <0> d          -0.514   1.931  -0.880  0.00  0.00     0.033 H 
ATOM     11  H8  <0> d          -0.497   1.922   0.915  0.00  0.00     0.033 H 
ATOM     12  H9  <0> d           1.612   2.827  -0.347  0.00  0.00     0.044 H 
ATOM     13  H10 <0> d           1.906   1.824   1.003  0.00  0.00     0.044 H 
ENDROOT
BRANCH   1  14
ATOM     14  C2  <0> d           1.922  -1.556  -0.381  0.00  0.00     0.269 C 
ATOM     15  O2  <0> d           1.537  -2.095   0.630  0.00  0.00    -0.264 OA
BRANCH  14  16
ATOM     16  O1  <0> d           2.997  -2.032  -1.028  0.00  0.00    -0.326 OA
BRANCH  16  17
ATOM     17  C1  <0> d           3.648  -3.197  -0.456  0.00  0.00     0.013 C 
ATOM     18  H2  <0> d           3.993  -2.963   0.551  0.00  0.00     0.067 H 
ATOM     19  H3  <0> d           2.941  -4.025  -0.415  0.00  0.00     0.067 H 
ATOM     20  H4  <0> d           4.500  -3.478  -1.075  0.00  0.00     0.067 H 
ENDBRANCH  16  17
ENDBRANCH  14  16
ENDBRANCH   1  14
TORSDOF 3
