REMARK  4 active torsions:
REMARK  status: ('A' for Active; 'I' for Inactive)
REMARK    1  A    between atoms: C1_1  and  C2_2 
REMARK    2  A    between atoms: C2_2  and  N1_3 
REMARK    3  A    between atoms: C3_4  and  N3_9 
REMARK    4  A    between atoms: C5_6  and  C6_8 
ROOT
ATOM      1  N1  <0> d          -0.698   1.558   1.213  0.00  0.00    -0.255 N 
ATOM      2  C3  <0> d          -0.448   2.714   1.870  0.00  0.00     0.119 A 
ATOM      3  C4  <0> d          -1.301   2.777   2.930  0.00  0.00    -0.015 A 
ATOM      4  C5  <0> d          -2.084   1.619   2.918  0.00  0.00     0.054 A 
ATOM      5  N2  <0> d          -1.725   0.890   1.893  0.00  0.00    -0.176 NA
ATOM      6  H6  <0> d          -1.359   3.577   3.653  0.00  0.00     0.092 H 
ENDROOT
BRANCH   1   7
ATOM      7  C2  <0> d          -0.013   1.086   0.008  0.00  0.00     0.015 C 
ATOM      8  H4  <0> d           0.002  -0.004   0.002  0.00  0.00     0.066 H 
ATOM      9  H5  <0> d           1.010   1.463   0.000  0.00  0.00     0.066 H 
BRANCH   7  10
ATOM     10  C1  <0> d          -0.753   1.593  -1.232  0.00  0.00    -0.059 C 
ATOM     11  H1  <0> d          -0.767   2.683  -1.226  0.00  0.00     0.029 H 
ATOM     12  H2  <0> d          -0.242   1.241  -2.128  0.00  0.00     0.029 H 
ATOM     13  H3  <0> d          -1.775   1.215  -1.224  0.00  0.00     0.029 H 
ENDBRANCH   7  10
ENDBRANCH   1   7
BRANCH   2  14
ATOM     14  N3  <0> d           0.506   3.667   1.524  0.00  0.00    -0.384 N 
ATOM     15  H10 <0> d           1.067   3.530   0.744  0.00  0.00     0.157 HD
ATOM     16  H11 <0> d           0.609   4.467   2.062  0.00  0.00     0.157 HD
ENDBRANCH   2  14
BRANCH   4  17
ATOM     17  C6  <0> d          -3.158   1.271   3.916  0.00  0.00    -0.034 C 
ATOM     18  H7  <0> d          -2.720   0.709   4.740  0.00  0.00     0.035 H 
ATOM     19  H8  <0> d          -3.609   2.186   4.299  0.00  0.00     0.035 H 
ATOM     20  H9  <0> d          -3.923   0.666   3.429  0.00  0.00     0.035 H 
ENDBRANCH   4  17
TORSDOF 4
