REMARK  5 active torsions:
REMARK  status: ('A' for Active; 'I' for Inactive)
REMARK    1  A    between atoms: C1_1  and  C2_2 
REMARK    2  A    between atoms: C3_3  and  N3_10 
REMARK    3  A    between atoms: N2_6  and  C5_7 
REMARK    4  A    between atoms: C5_7  and  C6_8 
REMARK    5  A    between atoms: C5_7  and  C7_9 
ROOT
ATOM      1  C2  <0> d           1.269   1.832  -0.000  0.00  0.00     0.054 A 
ATOM      2  C3  <0> d          -0.017   1.398   0.010  0.00  0.00     0.069 A 
ATOM      3  C4  <0> d           0.002  -0.004   0.002  0.00  0.00     0.049 A 
ATOM      4  N1  <0> d           1.250  -0.399  -0.012  0.00  0.00    -0.182 NA
ATOM      5  N2  <0> d           2.072   0.735  -0.014  0.00  0.00    -0.268 N 
ATOM      6  H4  <0> d          -0.865  -0.648   0.007  0.00  0.00     0.121 H 
ENDROOT
BRANCH   5   7
ATOM      7  C5  <0> d           3.537   0.738  -0.027  0.00  0.00     0.028 C 
ATOM      8  H5  <0> d           3.859   1.790  -0.024  0.00  0.00     0.074 H 
BRANCH   7   9
ATOM      9  C6  <0> d           4.060   0.011   1.213  0.00  0.00    -0.056 C 
ATOM     10  H6  <0> d           5.160   0.013   1.203  0.00  0.00     0.030 H 
ATOM     11  H7  <0> d           3.695  -1.027   1.211  0.00  0.00     0.030 H 
ATOM     12  H8  <0> d           3.700   0.523   2.118  0.00  0.00     0.030 H 
ENDBRANCH   7   9
BRANCH   7  13
ATOM     13  C7  <0> d           4.037   0.025  -1.285  0.00  0.00    -0.056 C 
ATOM     14  H9  <0> d           5.136   0.027  -1.295  0.00  0.00     0.030 H 
ATOM     15  H10 <0> d           3.660   0.547  -2.177  0.00  0.00     0.030 H 
ATOM     16  H11 <0> d           3.672  -1.013  -1.288  0.00  0.00     0.030 H 
ENDBRANCH   7  13
ENDBRANCH   5   7
BRANCH   1  17
ATOM     17  C1  <0> d           1.724   3.268   0.002  0.00  0.00    -0.034 C 
ATOM     18  H1  <0> d           0.846   3.931   0.015  0.00  0.00     0.035 H 
ATOM     19  H2  <0> d           2.320   3.466  -0.901  0.00  0.00     0.035 H 
ATOM     20  H3  <0> d           2.338   3.457   0.895  0.00  0.00     0.035 H 
ENDBRANCH   1  17
BRANCH   2  21
ATOM     21  N3  <0> d          -1.166   2.211   0.020  0.00  0.00    -0.396 N 
ATOM     22  H12 <0> d          -2.165   1.752   0.027  0.00  0.00     0.156 HD
ATOM     23  H13 <0> d          -1.065   3.307   0.020  0.00  0.00     0.156 HD
ENDBRANCH   2  21
TORSDOF 5
