REMARK  1 active torsions:
REMARK  status: ('A' for Active; 'I' for Inactive)
REMARK    1  A    between atoms: C1_1  and  C2_2 
ROOT
ATOM      1  C2  <0> d           0.002  -0.004   0.002  0.00  0.00    -0.079 A 
ATOM      2  C3  <0> d           0.008  -0.772  -1.073  0.00  0.00    -0.070 A 
ATOM      3  C4  <0> d           0.030  -2.200  -0.705  0.00  0.00    -0.029 A 
ATOM      4  C5  <0> d           0.043  -3.364  -1.478  0.00  0.00    -0.072 A 
ATOM      5  C6  <0> d           0.062  -4.598  -0.862  0.00  0.00    -0.082 A 
ATOM      6  C7  <0> d           0.070  -4.691   0.518  0.00  0.00    -0.082 A 
ATOM      7  C8  <0> d           0.057  -3.543   1.292  0.00  0.00    -0.076 A 
ATOM      8  C9  <0> d           0.038  -2.307   0.688  0.00  0.00    -0.044 A 
ATOM      9  C10 <0> d           0.026  -0.896   1.222  0.00  0.00    -0.020 A 
ATOM     10  H4  <0> d          -0.002  -0.403  -2.088  0.00  0.00     0.085 H 
ATOM     11  H5  <0> d           0.036  -3.297  -2.555  0.00  0.00     0.084 H 
ATOM     12  H6  <0> d           0.071  -5.496  -1.461  0.00  0.00     0.083 H 
ATOM     13  H7  <0> d           0.085  -5.661   0.993  0.00  0.00     0.083 H 
ATOM     14  H8  <0> d           0.063  -3.617   2.369  0.00  0.00     0.084 H 
ATOM     15  H9  <0> d           0.923  -0.706   1.810  0.00  0.00     0.046 H 
ATOM     16  H10 <0> d          -0.866  -0.731   1.827  0.00  0.00     0.046 H 
ENDROOT
BRANCH   1  17
ATOM     17  C1  <0> d          -0.018   1.503   0.010  0.00  0.00    -0.054 C 
ATOM     18  H1  <0> d           1.004   1.880   0.003  0.00  0.00     0.033 H 
ATOM     19  H2  <0> d          -0.545   1.864  -0.873  0.00  0.00     0.033 H 
ATOM     20  H3  <0> d          -0.529   1.854   0.907  0.00  0.00     0.033 H 
ENDBRANCH   1  17
TORSDOF 1
