REMARK  3 active torsions:
REMARK  status: ('A' for Active; 'I' for Inactive)
REMARK    1  A    between atoms: C1_1  and  C2_2 
REMARK    2  A    between atoms: C4_5  and  N3_9 
REMARK    3  A    between atoms: C5_6  and  C6_8 
ROOT
ATOM      1  C2  <0> d          -0.017   1.378   0.010  0.00  0.00     0.048 A 
ATOM      2  C3  <0> d           0.002  -0.004   0.002  0.00  0.00     0.028 A 
ATOM      3  N1  <0> d           1.155  -0.652  -0.013  0.00  0.00    -0.240 NA
ATOM      4  C4  <0> d           2.295   0.027  -0.020  0.00  0.00     0.145 A 
ATOM      5  C5  <0> d           2.272   1.420  -0.012  0.00  0.00     0.076 A 
ATOM      6  N2  <0> d           1.117   2.058   0.002  0.00  0.00    -0.253 NA
ATOM      7  H4  <0> d          -0.926  -0.556   0.008  0.00  0.00     0.117 H 
ENDROOT
BRANCH   1   8
ATOM      8  C1  <0> d          -1.333   2.111   0.020  0.00  0.00    -0.034 C 
ATOM      9  H1  <0> d          -1.646   2.283   1.050  0.00  0.00     0.035 H 
ATOM     10  H2  <0> d          -1.220   3.068  -0.489  0.00  0.00     0.035 H 
ATOM     11  H3  <0> d          -2.086   1.514  -0.494  0.00  0.00     0.035 H 
ENDBRANCH   1   8
BRANCH   5  12
ATOM     12  C6  <0> d           3.563   2.196  -0.021  0.00  0.00    -0.032 C 
ATOM     13  H5  <0> d           3.865   2.389  -1.050  0.00  0.00     0.035 H 
ATOM     14  H6  <0> d           3.422   3.143   0.500  0.00  0.00     0.035 H 
ATOM     15  H7  <0> d           4.338   1.617   0.482  0.00  0.00     0.035 H 
ENDBRANCH   5  12
BRANCH   4  16
ATOM     16  N3  <0> d           3.509  -0.650  -0.035  0.00  0.00    -0.382 N 
ATOM     17  H8  <0> d           3.523  -1.620  -0.041  0.00  0.00     0.157 HD
ATOM     18  H9  <0> d           4.341  -0.152  -0.041  0.00  0.00     0.157 HD
ENDBRANCH   4  16
TORSDOF 3
