REMARK  1 active torsions:
REMARK  status: ('A' for Active; 'I' for Inactive)
REMARK    1  A    between atoms: C2_2  and  C3_3 
ROOT
ATOM      1  C1  <0> d           4.681  -1.233  -0.050  0.00  0.00    -0.149 C 
ATOM      2  C2  <0> d           3.655  -0.662  -0.037  0.00  0.00    -0.078 C 
ATOM      3  H1  <0> d           5.598  -1.743  -0.062  0.00  0.00     0.166 H 
ENDROOT
BRANCH   2   4
ATOM      4  C3  <0> d           2.403   0.034  -0.021  0.00  0.00     0.016 A 
ATOM      5  C8  <0> d           2.377   1.429  -0.013  0.00  0.00    -0.065 A 
ATOM      6  C7  <0> d           1.168   2.093   0.002  0.00  0.00    -0.082 A 
ATOM      7  H6  <0> d           3.302   1.987  -0.019  0.00  0.00     0.085 H 
ATOM      8  C6  <0> d          -0.017   1.379   0.010  0.00  0.00    -0.083 A 
ATOM      9  H5  <0> d           1.147   3.173   0.008  0.00  0.00     0.083 H 
ATOM     10  C5  <0> d           0.002  -0.004   0.002  0.00  0.00    -0.082 A 
ATOM     11  H4  <0> d          -0.961   1.904   0.017  0.00  0.00     0.083 H 
ATOM     12  C4  <0> d           1.204  -0.681  -0.013  0.00  0.00    -0.065 A 
ATOM     13  H3  <0> d          -0.926  -0.556   0.007  0.00  0.00     0.083 H 
ATOM     14  H2  <0> d           1.218  -1.760  -0.019  0.00  0.00     0.085 H 
ENDBRANCH   2   4
TORSDOF 1
