REMARK  1 active torsions:
REMARK  status: ('A' for Active; 'I' for Inactive)
REMARK    1  A    between atoms: C1_1  and  C2_2 
ROOT
ATOM      1  C2  <0> d          -0.718   1.572   1.248  0.00  0.00    -0.021 A 
ATOM      2  C3  <0> d          -2.094   1.792   1.230  0.00  0.00     0.052 A 
ATOM      3  C4  <0> d          -2.742   2.239   2.384  0.00  0.00    -0.062 A 
ATOM      4  C5  <0> d          -2.021   2.471   3.538  0.00  0.00    -0.080 A 
ATOM      5  C6  <0> d          -0.657   2.260   3.562  0.00  0.00    -0.062 A 
ATOM      6  C7  <0> d           0.004   1.809   2.417  0.00  0.00     0.052 A 
ATOM      7  C8  <0> d           1.418   1.590   2.443  0.00  0.00     0.100 C 
ATOM      8  N1  <0> d           2.541   1.416   2.464  0.00  0.00    -0.191 NA
ATOM      9  C9  <0> d          -2.843   1.557   0.032  0.00  0.00     0.100 C 
ATOM     10  N2  <0> d          -3.437   1.370  -0.918  0.00  0.00    -0.191 NA
ATOM     11  H4  <0> d          -3.809   2.406   2.373  0.00  0.00     0.085 H 
ATOM     12  H5  <0> d          -2.527   2.819   4.427  0.00  0.00     0.083 H 
ATOM     13  H6  <0> d          -0.099   2.443   4.469  0.00  0.00     0.085 H 
ENDROOT
BRANCH   1  14
ATOM     14  C1  <0> d          -0.013   1.086   0.008  0.00  0.00    -0.048 C 
ATOM     15  H1  <0> d           0.002  -0.004   0.002  0.00  0.00     0.033 H 
ATOM     16  H2  <0> d           1.010   1.463   0.000  0.00  0.00     0.033 H 
ATOM     17  H3  <0> d          -0.540   1.447  -0.875  0.00  0.00     0.033 H 
ENDBRANCH   1  14
TORSDOF 1
