REMARK  2 active torsions:
REMARK  status: ('A' for Active; 'I' for Inactive)
REMARK    1  A    between atoms: C5_5  and  C6_6 
REMARK    2  A    between atoms: C6_6  and  C7_7 
ROOT
ATOM      1  C6  <0> d          -1.196  -0.919   0.009  0.00  0.00    -0.035 C 
ATOM      2  H6  <0> d          -2.001  -0.467  -0.571  0.00  0.00     0.041 H 
ATOM      3  H7  <0> d          -0.923  -1.877  -0.433  0.00  0.00     0.041 H 
ENDROOT
BRANCH   1   4
ATOM      4  C5  <0> d           0.002  -0.004   0.002  0.00  0.00    -0.076 A 
ATOM      5  C1  <0> d          -0.018   1.508   0.010  0.00  0.00    -0.029 A 
ATOM      6  C2  <0> d           1.436   1.921  -0.001  0.00  0.00    -0.099 A 
ATOM      7  H1  <0> d          -0.509   1.875   0.912  0.00  0.00     0.045 H 
ATOM      8  H2  <0> d          -0.526   1.885  -0.878  0.00  0.00     0.045 H 
ATOM      9  C3  <0> d           2.153   0.804  -0.014  0.00  0.00    -0.086 A 
ATOM     10  H3  <0> d           1.819   2.931   0.000  0.00  0.00     0.077 H 
ATOM     11  C4  <0> d           1.278  -0.371  -0.012  0.00  0.00    -0.081 A 
ATOM     12  H4  <0> d           3.232   0.766  -0.025  0.00  0.00     0.083 H 
ATOM     13  H5  <0> d           1.623  -1.394  -0.021  0.00  0.00     0.083 H 
ENDBRANCH   1   4
BRANCH   1  14
ATOM     14  C7  <0> d          -1.663  -1.136   1.449  0.00  0.00    -0.018 A 
ATOM     15  C11 <0> d          -2.937  -1.951   1.470  0.00  0.00    -0.095 A 
ATOM     16  C10 <0> d          -2.670  -3.064   2.142  0.00  0.00    -0.086 A 
ATOM     17  H12 <0> d          -3.883  -1.680   1.024  0.00  0.00     0.077 H 
ATOM     18  C9  <0> d          -1.276  -3.073   2.594  0.00  0.00    -0.086 A 
ATOM     19  H11 <0> d          -3.381  -3.854   2.331  0.00  0.00     0.083 H 
ATOM     20  C8  <0> d          -0.653  -1.965   2.210  0.00  0.00    -0.095 A 
ATOM     21  H10 <0> d          -0.819  -3.870   3.161  0.00  0.00     0.083 H 
ATOM     22  H9  <0> d           0.377  -1.706   2.404  0.00  0.00     0.077 H 
ATOM     23  H8  <0> d          -1.819  -0.178   1.944  0.00  0.00     0.052 H 
ENDBRANCH   1  14
TORSDOF 2
