REMARK  3 active torsions:
REMARK  status: ('A' for Active; 'I' for Inactive)
REMARK    1  A    between atoms: C1_1  and  O1_2 
REMARK    2  A    between atoms: O1_2  and  C2_3 
REMARK    3  A    between atoms: C5_6  and  C7_9 
ROOT
ATOM      1  C2  <0> d           0.002  -0.004   0.002  0.00  0.00     0.085 A 
ATOM      2  C3  <0> d          -0.017   1.388   0.010  0.00  0.00    -0.047 A 
ATOM      3  C4  <0> d           1.190   2.063   0.002  0.00  0.00    -0.046 A 
ATOM      4  C5  <0> d           2.378   1.332  -0.013  0.00  0.00     0.132 A 
ATOM      5  N1  <0> d           2.356   0.003  -0.020  0.00  0.00    -0.251 NA
ATOM      6  C6  <0> d           1.226  -0.668  -0.013  0.00  0.00     0.035 A 
ATOM      7  H4  <0> d          -0.952   1.928   0.017  0.00  0.00     0.087 H 
ATOM      8  H5  <0> d           1.213   3.143   0.007  0.00  0.00     0.087 H 
ATOM      9  H6  <0> d           1.248  -1.748  -0.019  0.00  0.00     0.119 H 
ENDROOT
BRANCH   1  10
ATOM     10  O1  <0> d          -1.159  -0.706   0.009  0.00  0.00    -0.355 OA
BRANCH  10  11
ATOM     11  C1  <0> d          -1.056  -2.131   0.000  0.00  0.00     0.010 C 
ATOM     12  H1  <0> d          -0.525  -2.452  -0.896  0.00  0.00     0.066 H 
ATOM     13  H2  <0> d          -0.509  -2.461   0.883  0.00  0.00     0.066 H 
ATOM     14  H3  <0> d          -2.054  -2.568   0.007  0.00  0.00     0.066 H 
ENDBRANCH  10  11
ENDBRANCH   1  10
BRANCH   4  15
ATOM     15  C7  <0> d           3.674   2.041  -0.021  0.00  0.00     0.228 C 
ATOM     16  O2  <0> d           3.702   3.256  -0.015  0.00  0.00    -0.643 OA
ATOM     17  O3  <0> d           4.825   1.341  -0.035  0.00  0.00    -0.643 OA
ENDBRANCH   4  15
TORSDOF 3
