REMARK  2 active torsions:
REMARK  status: ('A' for Active; 'I' for Inactive)
REMARK    1  A    between atoms: C2_2  and  C4_7 
REMARK    2  A    between atoms: C4_7  and  C5_8 
ROOT
ATOM      1  C1  <0> d           0.002  -0.004   0.002  0.00  0.00     0.002 A 
ATOM      2  C2  <0> d           1.296  -0.376  -0.012  0.00  0.00     0.061 A 
ATOM      3  N1  <0> d           2.047   0.735  -0.013  0.00  0.00    -0.247 NA
ATOM      4  C3  <0> d           1.268   1.782  -0.001  0.00  0.00     0.064 A 
ATOM      5  N2  <0> d          -0.017   1.365   0.009  0.00  0.00    -0.359 N 
ATOM      6  H1  <0> d          -0.829   1.947   0.020  0.00  0.00     0.166 HD
ATOM      7  H2  <0> d          -0.856  -0.660   0.007  0.00  0.00     0.114 H 
ATOM      8  H3  <0> d           1.596   2.811   0.002  0.00  0.00     0.143 H 
ENDROOT
BRANCH   2   9
ATOM      9  C4  <0> d           1.810  -1.793  -0.025  0.00  0.00     0.057 C 
ATOM     10  H4  <0> d           2.352  -1.991   0.900  0.00  0.00     0.058 H 
ATOM     11  H5  <0> d           0.971  -2.483  -0.110  0.00  0.00     0.058 H 
BRANCH   9  12
ATOM     12  C5  <0> d           2.737  -1.980  -1.199  0.00  0.00     0.178 C 
ATOM     13  O1  <0> d           2.957  -1.059  -1.948  0.00  0.00    -0.648 OA
ATOM     14  O2  <0> d           3.317  -3.172  -1.411  0.00  0.00    -0.648 OA
ENDBRANCH   9  12
ENDBRANCH   2   9
TORSDOF 2
