REMARK  5 active torsions:
REMARK  status: ('A' for Active; 'I' for Inactive)
REMARK    1  A    between atoms: C1_1  and  C2_2 
REMARK    2  A    between atoms: C2_2  and  C3_3 
REMARK    3  A    between atoms: C4_4  and  C8_11 
REMARK    4  A    between atoms: C5_6  and  N3_10 
REMARK    5  A    between atoms: C6_8  and  C7_9 
ROOT
ATOM      1  C3  <0> d          -0.718   1.572   1.248  0.00  0.00    -0.009 A 
ATOM      2  C4  <0> d          -0.371   2.780   1.833  0.00  0.00     0.058 A 
ATOM      3  N1  <0> d          -1.014   3.180   2.917  0.00  0.00    -0.068 NA
ATOM      4  C5  <0> d          -1.971   2.435   3.450  0.00  0.00     0.720 A 
ATOM      5  N2  <0> d          -2.323   1.274   2.920  0.00  0.00    -0.068 NA
ATOM      6  C6  <0> d          -1.724   0.818   1.832  0.00  0.00     0.058 A 
ENDROOT
BRANCH   1   7
ATOM      7  C2  <0> d          -0.013   1.086   0.008  0.00  0.00    -0.041 C 
ATOM      8  H4  <0> d           0.002  -0.004   0.002  0.00  0.00     0.039 H 
ATOM      9  H5  <0> d           1.010   1.463   0.000  0.00  0.00     0.039 H 
BRANCH   7  10
ATOM     10  C1  <0> d          -0.753   1.593  -1.232  0.00  0.00    -0.072 C 
ATOM     11  H1  <0> d          -0.242   1.241  -2.128  0.00  0.00     0.028 H 
ATOM     12  H2  <0> d          -1.775   1.215  -1.224  0.00  0.00     0.028 H 
ATOM     13  H3  <0> d          -0.767   2.683  -1.226  0.00  0.00     0.028 H 
ENDBRANCH   7  10
ENDBRANCH   1   7
BRANCH   6  14
ATOM     14  C7  <0> d          -2.130  -0.505   1.234  0.00  0.00    -0.034 C 
ATOM     15  H6  <0> d          -1.531  -1.302   1.675  0.00  0.00     0.035 H 
ATOM     16  H7  <0> d          -3.185  -0.687   1.440  0.00  0.00     0.035 H 
ATOM     17  H8  <0> d          -1.968  -0.482   0.157  0.00  0.00     0.035 H 
ENDBRANCH   6  14
BRANCH   2  18
ATOM     18  C8  <0> d           0.721   3.630   1.236  0.00  0.00    -0.034 C 
ATOM     19  H11 <0> d           0.290   4.317   0.508  0.00  0.00     0.035 H 
ATOM     20  H12 <0> d           1.212   4.198   2.026  0.00  0.00     0.035 H 
ATOM     21  H13 <0> d           1.452   2.989   0.743  0.00  0.00     0.035 H 
ENDBRANCH   2  18
BRANCH   4  22
ATOM     22  N3  <0> d          -2.619   2.882   4.589  0.00  0.00    -0.231 N 
ATOM     23  H9  <0> d          -3.322   2.346   4.989  0.00  0.00     0.174 HD
ATOM     24  H10 <0> d          -2.371   3.731   4.987  0.00  0.00     0.174 HD
ENDBRANCH   4  22
TORSDOF 5
