REMARK  4 active torsions:
REMARK  status: ('A' for Active; 'I' for Inactive)
REMARK    1  A    between atoms: C1_1  and  C2_2 
REMARK    2  A    between atoms: C2_2  and  C3_3 
REMARK    3  A    between atoms: C6_6  and  C7_9 
REMARK    4  A    between atoms: C7_9  and  C8_10 
ROOT
ATOM      1  C3  <0> d          -2.143   1.058   1.278  0.00  0.00     0.009 A 
ATOM      2  C4  <0> d          -3.201   1.630   0.669  0.00  0.00    -0.059 A 
ATOM      3  C5  <0> d          -4.325   0.821   0.928  0.00  0.00    -0.059 A 
ATOM      4  C6  <0> d          -3.912  -0.211   1.691  0.00  0.00     0.009 A 
ATOM      5  N1  <0> d          -2.573  -0.071   1.909  0.00  0.00    -0.363 N 
ATOM      6  H1  <0> d          -2.019  -0.675   2.428  0.00  0.00     0.165 HD
ATOM      7  H7  <0> d          -3.189   2.540   0.088  0.00  0.00     0.086 H 
ATOM      8  H8  <0> d          -5.333   0.996   0.581  0.00  0.00     0.086 H 
ENDROOT
BRANCH   1   9
ATOM      9  C2  <0> d          -0.729   1.579   1.267  0.00  0.00    -0.030 C 
ATOM     10  H5  <0> d          -0.202   1.218   2.150  0.00  0.00     0.041 H 
ATOM     11  H6  <0> d          -0.744   2.669   1.273  0.00  0.00     0.041 H 
BRANCH   9  12
ATOM     12  C1  <0> d          -0.013   1.086   0.008  0.00  0.00    -0.071 C 
ATOM     13  H2  <0> d           0.002  -0.004   0.002  0.00  0.00     0.028 H 
ATOM     14  H3  <0> d           1.010   1.463   0.000  0.00  0.00     0.028 H 
ATOM     15  H4  <0> d          -0.540   1.447  -0.875  0.00  0.00     0.028 H 
ENDBRANCH   9  12
ENDBRANCH   1   9
BRANCH   4  16
ATOM     16  C7  <0> d          -4.780  -1.327   2.214  0.00  0.00    -0.030 C 
ATOM     17  H9  <0> d          -5.547  -1.566   1.477  0.00  0.00     0.041 H 
ATOM     18  H10 <0> d          -4.167  -2.208   2.400  0.00  0.00     0.041 H 
BRANCH  16  19
ATOM     19  C8  <0> d          -5.447  -0.885   3.518  0.00  0.00    -0.071 C 
ATOM     20  H11 <0> d          -6.075  -1.692   3.896  0.00  0.00     0.028 H 
ATOM     21  H12 <0> d          -4.681  -0.645   4.255  0.00  0.00     0.028 H 
ATOM     22  H13 <0> d          -6.061  -0.004   3.332  0.00  0.00     0.028 H 
ENDBRANCH  16  19
ENDBRANCH   4  16
TORSDOF 4
