REMARK  4 active torsions:
REMARK  status: ('A' for Active; 'I' for Inactive)
REMARK    1  A    between atoms: C1_1  and  C2_2 
REMARK    2  A    between atoms: C5_6  and  C9_12 
REMARK    3  A    between atoms: C6_8  and  C8_11 
REMARK    4  A    between atoms: C9_12  and  O1_13 
ROOT
ATOM      1  C2  <0> d          -0.013   1.086   0.008  0.00  0.00    -0.057 C 
ATOM      2  H1  <0> d           0.002  -0.004   0.002  0.00  0.00     0.039 H 
ATOM      3  C3  <0> d          -0.753   1.593  -1.232  0.00  0.00    -0.062 C 
ATOM      4  C4  <0> d          -2.188   1.063  -1.221  0.00  0.00    -0.059 C 
ATOM      5  C5  <0> d          -2.904   1.556   0.038  0.00  0.00    -0.030 C 
ATOM      6  H2  <0> d          -2.919   2.646   0.044  0.00  0.00     0.043 H 
ATOM      7  C6  <0> d          -2.164   1.050   1.278  0.00  0.00    -0.052 C 
ATOM      8  H3  <0> d          -2.149  -0.040   1.272  0.00  0.00     0.040 H 
ATOM      9  C7  <0> d          -0.729   1.579   1.267  0.00  0.00    -0.059 C 
ATOM     10  H7  <0> d          -0.767   2.683  -1.226  0.00  0.00     0.033 H 
ATOM     11  H8  <0> d          -0.242   1.241  -2.128  0.00  0.00     0.033 H 
ATOM     12  H9  <0> d          -2.173  -0.027  -1.227  0.00  0.00     0.033 H 
ATOM     13  H10 <0> d          -2.715   1.424  -2.104  0.00  0.00     0.033 H 
ATOM     14  H11 <0> d          -0.202   1.218   2.150  0.00  0.00     0.034 H 
ATOM     15  H12 <0> d          -0.744   2.669   1.273  0.00  0.00     0.034 H 
ENDROOT
BRANCH   5  16
ATOM     16  C9  <0> d          -4.340   1.027   0.049  0.00  0.00     0.020 C 
ATOM     17  H16 <0> d          -4.327  -0.059  -0.046  0.00  0.00     0.074 H 
ATOM     18  H17 <0> d          -4.822   1.304   0.987  0.00  0.00     0.074 H 
BRANCH  16  19
ATOM     19  O1  <0> d          -5.064   1.593  -1.045  0.00  0.00    -0.400 OA
ATOM     20  H18 <0> d          -5.985   1.301  -1.100  0.00  0.00     0.209 HD
ENDBRANCH  16  19
ENDBRANCH   5  16
BRANCH   7  21
ATOM     21  C8  <0> d          -2.880   1.543   2.537  0.00  0.00    -0.072 C 
ATOM     22  H13 <0> d          -2.895   2.633   2.542  0.00  0.00     0.028 H 
ATOM     23  H14 <0> d          -3.903   1.166   2.544  0.00  0.00     0.028 H 
ATOM     24  H15 <0> d          -2.353   1.182   3.420  0.00  0.00     0.028 H 
ENDBRANCH   7  21
BRANCH   1  25
ATOM     25  C1  <0> d           1.423   1.615  -0.003  0.00  0.00    -0.073 C 
ATOM     26  H4  <0> d           1.950   1.254   0.880  0.00  0.00     0.028 H 
ATOM     27  H5  <0> d           1.933   1.264  -0.900  0.00  0.00     0.028 H 
ATOM     28  H6  <0> d           1.408   2.705   0.003  0.00  0.00     0.028 H 
ENDBRANCH   1  25
TORSDOF 4
