REMARK  2 active torsions:
REMARK  status: ('A' for Active; 'I' for Inactive)
REMARK    1  A    between atoms: C2_2  and  C3_3 
REMARK    2  A    between atoms: C3_3  and  O1_11 
ROOT
ATOM      1  C1  <0> d           2.463   0.726  -2.220  0.00  0.00    -0.151 C 
ATOM      2  C2  <0> d           1.951   1.103  -1.233  0.00  0.00    -0.079 C 
ATOM      3  H1  <0> d           2.921   0.389  -3.103  0.00  0.00     0.166 H 
ENDROOT
BRANCH   2   4
ATOM      4  C3  <0> d           1.313   1.574  -0.002  0.00  0.00     0.120 C 
ATOM      5  C10 <0> d           1.094   3.065   0.052  0.00  0.00    -0.026 C 
ATOM      6  C9  <0> d           2.052   3.959  -0.737  0.00  0.00    -0.061 C 
ATOM      7  H14 <0> d           0.073   3.275  -0.334  0.00  0.00     0.038 H 
ATOM      8  H15 <0> d           1.071   3.407   1.094  0.00  0.00     0.038 H 
ATOM      9  C8  <0> d           3.516   3.601  -0.450  0.00  0.00    -0.065 C 
ATOM     10  H12 <0> d           1.857   3.860  -1.804  0.00  0.00     0.033 H 
ATOM     11  H13 <0> d           1.884   5.001  -0.448  0.00  0.00     0.033 H 
ATOM     12  C7  <0> d           3.855   4.059   0.979  0.00  0.00    -0.065 C 
ATOM     13  H10 <0> d           3.762   2.582  -0.617  0.00  0.00     0.033 H 
ATOM     14  H11 <0> d           4.137   4.209  -1.135  0.00  0.00     0.033 H 
ATOM     15  C6  <0> d           3.310   3.081   2.003  0.00  0.00    -0.065 C 
ATOM     16  H8  <0> d           4.941   4.130   1.073  0.00  0.00     0.033 H 
ATOM     17  H9  <0> d           3.424   5.050   1.140  0.00  0.00     0.033 H 
ATOM     18  C5  <0> d           3.392   1.647   1.486  0.00  0.00    -0.061 C 
ATOM     19  H6  <0> d           3.913   3.153   2.920  0.00  0.00     0.033 H 
ATOM     20  H7  <0> d           2.285   3.328   2.270  0.00  0.00     0.033 H 
ATOM     21  C4  <0> d           2.016   1.054   1.246  0.00  0.00    -0.026 C 
ATOM     22  H4  <0> d           4.027   1.570   0.615  0.00  0.00     0.033 H 
ATOM     23  H5  <0> d           3.886   1.044   2.275  0.00  0.00     0.033 H 
ATOM     24  H2  <0> d           1.379   1.257   2.119  0.00  0.00     0.038 H 
ATOM     25  H3  <0> d           2.107  -0.039   1.167  0.00  0.00     0.038 H 
BRANCH   4  26
ATOM     26  O1  <0> d          -0.011   0.963   0.007  0.00  0.00    -0.378 OA
ATOM     27  H16 <0> d           0.002  -0.004   0.002  0.00  0.00     0.211 HD
ENDBRANCH   4  26
ENDBRANCH   2   4
TORSDOF 2
