REMARK  1 active torsions:
REMARK  status: ('A' for Active; 'I' for Inactive)
REMARK    1  A    between atoms: C5_7  and  N3_9 
ROOT
ATOM      1  C1  <0> d          -0.016   1.299   0.009  0.00  0.00     0.052 A 
ATOM      2  C2  <0> d           1.314   1.772  -0.001  0.00  0.00     0.127 A 
ATOM      3  C3  <0> d           2.149   0.640  -0.015  0.00  0.00     0.137 A 
ATOM      4  C4  <0> d           3.536   0.833  -0.028  0.00  0.00     0.249 A 
ATOM      5  O1  <0> d           4.380  -0.227  -0.042  0.00  0.00    -0.167 OA
ATOM      6  N1  <0> d           4.006   2.072  -0.026  0.00  0.00    -0.033 NA
ATOM      7  C5  <0> d           3.188   3.119  -0.012  0.00  0.00     0.723 A 
ATOM      8  N2  <0> d           1.875   2.988  -0.000  0.00  0.00    -0.059 NA
ATOM      9  N4  <0> d           1.328  -0.457  -0.013  0.00  0.00    -0.272 N 
ATOM     10  H1  <0> d           1.614  -1.384  -0.021  0.00  0.00     0.189 HD
ATOM     11  N5  <0> d           0.002  -0.004   0.002  0.00  0.00    -0.184 NA
ATOM     12  H2  <0> d          -0.902   1.916   0.025  0.00  0.00     0.121 H 
ENDROOT
BRANCH   7  13
ATOM     13  N3  <0> d           3.733   4.393  -0.011  0.00  0.00    -0.231 N 
ATOM     14  H3  <0> d           4.696   4.509  -0.020  0.00  0.00     0.174 HD
ATOM     15  H4  <0> d           3.151   5.169  -0.001  0.00  0.00     0.174 HD
ENDBRANCH   7  13
TORSDOF 1
