REMARK  4 active torsions:
REMARK  status: ('A' for Active; 'I' for Inactive)
REMARK    1  A    between atoms: C1_1  and  N1_2 
REMARK    2  A    between atoms: N1_2  and  C2_3 
REMARK    3  A    between atoms: C4_8  and  N5_12 
REMARK    4  A    between atoms: C5_9  and  N4_11 
ROOT
ATOM      1  C2  <0> d          -1.177  -0.706   0.009  0.00  0.00     0.704 A 
ATOM      2  N2  <0> d          -1.141  -2.067   0.007  0.00  0.00    -0.152 N 
ATOM      3  H1  <0> d          -0.288  -2.528   0.001  0.00  0.00     0.187 HD
ATOM      4  C3  <0> d          -2.289  -2.775   0.015  0.00  0.00     0.289 A 
ATOM      5  O1  <0> d          -2.266  -3.997   0.014  0.00  0.00    -0.265 OA
ATOM      6  C4  <0> d          -3.510  -2.085   0.025  0.00  0.00     0.141 A 
ATOM      7  C5  <0> d          -3.489  -0.696   0.027  0.00  0.00     0.172 A 
ATOM      8  N3  <0> d          -2.316  -0.050   0.024  0.00  0.00    -0.045 NA
ENDROOT
BRANCH   1   9
ATOM      9  N1  <0> d           0.002  -0.004   0.002  0.00  0.00    -0.228 N 
ATOM     10  H5  <0> d           0.849  -0.478  -0.009  0.00  0.00     0.177 HD
BRANCH   9  11
ATOM     11  C1  <0> d          -0.018   1.461   0.010  0.00  0.00    -0.005 C 
ATOM     12  H2  <0> d           1.005   1.838   0.002  0.00  0.00     0.057 H 
ATOM     13  H3  <0> d          -0.545   1.822  -0.873  0.00  0.00     0.057 H 
ATOM     14  H4  <0> d          -0.528   1.812   0.907  0.00  0.00     0.057 H 
ENDBRANCH   9  11
ENDBRANCH   1   9
BRANCH   7  15
ATOM     15  N4  <0> d          -4.676   0.017   0.037  0.00  0.00    -0.381 N 
ATOM     16  H6  <0> d          -5.524  -0.453   0.043  0.00  0.00     0.157 HD
ATOM     17  H7  <0> d          -4.659   0.987   0.038  0.00  0.00     0.157 HD
ENDBRANCH   7  15
BRANCH   6  18
ATOM     18  N5  <0> d          -4.734  -2.787   0.033  0.00  0.00    -0.392 N 
ATOM     19  H8  <0> d          -4.737  -3.757   0.032  0.00  0.00     0.156 HD
ATOM     20  H9  <0> d          -5.573  -2.300   0.040  0.00  0.00     0.156 HD
ENDBRANCH   6  18
TORSDOF 4
