REMARK  3 active torsions:
REMARK  status: ('A' for Active; 'I' for Inactive)
REMARK    1  A    between atoms: C2_2  and  C3_3 
REMARK    2  A    between atoms: C3_3  and  C4_4 
REMARK    3  A    between atoms: C4_4  and  C5_5 
ROOT
ATOM      1  C3  <0> d          -2.479   0.930   0.019  0.00  0.00    -0.042 C 
ATOM      2  H4  <0> d          -2.417   0.309  -0.875  0.00  0.00     0.039 H 
ATOM      3  H5  <0> d          -2.408   0.299   0.905  0.00  0.00     0.039 H 
ENDROOT
BRANCH   1   4
ATOM      4  C2  <0> d          -3.794   1.665   0.029  0.00  0.00    -0.112 C 
ATOM      5  C1  <0> d          -4.688   1.422  -0.897  0.00  0.00    -0.125 C 
ATOM      6  H1  <0> d          -5.630   1.950  -0.890  0.00  0.00     0.066 H 
ATOM      7  H2  <0> d          -4.482   0.695  -1.668  0.00  0.00     0.066 H 
ATOM      8  H3  <0> d          -4.000   2.393   0.800  0.00  0.00     0.075 H 
ENDBRANCH   1   4
BRANCH   1   9
ATOM      9  C4  <0> d          -1.329   1.940   0.019  0.00  0.00     0.018 C 
ATOM     10  H6  <0> d          -1.391   2.561   0.913  0.00  0.00     0.049 H 
ATOM     11  H7  <0> d          -1.400   2.570  -0.867  0.00  0.00     0.049 H 
BRANCH   9  12
ATOM     12  C5  <0> d          -0.014   1.204   0.009  0.00  0.00     0.172 C 
ATOM     13  O1  <0> d           0.002  -0.004   0.002  0.00  0.00    -0.648 OA
ATOM     14  O2  <0> d           1.139   1.891   0.001  0.00  0.00    -0.648 OA
ENDBRANCH   9  12
ENDBRANCH   1   9
TORSDOF 3
