REMARK  1 active torsions:
REMARK  status: ('A' for Active; 'I' for Inactive)
REMARK    1  A    between atoms: C8_8  and  C9_11 
ROOT
ATOM      1  C9  <0> d          -0.018   1.468   0.010  0.00  0.00     0.052 C 
ATOM      2  C10 <0> d           0.002  -0.004   0.002  0.00  0.00     0.065 C 
ATOM      3  N2  <0> d           0.018  -1.140  -0.004  0.00  0.00    -0.197 NA
ATOM      4  H7  <0> d          -0.545   1.829  -0.873  0.00  0.00     0.064 H 
ATOM      5  H8  <0> d          -0.528   1.819   0.907  0.00  0.00     0.064 H 
ENDROOT
BRANCH   1   6
ATOM      6  C8  <0> d           1.396   1.989  -0.001  0.00  0.00     0.023 A 
ATOM      7  C7  <0> d           2.160   2.166   1.089  0.00  0.00    -0.048 A 
ATOM      8  C5  <0> d           3.451   2.682   0.627  0.00  0.00    -0.008 A 
ATOM      9  H6  <0> d           1.878   1.964   2.111  0.00  0.00     0.087 H 
ATOM     10  C4  <0> d           3.349   2.788  -0.772  0.00  0.00     0.042 A 
ATOM     11  C6  <0> d           4.635   3.051   1.269  0.00  0.00    -0.071 A 
ATOM     12  C3  <0> d           4.436   3.261  -1.501  0.00  0.00    -0.056 A 
ATOM     13  N1  <0> d           2.088   2.359  -1.121  0.00  0.00    -0.358 N 
ATOM     14  C2  <0> d           5.594   3.620  -0.847  0.00  0.00    -0.081 A 
ATOM     15  H4  <0> d           4.371   3.348  -2.576  0.00  0.00     0.086 H 
ATOM     16  C1  <0> d           5.689   3.514   0.534  0.00  0.00    -0.082 A 
ATOM     17  H3  <0> d           6.436   3.988  -1.415  0.00  0.00     0.083 H 
ATOM     18  H2  <0> d           6.605   3.799   1.031  0.00  0.00     0.083 H 
ATOM     19  H1  <0> d           1.742   2.324  -2.027  0.00  0.00     0.166 HD
ATOM     20  H5  <0> d           4.716   2.972   2.343  0.00  0.00     0.084 H 
ENDBRANCH   1   6
TORSDOF 1
