REMARK  2 active torsions:
REMARK  status: ('A' for Active; 'I' for Inactive)
REMARK    1  A    between atoms: C1_1  and  C2_2 
REMARK    2  A    between atoms: C2_2  and  C3_3 
ROOT
ATOM      1  C3  <0> d           0.731  -0.503   1.223  0.00  0.00     0.041 A 
ATOM      2  C4  <0> d           0.880  -1.877   1.437  0.00  0.00    -0.044 A 
ATOM      3  C5  <0> d           1.542  -2.305   2.546  0.00  0.00    -0.016 A 
ATOM      4  N1  <0> d           2.040  -1.388   3.416  0.00  0.00    -0.317 N 
ATOM      5  C6  <0> d           1.877  -0.073   3.178  0.00  0.00     0.346 A 
ATOM      6  N2  <0> d           1.234   0.354   2.088  0.00  0.00    -0.199 NA
ATOM      7  O1  <0> d           2.328   0.741   3.966  0.00  0.00    -0.245 OA
ATOM      8  H6  <0> d           0.476  -2.588   0.732  0.00  0.00     0.088 H 
ATOM      9  H7  <0> d           1.669  -3.361   2.733  0.00  0.00     0.111 H 
ATOM     10  H8  <0> d           2.513  -1.681   4.210  0.00  0.00     0.170 HD
ENDROOT
BRANCH   1  11
ATOM     11  C2  <0> d           0.002  -0.004   0.002  0.00  0.00    -0.028 C 
ATOM     12  H4  <0> d          -1.020  -0.381   0.010  0.00  0.00     0.041 H 
ATOM     13  H5  <0> d           0.512  -0.356  -0.895  0.00  0.00     0.041 H 
BRANCH  11  14
ATOM     14  C1  <0> d          -0.019   1.526   0.010  0.00  0.00    -0.071 C 
ATOM     15  H1  <0> d           1.004   1.903   0.003  0.00  0.00     0.028 H 
ATOM     16  H2  <0> d          -0.546   1.887  -0.873  0.00  0.00     0.028 H 
ATOM     17  H3  <0> d          -0.529   1.877   0.907  0.00  0.00     0.028 H 
ENDBRANCH  11  14
ENDBRANCH   1  11
TORSDOF 2
