REMARK  1 active torsions:
REMARK  status: ('A' for Active; 'I' for Inactive)
REMARK    1  A    between atoms: C4_5  and  C5_8 
ROOT
ATOM      1  C1  <0> d          -0.018   1.466   0.010  0.00  0.00     0.132 C 
ATOM      2  C2  <0> d           1.420   1.990  -0.001  0.00  0.00     0.044 C 
ATOM      3  O1  <0> d           2.127   1.452   1.120  0.00  0.00    -0.387 OA
ATOM      4  C3  <0> d           2.167   0.023   1.143  0.00  0.00     0.057 C 
ATOM      5  C4  <0> d           0.736  -0.521   1.166  0.00  0.00     0.244 C 
ATOM      6  H1  <0> d           0.239  -0.201   2.082  0.00  0.00     0.106 H 
ATOM      7  N1  <0> d           0.002  -0.004   0.002  0.00  0.00     0.101 N 
ATOM      8  H2  <0> d          -0.527   1.818   0.907  0.00  0.00     0.082 H 
ATOM      9  H3  <0> d          -0.544   1.828  -0.873  0.00  0.00     0.082 H 
ATOM     10  H4  <0> d           1.913   1.683  -0.923  0.00  0.00     0.076 H 
ATOM     11  H5  <0> d           1.411   3.079   0.063  0.00  0.00     0.076 H 
ATOM     12  H6  <0> d           2.681  -0.342   0.254  0.00  0.00     0.078 H 
ATOM     13  H7  <0> d           2.698  -0.312   2.034  0.00  0.00     0.078 H 
ATOM     14  H8  <0> d          -0.934  -0.378  -0.030  0.00  0.00     0.316 HD
ENDROOT
BRANCH   5  15
ATOM     15  C5  <0> d           0.770  -2.050   1.111  0.00  0.00     0.420 C 
ATOM     16  F1  <0> d           1.473  -2.541   2.217  0.00  0.00    -0.169 F 
ATOM     17  F2  <0> d          -0.537  -2.547   1.132  0.00  0.00    -0.169 F 
ATOM     18  F3  <0> d           1.407  -2.461  -0.065  0.00  0.00    -0.169 F 
ENDBRANCH   5  15
TORSDOF 1
