REMARK  3 active torsions:
REMARK  status: ('A' for Active; 'I' for Inactive)
REMARK    1  A    between atoms: C1_1  and  C2_2 
REMARK    2  A    between atoms: C5_6  and  C6_8 
REMARK    3  A    between atoms: C6_8  and  C7_10 
ROOT
ATOM      1  C2  <0> d           0.002  -0.004   0.002  0.00  0.00    -0.050 A 
ATOM      2  C3  <0> d           0.009  -0.806  -1.057  0.00  0.00     0.004 A 
ATOM      3  N1  <0> d           0.028  -2.114  -0.712  0.00  0.00    -0.276 NA
ATOM      4  C4  <0> d           0.036  -2.308   0.564  0.00  0.00    -0.004 A 
ATOM      5  C5  <0> d           0.026  -0.933   1.202  0.00  0.00     0.058 A 
ATOM      6  H1  <0> d          -0.867  -0.799   1.812  0.00  0.00     0.067 H 
ATOM      7  H5  <0> d          -0.001  -0.454  -2.078  0.00  0.00     0.115 H 
ATOM      8  H6  <0> d           0.050  -3.260   1.074  0.00  0.00     0.109 H 
ENDROOT
BRANCH   5   9
ATOM      9  C6  <0> d           1.272  -0.714   2.022  0.00  0.00     0.136 C 
ATOM     10  O1  <0> d           2.263  -0.258   1.504  0.00  0.00    -0.297 OA
BRANCH   9  11
ATOM     11  C7  <0> d           1.280  -1.063   3.487  0.00  0.00    -0.020 C 
ATOM     12  H7  <0> d           1.068  -2.125   3.609  0.00  0.00     0.037 H 
ATOM     13  H8  <0> d           2.259  -0.837   3.909  0.00  0.00     0.037 H 
ATOM     14  H9  <0> d           0.518  -0.479   4.005  0.00  0.00     0.037 H 
ENDBRANCH   9  11
ENDBRANCH   5   9
BRANCH   1  15
ATOM     15  C1  <0> d          -0.018   1.503   0.010  0.00  0.00    -0.052 C 
ATOM     16  H2  <0> d           1.004   1.880   0.003  0.00  0.00     0.033 H 
ATOM     17  H3  <0> d          -0.545   1.864  -0.873  0.00  0.00     0.033 H 
ATOM     18  H4  <0> d          -0.529   1.854   0.907  0.00  0.00     0.033 H 
ENDBRANCH   1  15
TORSDOF 3
