REMARK  3 active torsions:
REMARK  status: ('A' for Active; 'I' for Inactive)
REMARK    1  A    between atoms: C1_1  and  C2_2 
REMARK    2  A    between atoms: C6_7  and  C8_10 
REMARK    3  A    between atoms: N1_8  and  C7_9 
ROOT
ATOM      1  C2  <0> d          -0.005   0.063  -0.273  0.00  0.00     0.011 A 
ATOM      2  C3  <0> d          -0.008   1.330   0.195  0.00  0.00    -0.013 A 
ATOM      3  C4  <0> d           1.224   1.970   0.466  0.00  0.00     0.175 A 
ATOM      4  O1  <0> d           1.252   3.116   0.890  0.00  0.00    -0.288 OA
ATOM      5  C5  <0> d           2.424   1.255   0.237  0.00  0.00    -0.013 A 
ATOM      6  C6  <0> d           2.359  -0.010  -0.233  0.00  0.00     0.011 A 
ATOM      7  N1  <0> d           1.162  -0.595  -0.483  0.00  0.00    -0.359 N 
ATOM      8  H4  <0> d          -0.941   1.851   0.356  0.00  0.00     0.092 H 
ATOM      9  H5  <0> d           3.380   1.716   0.435  0.00  0.00     0.092 H 
ENDROOT
BRANCH   1  10
ATOM     10  C1  <0> d          -1.313  -0.627  -0.565  0.00  0.00    -0.037 C 
ATOM     11  H1  <0> d          -1.538  -0.545  -1.628  0.00  0.00     0.035 H 
ATOM     12  H2  <0> d          -1.238  -1.679  -0.290  0.00  0.00     0.035 H 
ATOM     13  H3  <0> d          -2.109  -0.157   0.012  0.00  0.00     0.035 H 
ENDBRANCH   1  10
BRANCH   7  14
ATOM     14  C7  <0> d           1.128  -1.968  -0.992  0.00  0.00    -0.014 C 
ATOM     15  H6  <0> d           1.202  -1.955  -2.080  0.00  0.00     0.057 H 
ATOM     16  H7  <0> d           1.966  -2.529  -0.578  0.00  0.00     0.057 H 
ATOM     17  H8  <0> d           0.192  -2.442  -0.697  0.00  0.00     0.057 H 
ENDBRANCH   7  14
BRANCH   6  18
ATOM     18  C8  <0> d           3.631  -0.779  -0.480  0.00  0.00    -0.037 C 
ATOM     19  H9  <0> d           3.907  -0.696  -1.531  0.00  0.00     0.035 H 
ATOM     20  H10 <0> d           4.429  -0.370   0.139  0.00  0.00     0.035 H 
ATOM     21  H11 <0> d           3.476  -1.828  -0.227  0.00  0.00     0.035 H 
ENDBRANCH   6  18
TORSDOF 3
