REMARK  1 active torsions:
REMARK  status: ('A' for Active; 'I' for Inactive)
REMARK    1  A    between atoms: C4_5  and  C6_7 
ROOT
ATOM      1  C6  <0> d           1.250  -2.168  -0.023  0.00  0.00     0.093 C 
ATOM      2  C7  <0> d           0.712  -2.787  -1.323  0.00  0.00    -0.040 C 
ATOM      3  C8  <0> d           1.855  -3.810  -1.217  0.00  0.00    -0.061 C 
ATOM      4  C9  <0> d           2.621  -2.752  -0.405  0.00  0.00    -0.040 C 
ATOM      5  C10 <0> d           0.676  -2.759   1.196  0.00  0.00     0.075 C 
ATOM      6  N2  <0> d           0.233  -3.216   2.137  0.00  0.00    -0.196 NA
ATOM      7  H5  <0> d          -0.279  -3.228  -1.219  0.00  0.00     0.036 H 
ATOM      8  H6  <0> d           0.794  -2.128  -2.188  0.00  0.00     0.036 H 
ATOM      9  H7  <0> d           1.595  -4.698  -0.641  0.00  0.00     0.033 H 
ATOM     10  H8  <0> d           2.320  -4.046  -2.174  0.00  0.00     0.033 H 
ATOM     11  H9  <0> d           3.225  -2.083  -1.018  0.00  0.00     0.036 H 
ATOM     12  H10 <0> d           3.171  -3.164   0.441  0.00  0.00     0.036 H 
ENDROOT
BRANCH   1  13
ATOM     13  C4  <0> d           1.218  -0.661  -0.014  0.00  0.00     0.057 A 
ATOM     14  N1  <0> d           2.350   0.015  -0.021  0.00  0.00    -0.264 NA
ATOM     15  C3  <0> d           2.370   1.334  -0.013  0.00  0.00     0.003 A 
ATOM     16  C2  <0> d           1.194   2.059   0.002  0.00  0.00    -0.066 A 
ATOM     17  H3  <0> d           3.317   1.853  -0.020  0.00  0.00     0.114 H 
ATOM     18  C1  <0> d          -0.017   1.382   0.010  0.00  0.00    -0.080 A 
ATOM     19  H2  <0> d           1.217   3.138   0.007  0.00  0.00     0.085 H 
ATOM     20  C5  <0> d           0.002  -0.004   0.002  0.00  0.00    -0.057 A 
ATOM     21  H1  <0> d          -0.952   1.922   0.026  0.00  0.00     0.083 H 
ATOM     22  H4  <0> d          -0.922  -0.564   0.008  0.00  0.00     0.086 H 
ENDBRANCH   1  13
TORSDOF 1
