REMARK  4 active torsions:
REMARK  status: ('A' for Active; 'I' for Inactive)
REMARK    1  A    between atoms: C1_1  and  O1_2 
REMARK    2  A    between atoms: O1_2  and  C2_3 
REMARK    3  A    between atoms: C5_7  and  O2_9 
REMARK    4  A    between atoms: O2_9  and  C6_10 
ROOT
ATOM      1  C2  <0> d           1.182   2.056   0.002  0.00  0.00     0.169 A 
ATOM      2  C3  <0> d           1.247   3.449   0.009  0.00  0.00    -0.015 A 
ATOM      3  C4  <0> d           2.492   4.050  -0.000  0.00  0.00     0.011 A 
ATOM      4  N1  <0> d           3.577   3.290  -0.015  0.00  0.00    -0.219 NA
ATOM      5  C5  <0> d           3.483   1.971  -0.021  0.00  0.00     0.270 A 
ATOM      6  N2  <0> d           2.311   1.358  -0.007  0.00  0.00    -0.183 NA
ATOM      7  H4  <0> d           0.346   4.045   0.021  0.00  0.00     0.092 H 
ATOM      8  H5  <0> d           2.578   5.126   0.005  0.00  0.00     0.115 H 
ENDROOT
BRANCH   1   9
ATOM      9  O1  <0> d          -0.017   1.425   0.010  0.00  0.00    -0.339 OA
BRANCH   9  10
ATOM     10  C1  <0> d           0.002  -0.004   0.002  0.00  0.00     0.012 C 
ATOM     11  H1  <0> d           0.529  -0.365   0.885  0.00  0.00     0.067 H 
ATOM     12  H2  <0> d          -1.020  -0.381   0.010  0.00  0.00     0.067 H 
ATOM     13  H3  <0> d           0.512  -0.356  -0.895  0.00  0.00     0.067 H 
ENDBRANCH   9  10
ENDBRANCH   1   9
BRANCH   5  14
ATOM     14  O2  <0> d           4.616   1.228  -0.036  0.00  0.00    -0.324 OA
BRANCH  14  15
ATOM     15  C6  <0> d           5.856   1.938  -0.044  0.00  0.00     0.013 C 
ATOM     16  H6  <0> d           6.682   1.226  -0.055  0.00  0.00     0.067 H 
ATOM     17  H7  <0> d           5.908   2.569  -0.931  0.00  0.00     0.067 H 
ATOM     18  H8  <0> d           5.925   2.559   0.849  0.00  0.00     0.067 H 
ENDBRANCH  14  15
ENDBRANCH   5  14
TORSDOF 4
