REMARK  1 active torsions:
REMARK  status: ('A' for Active; 'I' for Inactive)
REMARK    1  A    between atoms: C1_1  and  C2_2 
ROOT
ATOM      1  C2  <0> d           0.002  -0.004   0.002  0.00  0.00    -0.054 C 
ATOM      2  H1  <0> d          -1.019  -0.384   0.010  0.00  0.00     0.039 H 
ATOM      3  C3  <0> d           0.729  -0.503  -1.254  0.00  0.00    -0.059 C 
ATOM      4  C4  <0> d           0.579  -2.024  -1.327  0.00  0.00    -0.050 C 
ATOM      5  C5  <0> d           0.942  -2.643  -0.009  0.00  0.00    -0.106 C 
ATOM      6  C6  <0> d           1.014  -1.988   1.105  0.00  0.00    -0.106 C 
ATOM      7  C7  <0> d           0.750  -0.515   1.235  0.00  0.00    -0.047 C 
ATOM      8  H5  <0> d           0.284  -0.048  -2.139  0.00  0.00     0.033 H 
ATOM      9  H6  <0> d           1.785  -0.241  -1.194  0.00  0.00     0.033 H 
ATOM     10  H7  <0> d          -0.453  -2.274  -1.572  0.00  0.00     0.038 H 
ATOM     11  H8  <0> d           1.237  -2.415  -2.103  0.00  0.00     0.038 H 
ATOM     12  H9  <0> d           1.155  -3.702   0.012  0.00  0.00     0.076 H 
ATOM     13  H10 <0> d           1.277  -2.535   1.998  0.00  0.00     0.076 H 
ATOM     14  H11 <0> d           1.700   0.012   1.326  0.00  0.00     0.039 H 
ATOM     15  H12 <0> d           0.150  -0.329   2.125  0.00  0.00     0.039 H 
ENDROOT
BRANCH   1  16
ATOM     16  C1  <0> d          -0.019   1.526   0.010  0.00  0.00    -0.073 C 
ATOM     17  H2  <0> d           1.004   1.903   0.003  0.00  0.00     0.028 H 
ATOM     18  H3  <0> d          -0.546   1.887  -0.873  0.00  0.00     0.028 H 
ATOM     19  H4  <0> d          -0.529   1.877   0.907  0.00  0.00     0.028 H 
ENDBRANCH   1  16
TORSDOF 1
