REMARK  6 active torsions:
REMARK  status: ('A' for Active; 'I' for Inactive)
REMARK    1  A    between atoms: C1_1  and  C2_2 
REMARK    2  A    between atoms: C1_1  and  O4_11 
REMARK    3  A    between atoms: C2_2  and  C3_4 
REMARK    4  A    between atoms: C2_2  and  O3_10 
REMARK    5  A    between atoms: C3_4  and  C4_6 
REMARK    6  A    between atoms: C3_4  and  O2_9 
REMARK       I    between atoms: C4_6  and  N1_8 
ROOT
ATOM      1  C2  <0> d          -1.471   2.718   1.331  0.00  0.00     0.089 C 
ATOM      2  H1  <0> d          -0.706   3.494   1.380  0.00  0.00     0.090 H 
ENDROOT
BRANCH   1   3
ATOM      3  C1  <0> d          -2.857   3.364   1.396  0.00  0.00     0.043 C 
ATOM      4  H3  <0> d          -3.013   3.978   0.510  0.00  0.00     0.078 H 
ATOM      5  H4  <0> d          -3.618   2.585   1.437  0.00  0.00     0.078 H 
BRANCH   3   6
ATOM      6  O4  <0> d          -2.947   4.181   2.565  0.00  0.00    -0.398 OA
ATOM      7  H9  <0> d          -3.801   4.622   2.671  0.00  0.00     0.209 HD
ENDBRANCH   3   6
ENDBRANCH   1   3
BRANCH   1   8
ATOM      8  C3  <0> d          -1.330   1.944   0.019  0.00  0.00     0.138 C 
ATOM      9  H2  <0> d          -1.363   2.641  -0.819  0.00  0.00     0.102 H 
BRANCH   8  10
ATOM     10  C4  <0> d          -0.014   1.209   0.009  0.00  0.00     0.246 C 
ATOM     11  O1  <0> d           0.002  -0.004   0.002  0.00  0.00    -0.271 OA
ATOM     12  N1  <0> d           1.143   1.898   0.001  0.00  0.00    -0.368 N 
ATOM     13  H5  <0> d           1.990   1.425  -0.009  0.00  0.00     0.159 HD
ATOM     14  H6  <0> d           1.130   2.868   0.007  0.00  0.00     0.159 HD
ENDBRANCH   8  10
BRANCH   8  15
ATOM     15  O2  <0> d          -2.401   1.006  -0.099  0.00  0.00    -0.383 OA
ATOM     16  H7  <0> d          -2.433   0.354   0.615  0.00  0.00     0.210 HD
ENDBRANCH   8  15
ENDBRANCH   1   8
BRANCH   1  17
ATOM     17  O3  <0> d          -1.311   1.822   2.433  0.00  0.00    -0.390 OA
ATOM     18  H8  <0> d          -1.959   1.104   2.453  0.00  0.00     0.210 HD
ENDBRANCH   1  17
TORSDOF 6
