REMARK  3 active torsions:
REMARK  status: ('A' for Active; 'I' for Inactive)
REMARK    1  A    between atoms: C1_1  and  C2_2 
REMARK    2  A    between atoms: C4_5  and  O2_11 
REMARK    3  A    between atoms: C6_7  and  C7_10 
ROOT
ATOM      1  C2  <0> d           0.002  -0.004   0.002  0.00  0.00     0.038 C 
ATOM      2  H1  <0> d          -1.020  -0.382   0.010  0.00  0.00     0.082 H 
ATOM      3  C3  <0> d           0.719  -0.498  -1.257  0.00  0.00    -0.017 C 
ATOM      4  C4  <0> d           2.172  -0.014  -1.231  0.00  0.00     0.040 C 
ATOM      5  C5  <0> d           2.842  -0.512   0.053  0.00  0.00    -0.017 C 
ATOM      6  C6  <0> d           2.043  -0.018   1.261  0.00  0.00     0.038 C 
ATOM      7  H2  <0> d           2.055   1.072   1.284  0.00  0.00     0.082 H 
ATOM      8  O1  <0> d           0.694  -0.478   1.159  0.00  0.00    -0.381 OA
ATOM      9  H6  <0> d           0.699  -1.587  -1.284  0.00  0.00     0.040 H 
ATOM     10  H7  <0> d           0.219  -0.101  -2.141  0.00  0.00     0.040 H 
ATOM     11  H8  <0> d           2.194   1.076  -1.254  0.00  0.00     0.083 H 
ATOM     12  H9  <0> d           2.865  -1.602   0.052  0.00  0.00     0.040 H 
ATOM     13  H10 <0> d           3.860  -0.126   0.106  0.00  0.00     0.040 H 
ENDROOT
BRANCH   1  14
ATOM     14  C1  <0> d          -0.019   1.526   0.010  0.00  0.00    -0.052 C 
ATOM     15  H3  <0> d           1.004   1.903   0.003  0.00  0.00     0.030 H 
ATOM     16  H4  <0> d          -0.546   1.887  -0.873  0.00  0.00     0.030 H 
ATOM     17  H5  <0> d          -0.529   1.877   0.907  0.00  0.00     0.030 H 
ENDBRANCH   1  14
BRANCH   6  18
ATOM     18  C7  <0> d           2.672  -0.562   2.546  0.00  0.00    -0.052 C 
ATOM     19  H11 <0> d           3.701  -0.211   2.623  0.00  0.00     0.030 H 
ATOM     20  H12 <0> d           2.103  -0.209   3.406  0.00  0.00     0.030 H 
ATOM     21  H13 <0> d           2.659  -1.651   2.523  0.00  0.00     0.030 H 
ENDBRANCH   6  18
BRANCH   4  22
ATOM     22  O2  <0> d           2.869  -0.531  -2.366  0.00  0.00    -0.395 OA
ATOM     23  H14 <0> d           3.797  -0.264  -2.414  0.00  0.00     0.210 HD
ENDBRANCH   4  22
TORSDOF 3
