REMARK  2 active torsions:
REMARK  status: ('A' for Active; 'I' for Inactive)
REMARK    1  A    between atoms: C2_2  and  C4_8 
REMARK    2  A    between atoms: C3_3  and  N3_7 
ROOT
ATOM      1  C1  <0> d           0.135   3.942   0.022  0.00  0.00     0.042 A 
ATOM      2  C2  <0> d           1.239   3.056   0.007  0.00  0.00     0.104 A 
ATOM      3  C3  <0> d           2.390   3.842   0.005  0.00  0.00     0.134 A 
ATOM      4  N1  <0> d           1.991   5.130   0.010  0.00  0.00    -0.262 N 
ATOM      5  H1  <0> d           2.594   5.928   0.005  0.00  0.00     0.191 HD
ATOM      6  N2  <0> d           0.593   5.162   0.024  0.00  0.00    -0.184 NA
ATOM      7  H2  <0> d          -0.906   3.656   0.031  0.00  0.00     0.119 H 
ENDROOT
BRANCH   2   8
ATOM      8  C4  <0> d           1.182   1.591  -0.001  0.00  0.00     0.214 C 
ATOM      9  O1  <0> d           2.211   0.943  -0.014  0.00  0.00    -0.644 OA
ATOM     10  O2  <0> d          -0.011   0.963   0.007  0.00  0.00    -0.644 OA
ENDBRANCH   2   8
BRANCH   3  11
ATOM     11  N3  <0> d           3.693   3.387  -0.003  0.00  0.00    -0.383 N 
ATOM     12  H3  <0> d           3.874   2.434  -0.009  0.00  0.00     0.157 HD
ATOM     13  H4  <0> d           4.428   4.021  -0.003  0.00  0.00     0.157 HD
ENDBRANCH   3  11
TORSDOF 2
