REMARK  5 active torsions:
REMARK  status: ('A' for Active; 'I' for Inactive)
REMARK    1  A    between atoms: C1_1  and  N1_2 
REMARK    2  A    between atoms: N1_2  and  C2_3 
REMARK    3  A    between atoms: N1_2  and  C3_4 
REMARK    4  A    between atoms: C4_6  and  N6_11 
REMARK    5  A    between atoms: C5_8  and  N5_10 
ROOT
ATOM      1  C3  <0> d           1.126   2.005   0.002  0.00  0.00     0.755 A 
ATOM      2  N2  <0> d          -0.016   1.325   0.009  0.00  0.00     0.131 NA
ATOM      3  C4  <0> d           0.002  -0.004   0.002  0.00  0.00     0.751 A 
ATOM      4  N3  <0> d           1.162  -0.653  -0.013  0.00  0.00     0.130 NA
ATOM      5  C5  <0> d           2.304   0.027  -0.020  0.00  0.00     0.751 A 
ATOM      6  N4  <0> d           2.286   1.357  -0.013  0.00  0.00     0.131 NA
ENDROOT
BRANCH   1   7
ATOM      7  N1  <0> d           1.107   3.385   0.010  0.00  0.00    -0.222 N 
BRANCH   7   8
ATOM      8  C1  <0> d          -0.171   4.101   0.026  0.00  0.00    -0.003 C 
ATOM      9  H1  <0> d          -0.478   4.272   1.057  0.00  0.00     0.057 H 
ATOM     10  H2  <0> d          -0.059   5.057  -0.484  0.00  0.00     0.057 H 
ATOM     11  H3  <0> d          -0.927   3.504  -0.484  0.00  0.00     0.057 H 
ENDBRANCH   7   8
BRANCH   7  12
ATOM     12  C2  <0> d           2.366   4.135   0.002  0.00  0.00    -0.003 C 
ATOM     13  H4  <0> d           3.204   3.438  -0.010  0.00  0.00     0.057 H 
ATOM     14  H5  <0> d           2.407   4.767  -0.885  0.00  0.00     0.057 H 
ATOM     15  H6  <0> d           2.424   4.758   0.894  0.00  0.00     0.057 H 
ENDBRANCH   7  12
ENDBRANCH   1   7
BRANCH   5  16
ATOM     16  N5  <0> d           3.509  -0.646  -0.035  0.00  0.00    -0.230 N 
ATOM     17  H7  <0> d           3.522  -1.616  -0.040  0.00  0.00     0.174 HD
ATOM     18  H8  <0> d           4.342  -0.150  -0.040  0.00  0.00     0.174 HD
ENDBRANCH   5  16
BRANCH   3  19
ATOM     19  N6  <0> d          -1.184  -0.710   0.009  0.00  0.00    -0.230 N 
ATOM     20  H9  <0> d          -2.030  -0.237   0.019  0.00  0.00     0.174 HD
ATOM     21  H10 <0> d          -1.171  -1.680   0.004  0.00  0.00     0.174 HD
ENDBRANCH   3  19
TORSDOF 5
