REMARK  1 active torsions:
REMARK  status: ('A' for Active; 'I' for Inactive)
REMARK    1  A    between atoms: C1_1  and  C2_2 
ROOT
ATOM      1  C2  <0> d          -0.017   1.382   0.010  0.00  0.00     0.050 A 
ATOM      2  C3  <0> d           0.002  -0.004   0.002  0.00  0.00     0.027 A 
ATOM      3  N1  <0> d           1.151  -0.651  -0.013  0.00  0.00    -0.245 NA
ATOM      4  C4  <0> d           2.295   0.028  -0.020  0.00  0.00     0.176 A 
ATOM      5  C5  <0> d           2.273   1.425  -0.012  0.00  0.00     0.165 A 
ATOM      6  N2  <0> d           1.116   2.064   0.003  0.00  0.00    -0.237 NA
ATOM      7 Cl1  <0> d           3.760   2.320  -0.021  0.00  0.00    -0.059 Cl
ATOM      8  C6  <0> d           3.545  -0.671  -0.036  0.00  0.00     0.123 C 
ATOM      9  N3  <0> d           4.537  -1.225  -0.049  0.00  0.00    -0.190 NA
ATOM     10  H4  <0> d          -0.927  -0.555   0.008  0.00  0.00     0.117 H 
ENDROOT
BRANCH   1  11
ATOM     11  C1  <0> d          -1.333   2.115   0.020  0.00  0.00    -0.034 C 
ATOM     12  H1  <0> d          -1.646   2.286   1.050  0.00  0.00     0.035 H 
ATOM     13  H2  <0> d          -1.221   3.072  -0.489  0.00  0.00     0.035 H 
ATOM     14  H3  <0> d          -2.086   1.517  -0.494  0.00  0.00     0.035 H 
ENDBRANCH   1  11
TORSDOF 1
