REMARK  5 active torsions:
REMARK  status: ('A' for Active; 'I' for Inactive)
REMARK    1  A    between atoms: C1_1  and  C2_2 
REMARK    2  A    between atoms: C2_2  and  C3_3 
REMARK    3  A    between atoms: C3_3  and  C4_4 
REMARK    4  A    between atoms: C4_4  and  C5_5 
REMARK    5  A    between atoms: C6_6  and  C8_11 
ROOT
ATOM      1  C4  <0> d           1.961  -1.755  -0.026  0.00  0.00    -0.033 C 
ATOM      2  H8  <0> d           2.966  -1.723  -0.474  0.00  0.00     0.040 H 
ATOM      3  H9  <0> d           1.317  -2.422  -0.618  0.00  0.00     0.040 H 
ENDROOT
BRANCH   1   4
ATOM      4  C3  <0> d           2.059  -2.281   1.407  0.00  0.00    -0.061 C 
ATOM      5  H6  <0> d           1.055  -2.314   1.855  0.00  0.00     0.033 H 
ATOM      6  H7  <0> d           2.704  -1.614   1.999  0.00  0.00     0.033 H 
BRANCH   4   7
ATOM      7  C2  <0> d           2.658  -3.689   1.394  0.00  0.00    -0.068 C 
ATOM      8  H4  <0> d           3.662  -3.657   0.946  0.00  0.00     0.032 H 
ATOM      9  H5  <0> d           2.014  -4.356   0.802  0.00  0.00     0.032 H 
BRANCH   7  10
ATOM     10  C1  <0> d           2.756  -4.215   2.827  0.00  0.00    -0.077 C 
ATOM     11  H1  <0> d           3.186  -5.228   2.818  0.00  0.00     0.027 H 
ATOM     12  H2  <0> d           1.752  -4.248   3.276  0.00  0.00     0.027 H 
ATOM     13  H3  <0> d           3.400  -3.549   3.419  0.00  0.00     0.027 H 
ENDBRANCH   7  10
ENDBRANCH   4   7
ENDBRANCH   1   4
BRANCH   1  14
ATOM     14  C5  <0> d           1.372  -0.368  -0.013  0.00  0.00     0.045 A 
ATOM     15  C7  <0> d           0.002  -0.004   0.002  0.00  0.00     0.298 A 
ATOM     16  N1  <0> d          -0.016   1.344   0.009  0.00  0.00    -0.084 NA
ATOM     17  O2  <0> d          -0.960  -0.755   0.007  0.00  0.00    -0.264 OA
ATOM     18  O1  <0> d           1.110   1.785   0.001  0.00  0.00    -0.214 OA
ATOM     19  C6  <0> d           2.030   0.816  -0.013  0.00  0.00     0.087 A 
BRANCH  19  20
ATOM     20  C8  <0> d           3.525   1.005  -0.027  0.00  0.00    -0.029 C 
ATOM     21  H10 <0> d           3.758   2.080  -0.023  0.00  0.00     0.036 H 
ATOM     22  H11 <0> d           3.945   0.542  -0.932  0.00  0.00     0.036 H 
ATOM     23  H12 <0> d           3.963   0.531   0.864  0.00  0.00     0.036 H 
ENDBRANCH  19  20
ENDBRANCH   1  14
TORSDOF 5
