REMARK  1 active torsions:
REMARK  status: ('A' for Active; 'I' for Inactive)
REMARK    1  A    between atoms: C7_7  and  N2_11 
ROOT
ATOM      1  C1  <0> d          -0.017   1.362   0.009  0.00  0.00    -0.082 A 
ATOM      2  C2  <0> d           1.170   2.083   0.002  0.00  0.00    -0.081 A 
ATOM      3  C3  <0> d           2.385   1.436  -0.013  0.00  0.00    -0.056 A 
ATOM      4  C4  <0> d           2.428   0.045  -0.021  0.00  0.00     0.044 A 
ATOM      5  C5  <0> d           1.223  -0.681  -0.013  0.00  0.00     0.018 A 
ATOM      6  C6  <0> d           0.002  -0.004   0.002  0.00  0.00    -0.069 A 
ATOM      7  C7  <0> d           1.601  -2.099  -0.025  0.00  0.00     0.053 A 
ATOM      8  C8  <0> d           2.946  -2.147  -0.039  0.00  0.00     0.004 A 
ATOM      9  N1  <0> d           3.457  -0.870  -0.037  0.00  0.00    -0.363 N 
ATOM     10  H1  <0> d           4.401  -0.647  -0.045  0.00  0.00     0.165 HD
ATOM     11  H2  <0> d          -0.961   1.885   0.026  0.00  0.00     0.083 H 
ATOM     12  H3  <0> d           1.139   3.163   0.008  0.00  0.00     0.083 H 
ATOM     13  H4  <0> d           3.303   2.006  -0.020  0.00  0.00     0.086 H 
ATOM     14  H5  <0> d          -0.925  -0.558   0.008  0.00  0.00     0.085 H 
ATOM     15  H6  <0> d           3.535  -3.052  -0.050  0.00  0.00     0.114 H 
ENDROOT
BRANCH   7  16
ATOM     16  N2  <0> d           0.723  -3.199  -0.023  0.00  0.00    -0.397 N 
ATOM     17  H7  <0> d          -0.236  -3.055  -0.012  0.00  0.00     0.156 HD
ATOM     18  H8  <0> d           1.077  -4.102  -0.032  0.00  0.00     0.156 HD
ENDBRANCH   7  16
TORSDOF 1
