REMARK  2 active torsions:
REMARK  status: ('A' for Active; 'I' for Inactive)
REMARK    1  A    between atoms: C3_3  and  O2_10 
REMARK    2  A    between atoms: C7_8  and  N1_9 
ROOT
ATOM      1  C1  <0> d          -1.270   1.662   0.018  0.00  0.00    -0.055 A 
ATOM      2  C2  <0> d          -0.013   1.076   0.008  0.00  0.00    -0.045 A 
ATOM      3  C3  <0> d           1.227   1.694  -0.001  0.00  0.00     0.115 A 
ATOM      4  C4  <0> d           1.515   3.077   0.004  0.00  0.00     0.204 A 
ATOM      5  O1  <0> d           2.703   3.374  -0.005  0.00  0.00    -0.285 OA
ATOM      6  C5  <0> d           0.613   4.157   0.018  0.00  0.00    -0.030 A 
ATOM      7  C6  <0> d          -0.750   4.124   0.031  0.00  0.00    -0.054 A 
ATOM      8  C7  <0> d          -1.601   3.011   0.034  0.00  0.00     0.025 A 
ATOM      9  H1  <0> d          -2.105   0.976   0.018  0.00  0.00     0.087 H 
ATOM     10  H2  <0> d           0.002  -0.004   0.002  0.00  0.00     0.088 H 
ATOM     11  H3  <0> d           1.058   5.141   0.019  0.00  0.00     0.089 H 
ATOM     12  H4  <0> d          -1.241   5.087   0.042  0.00  0.00     0.087 H 
ENDROOT
BRANCH   8  13
ATOM     13  N1  <0> d          -2.959   3.294   0.048  0.00  0.00    -0.399 N 
ATOM     14  H5  <0> d          -3.262   4.216   0.056  0.00  0.00     0.156 HD
ATOM     15  H6  <0> d          -3.605   2.571   0.050  0.00  0.00     0.156 HD
ENDBRANCH   8  13
BRANCH   3  16
ATOM     16  O2  <0> d           2.301   0.866  -0.016  0.00  0.00    -0.357 OA
ATOM     17  H7  <0> d           2.604   0.631  -0.903  0.00  0.00     0.218 HD
ENDBRANCH   3  16
TORSDOF 2
