REMARK  5 active torsions:
REMARK  status: ('A' for Active; 'I' for Inactive)
REMARK    1  A    between atoms: C1_1  and  C2_2 
REMARK    2  A    between atoms: C2_2  and  C3_3 
REMARK    3  A    between atoms: C3_3  and  C4_4 
REMARK    4  A    between atoms: C4_4  and  C5_6 
REMARK    5  A    between atoms: C4_4  and  O1_8 
ROOT
ATOM      1  C5  <0> d          -0.702   1.560   1.219  0.00  0.00    -0.086 C 
ATOM      2  C6  <0> d          -1.251   1.939   2.185  0.00  0.00    -0.151 C 
ATOM      3  H9  <0> d          -1.743   2.278   3.049  0.00  0.00     0.166 H 
ENDROOT
BRANCH   1   4
ATOM      4  C4  <0> d          -0.013   1.086   0.008  0.00  0.00     0.093 C 
ATOM      5  H1  <0> d           0.002  -0.004   0.002  0.00  0.00     0.103 H 
BRANCH   4   6
ATOM      6  C3  <0> d           1.423   1.615  -0.003  0.00  0.00    -0.031 C 
ATOM      7  H7  <0> d           1.408   2.702  -0.086  0.00  0.00     0.038 H 
ATOM      8  H8  <0> d           1.923   1.329   0.922  0.00  0.00     0.038 H 
BRANCH   6   9
ATOM      9  C2  <0> d           2.176   1.022  -1.195  0.00  0.00    -0.065 C 
ATOM     10  H5  <0> d           2.191  -0.065  -1.111  0.00  0.00     0.032 H 
ATOM     11  H6  <0> d           1.676   1.309  -2.120  0.00  0.00     0.032 H 
BRANCH   9  12
ATOM     12  C1  <0> d           3.612   1.552  -1.206  0.00  0.00    -0.076 C 
ATOM     13  H2  <0> d           4.148   1.129  -2.055  0.00  0.00     0.027 H 
ATOM     14  H3  <0> d           3.597   2.638  -1.289  0.00  0.00     0.027 H 
ATOM     15  H4  <0> d           4.112   1.265  -0.281  0.00  0.00     0.027 H 
ENDBRANCH   9  12
ENDBRANCH   6   9
ENDBRANCH   4   6
BRANCH   4  16
ATOM     16  O1  <0> d          -0.704   1.559  -1.150  0.00  0.00    -0.383 OA
ATOM     17  H10 <0> d          -0.756   2.523  -1.210  0.00  0.00     0.211 HD
ENDBRANCH   4  16
ENDBRANCH   1   4
TORSDOF 5
