REMARK  4 active torsions:
REMARK  status: ('A' for Active; 'I' for Inactive)
REMARK    1  A    between atoms: C1_1  and  C2_2 
REMARK    2  A    between atoms: C5_5  and  C8_9 
REMARK    3  A    between atoms: C7_7  and  O1_8 
REMARK    4  A    between atoms: C8_9  and  C9_11 
ROOT
ATOM      1  C2  <0> d          -3.716   3.287   0.038  0.00  0.00    -0.029 A 
ATOM      2  C3  <0> d          -2.527   3.994   0.036  0.00  0.00    -0.074 A 
ATOM      3  C4  <0> d          -1.321   3.325   0.032  0.00  0.00    -0.069 A 
ATOM      4  C5  <0> d          -1.299   1.927   0.019  0.00  0.00     0.012 A 
ATOM      5  C6  <0> d          -2.502   1.215   0.021  0.00  0.00    -0.037 A 
ATOM      6  C7  <0> d          -3.705   1.898   0.030  0.00  0.00     0.072 A 
ATOM      7  H4  <0> d          -2.544   5.074   0.042  0.00  0.00     0.084 H 
ATOM      8  H5  <0> d          -0.395   3.881   0.035  0.00  0.00     0.085 H 
ATOM      9  H6  <0> d          -2.492   0.135   0.015  0.00  0.00     0.089 H 
ENDROOT
BRANCH   4  10
ATOM     10  C8  <0> d          -0.014   1.208   0.009  0.00  0.00     0.155 C 
ATOM     11  O2  <0> d           0.002  -0.004   0.002  0.00  0.00    -0.293 OA
BRANCH  10  12
ATOM     12  C9  <0> d           1.280   1.980   0.001  0.00  0.00    -0.017 C 
ATOM     13  H8  <0> d           2.049   1.340  -0.010  0.00  0.00     0.038 H 
ATOM     14  H9  <0> d           1.321   2.612  -0.887  0.00  0.00     0.038 H 
ATOM     15  H10 <0> d           1.338   2.602   0.893  0.00  0.00     0.038 H 
ENDBRANCH  10  12
ENDBRANCH   4  10
BRANCH   6  16
ATOM     16  O1  <0> d          -4.877   1.210   0.032  0.00  0.00    -0.360 OA
ATOM     17  H7  <0> d          -5.212   1.006   0.916  0.00  0.00     0.217 HD
ENDBRANCH   6  16
BRANCH   1  18
ATOM     18  C1  <0> d          -5.029   4.027   0.048  0.00  0.00    -0.049 C 
ATOM     19  H1  <0> d          -5.341   4.199   1.078  0.00  0.00     0.033 H 
ATOM     20  H2  <0> d          -4.911   4.983  -0.461  0.00  0.00     0.033 H 
ATOM     21  H3  <0> d          -5.785   3.432  -0.465  0.00  0.00     0.033 H 
ENDBRANCH   1  18
TORSDOF 4
