REMARK  3 active torsions:
REMARK  status: ('A' for Active; 'I' for Inactive)
REMARK    1  A    between atoms: C1_1  and  C2_2 
REMARK    2  A    between atoms: C2_2  and  C3_3 
REMARK    3  A    between atoms: C7_7  and  O1_9 
ROOT
ATOM      1  C3  <0> d           3.096   2.409  -1.213  0.00  0.00    -0.056 A 
ATOM      2  C4  <0> d           3.734   2.692  -0.019  0.00  0.00    -0.077 A 
ATOM      3  C5  <0> d           3.119   2.397   1.183  0.00  0.00    -0.080 A 
ATOM      4  C6  <0> d           1.863   1.822   1.195  0.00  0.00    -0.051 A 
ATOM      5  C7  <0> d           1.223   1.532  -0.001  0.00  0.00     0.066 A 
ATOM      6  C8  <0> d           1.842   1.830  -1.207  0.00  0.00    -0.045 A 
ATOM      7  H6  <0> d           4.715   3.145  -0.026  0.00  0.00     0.084 H 
ATOM      8  H7  <0> d           3.619   2.619   2.114  0.00  0.00     0.083 H 
ATOM      9  H8  <0> d           1.381   1.596   2.134  0.00  0.00     0.087 H 
ATOM     10  H9  <0> d           1.344   1.609  -2.139  0.00  0.00     0.088 H 
ENDROOT
BRANCH   1  11
ATOM     11  C2  <0> d           3.770   2.733  -2.522  0.00  0.00    -0.044 C 
ATOM     12  H4  <0> d           4.851   2.664  -2.401  0.00  0.00     0.039 H 
ATOM     13  H5  <0> d           3.444   2.024  -3.283  0.00  0.00     0.039 H 
BRANCH  11  14
ATOM     14  C1  <0> d           3.393   4.152  -2.952  0.00  0.00    -0.073 C 
ATOM     15  H1  <0> d           3.880   4.386  -3.898  0.00  0.00     0.028 H 
ATOM     16  H2  <0> d           2.312   4.220  -3.073  0.00  0.00     0.028 H 
ATOM     17  H3  <0> d           3.719   4.861  -2.191  0.00  0.00     0.028 H 
ENDBRANCH  11  14
ENDBRANCH   1  11
BRANCH   5  18
ATOM     18  O1  <0> d          -0.011   0.963   0.007  0.00  0.00    -0.361 OA
ATOM     19  H10 <0> d           0.002  -0.004   0.002  0.00  0.00     0.217 HD
ENDBRANCH   5  18
TORSDOF 3
