REMARK  2 active torsions:
REMARK  status: ('A' for Active; 'I' for Inactive)
REMARK    1  A    between atoms: C4_4  and  O1_9 
REMARK    2  A    between atoms: O1_9  and  C8_10 
ROOT
ATOM      1  C1  <0> d           0.042  -2.781  -0.013  0.00  0.00    -0.081 A 
ATOM      2  C2  <0> d           1.228  -2.065  -0.021  0.00  0.00    -0.080 A 
ATOM      3  C3  <0> d           1.210  -0.684  -0.019  0.00  0.00    -0.049 A 
ATOM      4  C4  <0> d           0.002  -0.004   0.002  0.00  0.00     0.090 A 
ATOM      5  C5  <0> d          -1.200  -0.725   0.010  0.00  0.00     0.077 A 
ATOM      6  C6  <0> d          -1.168  -2.121   0.002  0.00  0.00    -0.060 A 
ATOM      7  C7  <0> d          -2.454  -0.033   0.025  0.00  0.00     0.102 C 
ATOM      8  N1  <0> d          -3.449   0.516   0.037  0.00  0.00    -0.191 NA
ATOM      9  H1  <0> d           0.066  -3.860  -0.019  0.00  0.00     0.083 H 
ATOM     10  H2  <0> d           2.171  -2.590  -0.033  0.00  0.00     0.083 H 
ATOM     11  H3  <0> d           2.139  -0.133  -0.029  0.00  0.00     0.087 H 
ATOM     12  H4  <0> d          -2.091  -2.683   0.007  0.00  0.00     0.086 H 
ENDROOT
BRANCH   4  13
ATOM     13  O1  <0> d          -0.016   1.353   0.009  0.00  0.00    -0.336 OA
BRANCH  13  14
ATOM     14  C8  <0> d           1.248   2.019   0.001  0.00  0.00     0.104 C 
ATOM     15  C9  <0> d           1.035   3.475   0.011  0.00  0.00     0.085 C 
ATOM     16  N2  <0> d           0.871   4.599   0.018  0.00  0.00    -0.195 NA
ATOM     17  H5  <0> d           1.817   1.729   0.884  0.00  0.00     0.097 H 
ATOM     18  H6  <0> d           1.800   1.738  -0.896  0.00  0.00     0.097 H 
ENDBRANCH  13  14
ENDBRANCH   4  13
TORSDOF 2
