REMARK  5 active torsions:
REMARK  status: ('A' for Active; 'I' for Inactive)
REMARK    1  A    between atoms: C1_1  and  C2_2 
REMARK    2  A    between atoms: C2_2  and  C3_3 
REMARK    3  A    between atoms: C2_2  and  S1_4 
REMARK    4  A    between atoms: S1_4  and  C4_5 
REMARK    5  A    between atoms: N2_9  and  C7_10 
ROOT
ATOM      1  C4  <0> d          -1.512  -2.377  -0.145  0.00  0.00     0.168 A 
ATOM      2  N1  <0> d          -0.372  -3.020  -0.241  0.00  0.00    -0.235 NA
ATOM      3  C5  <0> d          -0.613  -4.338  -0.348  0.00  0.00     0.020 A 
ATOM      4  C6  <0> d          -1.943  -4.528  -0.319  0.00  0.00    -0.002 A 
ATOM      5  N2  <0> d          -2.523  -3.286  -0.185  0.00  0.00    -0.339 N 
ATOM      6  H8  <0> d           0.134  -5.112  -0.443  0.00  0.00     0.117 H 
ATOM      7  H9  <0> d          -2.459  -5.474  -0.385  0.00  0.00     0.113 H 
ENDROOT
BRANCH   1   8
ATOM      8  S1  <0> d          -1.700  -0.632   0.015  0.00  0.00    -0.088 SA
BRANCH   8   9
ATOM      9  C2  <0> d           0.002  -0.004   0.002  0.00  0.00    -0.009 C 
ATOM     10  H4  <0> d           0.512  -0.356  -0.895  0.00  0.00     0.056 H 
BRANCH   9  11
ATOM     11  C1  <0> d          -0.019   1.526   0.010  0.00  0.00    -0.064 C 
ATOM     12  H1  <0> d           1.004   1.903   0.003  0.00  0.00     0.028 H 
ATOM     13  H2  <0> d          -0.546   1.887  -0.873  0.00  0.00     0.028 H 
ATOM     14  H3  <0> d          -0.529   1.877   0.907  0.00  0.00     0.028 H 
ENDBRANCH   9  11
BRANCH   9  15
ATOM     15  C3  <0> d           0.742  -0.511   1.242  0.00  0.00    -0.064 C 
ATOM     16  H5  <0> d           1.765  -0.134   1.234  0.00  0.00     0.028 H 
ATOM     17  H6  <0> d           0.232  -0.159   2.138  0.00  0.00     0.028 H 
ATOM     18  H7  <0> d           0.757  -1.601   1.236  0.00  0.00     0.028 H 
ENDBRANCH   9  15
ENDBRANCH   8   9
ENDBRANCH   1   8
BRANCH   5  19
ATOM     19  C7  <0> d          -3.958  -2.999  -0.103  0.00  0.00    -0.013 C 
ATOM     20  H10 <0> d          -4.354  -2.838  -1.105  0.00  0.00     0.057 H 
ATOM     21  H11 <0> d          -4.471  -3.841   0.360  0.00  0.00     0.057 H 
ATOM     22  H12 <0> d          -4.115  -2.103   0.498  0.00  0.00     0.057 H 
ENDBRANCH   5  19
TORSDOF 5
