REMARK  7 active torsions:
REMARK  status: ('A' for Active; 'I' for Inactive)
REMARK    1  A    between atoms: C1_1  and  C2_2 
REMARK    2  A    between atoms: C2_2  and  C3_3 
REMARK    3  A    between atoms: C3_3  and  C4_5 
REMARK    4  A    between atoms: C3_3  and  C5_6 
REMARK    5  A    between atoms: C5_6  and  C6_7 
REMARK    6  A    between atoms: C5_6  and  C7_8 
REMARK    7  A    between atoms: C5_6  and  O1_9 
ROOT
ATOM      1  C3  <0> d          -0.729   1.579   1.267  0.00  0.00    -0.029 C 
ATOM      2  H1  <0> d          -0.822   2.665   1.230  0.00  0.00     0.043 H 
ENDROOT
BRANCH   1   3
ATOM      3  C2  <0> d          -0.013   1.086   0.008  0.00  0.00    -0.063 C 
ATOM      4  H5  <0> d           0.002  -0.004   0.002  0.00  0.00     0.033 H 
ATOM      5  H6  <0> d           1.010   1.463   0.000  0.00  0.00     0.033 H 
BRANCH   3   6
ATOM      6  C1  <0> d          -0.753   1.593  -1.232  0.00  0.00    -0.076 C 
ATOM      7  H2  <0> d          -1.775   1.215  -1.224  0.00  0.00     0.027 H 
ATOM      8  H3  <0> d          -0.767   2.683  -1.226  0.00  0.00     0.027 H 
ATOM      9  H4  <0> d          -0.242   1.241  -2.128  0.00  0.00     0.027 H 
ENDBRANCH   3   6
ENDBRANCH   1   3
BRANCH   1  10
ATOM     10  C4  <0> d          -2.121   0.950   1.341  0.00  0.00    -0.070 C 
ATOM     11  H7  <0> d          -2.632   1.301   2.238  0.00  0.00     0.028 H 
ATOM     12  H8  <0> d          -2.697   1.235   0.460  0.00  0.00     0.028 H 
ATOM     13  H9  <0> d          -2.028  -0.136   1.378  0.00  0.00     0.028 H 
ENDBRANCH   1  10
BRANCH   1  14
ATOM     14  C5  <0> d           0.079   1.179   2.503  0.00  0.00     0.054 C 
BRANCH  14  15
ATOM     15  C6  <0> d          -0.697   1.561   3.765  0.00  0.00    -0.048 C 
ATOM     16  H10 <0> d          -1.656   1.043   3.773  0.00  0.00     0.031 H 
ATOM     17  H11 <0> d          -0.122   1.276   4.646  0.00  0.00     0.031 H 
ATOM     18  H12 <0> d          -0.867   2.638   3.775  0.00  0.00     0.031 H 
ENDBRANCH  14  15
BRANCH  14  19
ATOM     19  C7  <0> d           0.316  -0.333   2.489  0.00  0.00    -0.048 C 
ATOM     20  H13 <0> d           0.869  -0.605   1.590  0.00  0.00     0.031 H 
ATOM     21  H14 <0> d           0.891  -0.618   3.370  0.00  0.00     0.031 H 
ATOM     22  H15 <0> d          -0.642  -0.851   2.498  0.00  0.00     0.031 H 
ENDBRANCH  14  19
BRANCH  14  23
ATOM     23  O1  <0> d           1.335   1.859   2.492  0.00  0.00    -0.390 OA
ATOM     24  H16 <0> d           1.261   2.823   2.500  0.00  0.00     0.210 HD
ENDBRANCH  14  23
ENDBRANCH   1  14
TORSDOF 7
