REMARK  4 active torsions:
REMARK  status: ('A' for Active; 'I' for Inactive)
REMARK    1  A    between atoms: C1_1  and  O1_2 
REMARK    2  A    between atoms: O1_2  and  C2_3 
REMARK    3  A    between atoms: C5_6  and  N3_10 
REMARK    4  A    between atoms: C6_7  and  N2_9 
ROOT
ATOM      1  C2  <0> d           0.002  -0.004   0.002  0.00  0.00     0.166 A 
ATOM      2  C3  <0> d           1.202  -0.699  -0.013  0.00  0.00    -0.030 A 
ATOM      3  C4  <0> d           2.396   0.007  -0.020  0.00  0.00    -0.050 A 
ATOM      4  C5  <0> d           2.345   1.395  -0.013  0.00  0.00     0.072 A 
ATOM      5  C6  <0> d           1.102   2.029   0.002  0.00  0.00     0.150 A 
ATOM      6  N1  <0> d          -0.016   1.319   0.009  0.00  0.00    -0.205 NA
ATOM      7  H4  <0> d           1.207  -1.779  -0.019  0.00  0.00     0.090 H 
ATOM      8  H5  <0> d           3.343  -0.511  -0.032  0.00  0.00     0.087 H 
ENDROOT
BRANCH   1   9
ATOM      9  O1  <0> d          -1.170  -0.690   0.009  0.00  0.00    -0.339 OA
BRANCH   9  10
ATOM     10  C1  <0> d          -2.373   0.081   0.025  0.00  0.00     0.012 C 
ATOM     11  H1  <0> d          -3.241  -0.595   0.030  0.00  0.00     0.067 H 
ATOM     12  H2  <0> d          -2.410   0.720  -0.869  0.00  0.00     0.067 H 
ATOM     13  H3  <0> d          -2.393   0.710   0.927  0.00  0.00     0.067 H 
ENDBRANCH   9  10
ENDBRANCH   1   9
BRANCH   5  14
ATOM     14  N2  <0> d           1.036   3.420   0.011  0.00  0.00    -0.382 N 
ATOM     15  H6  <0> d           0.059   3.925   0.022  0.00  0.00     0.157 HD
ATOM     16  H7  <0> d           1.962   4.014   0.005  0.00  0.00     0.157 HD
ENDBRANCH   5  14
BRANCH   4  17
ATOM     17  N3  <0> d           3.527   2.150  -0.020  0.00  0.00    -0.396 N 
ATOM     18  H8  <0> d           3.479   3.249  -0.014  0.00  0.00     0.156 HD
ATOM     19  H9  <0> d           4.504   1.643  -0.031  0.00  0.00     0.156 HD
ENDBRANCH   4  17
TORSDOF 4
