REMARK  7 active torsions:
REMARK  status: ('A' for Active; 'I' for Inactive)
REMARK    1  A    between atoms: C1_1  and  C2_2 
REMARK    2  A    between atoms: C2_2  and  C3_3 
REMARK    3  A    between atoms: C3_3  and  C4_4 
REMARK    4  A    between atoms: C4_4  and  C5_6 
REMARK    5  A    between atoms: C4_4  and  C6_7 
REMARK    6  A    between atoms: C6_7  and  C7_8 
REMARK    7  A    between atoms: C7_8  and  C8_9 
ROOT
ATOM      1  C4  <0> d          -0.753   1.593  -1.232  0.00  0.00    -0.057 C 
ATOM      2  H1  <0> d          -1.798   1.290  -1.179  0.00  0.00     0.039 H 
ENDROOT
BRANCH   1   3
ATOM      3  C3  <0> d          -0.111   0.998  -2.487  0.00  0.00    -0.062 C 
ATOM      4  H7  <0> d           0.908   1.372  -2.586  0.00  0.00     0.033 H 
ATOM      5  H8  <0> d          -0.093  -0.089  -2.406  0.00  0.00     0.033 H 
BRANCH   3   6
ATOM      6  C2  <0> d          -0.926   1.404  -3.717  0.00  0.00    -0.068 C 
ATOM      7  H5  <0> d          -1.945   1.030  -3.617  0.00  0.00     0.032 H 
ATOM      8  H6  <0> d          -0.944   2.491  -3.798  0.00  0.00     0.032 H 
BRANCH   6   9
ATOM      9  C1  <0> d          -0.285   0.809  -4.972  0.00  0.00    -0.077 C 
ATOM     10  H2  <0> d           0.734   1.184  -5.072  0.00  0.00     0.027 H 
ATOM     11  H3  <0> d          -0.267  -0.277  -4.891  0.00  0.00     0.027 H 
ATOM     12  H4  <0> d          -0.865   1.099  -5.848  0.00  0.00     0.027 H 
ENDBRANCH   6   9
ENDBRANCH   3   6
ENDBRANCH   1   3
BRANCH   1  13
ATOM     13  C5  <0> d          -0.666   3.119  -1.289  0.00  0.00    -0.073 C 
ATOM     14  H9  <0> d           0.380   3.422  -1.341  0.00  0.00     0.028 H 
ATOM     15  H10 <0> d          -1.193   3.480  -2.172  0.00  0.00     0.028 H 
ATOM     16  H11 <0> d          -1.123   3.543  -0.394  0.00  0.00     0.028 H 
ENDBRANCH   1  13
BRANCH   1  17
ATOM     17  C6  <0> d          -0.013   1.086   0.008  0.00  0.00    -0.053 C 
ATOM     18  H12 <0> d           0.002  -0.004   0.002  0.00  0.00     0.034 H 
ATOM     19  H13 <0> d           1.010   1.463   0.000  0.00  0.00     0.034 H 
BRANCH  17  20
ATOM     20  C7  <0> d          -0.729   1.579   1.267  0.00  0.00     0.016 C 
ATOM     21  H14 <0> d          -0.744   2.669   1.273  0.00  0.00     0.049 H 
ATOM     22  H15 <0> d          -1.751   1.202   1.275  0.00  0.00     0.049 H 
BRANCH  20  23
ATOM     23  C8  <0> d           0.000   1.080   2.488  0.00  0.00     0.172 C 
ATOM     24  O1  <0> d           0.991   0.399   2.364  0.00  0.00    -0.648 OA
ATOM     25  O2  <0> d          -0.451   1.391   3.713  0.00  0.00    -0.648 OA
ENDBRANCH  20  23
ENDBRANCH  17  20
ENDBRANCH   1  17
TORSDOF 7
