REMARK  3 active torsions:
REMARK  status: ('A' for Active; 'I' for Inactive)
REMARK    1  A    between atoms: C1_1  and  C2_2 
REMARK    2  A    between atoms: C2_2  and  C3_3 
REMARK    3  A    between atoms: C6_6  and  C7_8 
ROOT
ATOM      1  C3  <0> d          -0.749   3.086   1.275  0.00  0.00     0.053 A 
ATOM      2  C4  <0> d          -1.714   3.863   0.734  0.00  0.00    -0.051 A 
ATOM      3  C5  <0> d          -1.347   5.198   0.964  0.00  0.00    -0.041 A 
ATOM      4  C6  <0> d          -0.157   5.168   1.635  0.00  0.00     0.151 A 
ATOM      5  O1  <0> d           0.188   3.876   1.814  0.00  0.00    -0.308 OA
ATOM      6  H6  <0> d          -2.602   3.521   0.223  0.00  0.00     0.087 H 
ATOM      7  H7  <0> d          -1.897   6.078   0.665  0.00  0.00     0.088 H 
ENDROOT
BRANCH   1   8
ATOM      8  C2  <0> d          -0.729   1.579   1.267  0.00  0.00    -0.024 C 
ATOM      9  H4  <0> d          -1.751   1.202   1.275  0.00  0.00     0.042 H 
ATOM     10  H5  <0> d          -0.202   1.218   2.150  0.00  0.00     0.042 H 
BRANCH   8  11
ATOM     11  C1  <0> d          -0.013   1.086   0.008  0.00  0.00    -0.071 C 
ATOM     12  H1  <0> d           0.002  -0.004   0.002  0.00  0.00     0.028 H 
ATOM     13  H2  <0> d           1.010   1.463   0.000  0.00  0.00     0.028 H 
ATOM     14  H3  <0> d          -0.540   1.447  -0.875  0.00  0.00     0.028 H 
ENDBRANCH   8  11
ENDBRANCH   1   8
BRANCH   4  15
ATOM     15  C7  <0> d           0.608   6.333   2.083  0.00  0.00     0.234 C 
ATOM     16  O2  <0> d           0.193   7.455   1.863  0.00  0.00    -0.642 OA
ATOM     17  O3  <0> d           1.774   6.163   2.739  0.00  0.00    -0.642 OA
ENDBRANCH   4  15
TORSDOF 3
