REMARK  3 active torsions:
REMARK  status: ('A' for Active; 'I' for Inactive)
REMARK    1  A    between atoms: C2_2  and  C3_3 
REMARK    2  A    between atoms: C6_7  and  O2_13 
REMARK    3  A    between atoms: C7_9  and  O1_12 
ROOT
ATOM      1  C3  <0> d          -0.013   1.086   0.008  0.00  0.00    -0.036 C 
ATOM      2  H1  <0> d           0.018  -0.014   0.002  0.00  0.00     0.046 H 
ATOM      3  C4  <0> d          -0.729   1.579   1.267  0.00  0.00    -0.056 C 
ATOM      4  C5  <0> d          -2.164   1.050   1.278  0.00  0.00    -0.038 C 
ATOM      5  C6  <0> d          -2.904   1.556   0.038  0.00  0.00     0.060 C 
ATOM      6  H2  <0> d          -2.989   2.653   0.045  0.00  0.00     0.086 H 
ATOM      7  C7  <0> d          -2.188   1.063  -1.221  0.00  0.00     0.061 C 
ATOM      8  H3  <0> d          -2.209  -0.035  -1.287  0.00  0.00     0.086 H 
ATOM      9  C8  <0> d          -0.753   1.593  -1.232  0.00  0.00    -0.032 C 
ATOM     10  H7  <0> d          -0.197   1.215   2.158  0.00  0.00     0.034 H 
ATOM     11  H8  <0> d          -0.744   2.679   1.273  0.00  0.00     0.034 H 
ATOM     12  H9  <0> d          -2.149  -0.050   1.272  0.00  0.00     0.036 H 
ATOM     13  H10 <0> d          -2.679   1.405   2.183  0.00  0.00     0.036 H 
ATOM     14  H11 <0> d          -0.768   2.693  -1.225  0.00  0.00     0.037 H 
ATOM     15  H12 <0> d          -0.238   1.238  -2.137  0.00  0.00     0.037 H 
ENDROOT
BRANCH   1  16
ATOM     16  C2  <0> d           1.401   1.607  -0.003  0.00  0.00    -0.108 C 
ATOM     17  C1  <0> d           2.408   0.770  -0.017  0.00  0.00    -0.124 C 
ATOM     18  H4  <0> d           3.440   1.151  -0.025  0.00  0.00     0.066 H 
ATOM     19  H5  <0> d           2.222  -0.314  -0.021  0.00  0.00     0.066 H 
ATOM     20  H6  <0> d           1.587   2.692   0.001  0.00  0.00     0.076 H 
ENDBRANCH   1  16
BRANCH   7  21
ATOM     21  O1  <0> d          -2.879   1.536  -2.378  0.00  0.00    -0.393 OA
ATOM     22  H13 <0> d          -2.509   1.281  -3.382  0.00  0.00     0.210 HD
ENDBRANCH   7  21
BRANCH   5  23
ATOM     23  O2  <0> d          -4.245   1.062   0.048  0.00  0.00    -0.393 OA
ATOM     24  H14 <0> d          -4.934   1.323  -0.769  0.00  0.00     0.210 HD
ENDBRANCH   5  23
TORSDOF 3
