REMARK  2 active torsions:
REMARK  status: ('A' for Active; 'I' for Inactive)
REMARK    1  A    between atoms: C1_1  and  N1_2 
REMARK    2  A    between atoms: C4_5  and  N2_6 
ROOT
ATOM      1  N1  <0> d           1.173  -0.694  -0.012  0.00  0.00    -0.371 N 
ATOM      2  C2  <0> d           0.002  -0.004   0.002  0.00  0.00    -0.019 A 
ATOM      3  C3  <0> d          -0.016   1.342   0.009  0.00  0.00    -0.041 A 
ATOM      4  C4  <0> d           1.264   2.062   0.001  0.00  0.00     0.050 A 
ATOM      5  C5  <0> d           2.494   1.259  -0.015  0.00  0.00    -0.041 A 
ATOM      6  C6  <0> d           2.387  -0.083  -0.021  0.00  0.00    -0.019 A 
ATOM      7  H4  <0> d          -0.932  -0.546   0.008  0.00  0.00     0.111 H 
ATOM      8  H5  <0> d          -0.952   1.882   0.017  0.00  0.00     0.089 H 
ATOM      9  H7  <0> d           3.464   1.736  -0.022  0.00  0.00     0.089 H 
ATOM     10  H8  <0> d           3.283  -0.686  -0.032  0.00  0.00     0.111 H 
ENDROOT
BRANCH   1  11
ATOM     11  C1  <0> d           1.125  -2.158  -0.019  0.00  0.00    -0.015 C 
ATOM     12  H1  <0> d           1.103  -2.516  -1.048  0.00  0.00     0.057 H 
ATOM     13  H2  <0> d           2.007  -2.553   0.485  0.00  0.00     0.057 H 
ATOM     14  H3  <0> d           0.228  -2.494   0.502  0.00  0.00     0.057 H 
ENDBRANCH   1  11
BRANCH   4  15
ATOM     15  N2  <0> d           1.308   3.383   0.007  0.00  0.00    -0.300 NA
ATOM     16  H6  <0> d           2.164   3.840   0.002  0.00  0.00     0.187 HD
ENDBRANCH   4  15
TORSDOF 2
