REMARK  4 active torsions:
REMARK  status: ('A' for Active; 'I' for Inactive)
REMARK    1  A    between atoms: C1_1  and  C2_2 
REMARK    2  A    between atoms: C2_2  and  C3_3 
REMARK    3  A    between atoms: C3_3  and  C4_5 
REMARK    4  A    between atoms: N1_9  and  C8_10 
ROOT
ATOM      1  C4  <0> d           0.853  -1.877  -1.470  0.00  0.00     0.080 A 
ATOM      2  C5  <0> d           0.396  -2.897  -0.654  0.00  0.00    -0.052 A 
ATOM      3  C6  <0> d           0.757  -4.099  -1.266  0.00  0.00    -0.066 A 
ATOM      4  C7  <0> d           1.412  -3.802  -2.416  0.00  0.00    -0.020 A 
ATOM      5  N1  <0> d           1.472  -2.462  -2.555  0.00  0.00    -0.358 N 
ATOM      6  H6  <0> d          -0.138  -2.785   0.278  0.00  0.00     0.087 H 
ATOM      7  H7  <0> d           0.551  -5.090  -0.889  0.00  0.00     0.085 H 
ATOM      8  H8  <0> d           1.816  -4.523  -3.111  0.00  0.00     0.111 H 
ENDROOT
BRANCH   1   9
ATOM      9  C3  <0> d           0.707  -0.490  -1.238  0.00  0.00     0.175 C 
ATOM     10  O1  <0> d           1.151   0.310  -2.037  0.00  0.00    -0.291 OA
BRANCH   9  11
ATOM     11  C2  <0> d           0.002  -0.004   0.002  0.00  0.00    -0.007 C 
ATOM     12  H4  <0> d           0.529  -0.365   0.885  0.00  0.00     0.044 H 
ATOM     13  H5  <0> d          -1.020  -0.381   0.010  0.00  0.00     0.044 H 
BRANCH  11  14
ATOM     14  C1  <0> d          -0.019   1.526   0.010  0.00  0.00    -0.070 C 
ATOM     15  H1  <0> d           1.004   1.903   0.003  0.00  0.00     0.028 H 
ATOM     16  H2  <0> d          -0.546   1.887  -0.873  0.00  0.00     0.028 H 
ATOM     17  H3  <0> d          -0.529   1.877   0.907  0.00  0.00     0.028 H 
ENDBRANCH  11  14
ENDBRANCH   9  11
ENDBRANCH   1   9
BRANCH   5  18
ATOM     18  C8  <0> d           2.095  -1.746  -3.671  0.00  0.00    -0.014 C 
ATOM     19  H9  <0> d           3.144  -1.560  -3.442  0.00  0.00     0.057 H 
ATOM     20  H10 <0> d           2.022  -2.350  -4.576  0.00  0.00     0.057 H 
ATOM     21  H11 <0> d           1.582  -0.797  -3.826  0.00  0.00     0.057 H 
ENDBRANCH   5  18
TORSDOF 4
