REMARK  6 active torsions:
REMARK  status: ('A' for Active; 'I' for Inactive)
REMARK    1  A    between atoms: C1_1  and  C2_2 
REMARK    2  A    between atoms: C2_2  and  C3_3 
REMARK    3  A    between atoms: C2_2  and  O1_4 
REMARK    4  A    between atoms: O1_4  and  C4_5 
REMARK    5  A    between atoms: C4_5  and  C5_7 
REMARK    6  A    between atoms: C4_5  and  C6_8 
ROOT
ATOM      1  C2  <0> d          -1.625   0.589  -1.692  0.00  0.00     0.033 C 
ATOM      2  H5  <0> d          -2.087   0.022  -0.884  0.00  0.00     0.082 H 
ENDROOT
BRANCH   1   3
ATOM      3  C1  <0> d          -2.709   1.324  -2.483  0.00  0.00    -0.052 C 
ATOM      4  H2  <0> d          -3.294   1.947  -1.806  0.00  0.00     0.030 H 
ATOM      5  H3  <0> d          -2.243   1.951  -3.243  0.00  0.00     0.030 H 
ATOM      6  H4  <0> d          -3.364   0.597  -2.964  0.00  0.00     0.030 H 
ENDBRANCH   1   3
BRANCH   1   7
ATOM      7  C3  <0> d          -0.874  -0.366  -2.621  0.00  0.00    -0.052 C 
ATOM      8  H6  <0> d          -0.102  -0.889  -2.058  0.00  0.00     0.030 H 
ATOM      9  H7  <0> d          -1.573  -1.091  -3.039  0.00  0.00     0.030 H 
ATOM     10  H8  <0> d          -0.413   0.201  -3.430  0.00  0.00     0.030 H 
ENDBRANCH   1   7
BRANCH   1  11
ATOM     11  O1  <0> d          -0.709   1.539  -1.144  0.00  0.00    -0.371 OA
BRANCH  11  12
ATOM     12  C4  <0> d          -0.084   1.112   0.068  0.00  0.00     0.119 C 
ATOM     13  H1  <0> d           0.035   0.029   0.053  0.00  0.00     0.099 H 
BRANCH  12  14
ATOM     14  C5  <0> d          -0.954   1.514   1.260  0.00  0.00    -0.043 C 
ATOM     15  H9  <0> d          -1.906   0.985   1.210  0.00  0.00     0.031 H 
ATOM     16  H10 <0> d          -0.443   1.255   2.187  0.00  0.00     0.031 H 
ATOM     17  H11 <0> d          -1.134   2.588   1.233  0.00  0.00     0.031 H 
ENDBRANCH  12  14
BRANCH  12  18
ATOM     18  C6  <0> d           1.270   1.763   0.192  0.00  0.00     0.202 C 
ATOM     19  O2  <0> d           1.621   2.585  -0.622  0.00  0.00    -0.646 OA
ATOM     20  O3  <0> d           2.084   1.431   1.205  0.00  0.00    -0.646 OA
ENDBRANCH  12  18
ENDBRANCH  11  12
ENDBRANCH   1  11
TORSDOF 6
