REMARK  1 active torsions:
REMARK  status: ('A' for Active; 'I' for Inactive)
REMARK    1  A    between atoms: C1_1  and  C2_2 
ROOT
ATOM      1  C2  <0> d          -0.729   1.579   1.267  0.00  0.00     0.029 C 
ATOM      2  H1  <0> d          -1.751   1.201   1.273  0.00  0.00     0.075 H 
ATOM      3  C3  <0> d          -0.753   3.109   1.271  0.00  0.00     0.038 C 
ATOM      4  O1  <0> d           0.573   3.590   1.514  0.00  0.00    -0.380 OA
ATOM      5  C4  <0> d           1.032   3.313   2.840  0.00  0.00     0.093 C 
ATOM      6  C5  <0> d           0.799   1.865   3.168  0.00  0.00     0.241 C 
ATOM      7  O2  <0> d           1.377   1.380   4.117  0.00  0.00    -0.271 OA
ATOM      8  N1  <0> d          -0.024   1.091   2.449  0.00  0.00    -0.353 N 
ATOM      9  H5  <0> d          -1.099   3.472   0.304  0.00  0.00     0.077 H 
ATOM     10  H6  <0> d          -1.420   3.462   2.057  0.00  0.00     0.077 H 
ATOM     11  H7  <0> d           0.487   3.937   3.549  0.00  0.00     0.089 H 
ATOM     12  H8  <0> d           2.097   3.534   2.908  0.00  0.00     0.089 H 
ATOM     13  H9  <0> d          -0.156   0.170   2.724  0.00  0.00     0.163 HD
ENDROOT
BRANCH   1  14
ATOM     14  C1  <0> d          -0.013   1.086   0.008  0.00  0.00    -0.055 C 
ATOM     15  H2  <0> d           0.002  -0.004   0.002  0.00  0.00     0.030 H 
ATOM     16  H3  <0> d           1.010   1.463   0.000  0.00  0.00     0.030 H 
ATOM     17  H4  <0> d          -0.540   1.447  -0.875  0.00  0.00     0.030 H 
ENDBRANCH   1  14
TORSDOF 1
