REMARK  2 active torsions:
REMARK  status: ('A' for Active; 'I' for Inactive)
REMARK    1  A    between atoms: C1_1  and  C2_2 
REMARK    2  A    between atoms: N1_8  and  C9_11 
ROOT
ATOM      1  C2  <0> d           1.186   1.771   2.918  0.00  0.00    -0.033 A 
ATOM      2  C3  <0> d           1.444   2.124   4.226  0.00  0.00    -0.075 A 
ATOM      3  C4  <0> d           0.415   2.539   5.059  0.00  0.00    -0.080 A 
ATOM      4  C5  <0> d          -0.870   2.605   4.599  0.00  0.00    -0.053 A 
ATOM      5  C6  <0> d          -1.155   2.253   3.277  0.00  0.00     0.085 A 
ATOM      6  C7  <0> d          -0.113   1.832   2.433  0.00  0.00     0.070 A 
ATOM      7  N1  <0> d          -0.698   1.558   1.213  0.00  0.00    -0.344 N 
ATOM      8  C8  <0> d          -2.029   1.814   1.336  0.00  0.00     0.067 A 
ATOM      9  N2  <0> d          -2.298   2.215   2.545  0.00  0.00    -0.242 NA
ATOM     10  H4  <0> d           2.455   2.077   4.604  0.00  0.00     0.084 H 
ATOM     11  H5  <0> d           0.632   2.812   6.081  0.00  0.00     0.083 H 
ATOM     12  H6  <0> d          -1.663   2.929   5.256  0.00  0.00     0.087 H 
ATOM     13  H7  <0> d          -2.757   1.698   0.547  0.00  0.00     0.143 H 
ENDROOT
BRANCH   1  14
ATOM     14  C1  <0> d           2.309   1.322   2.019  0.00  0.00    -0.049 C 
ATOM     15  H1  <0> d           2.734   2.186   1.509  0.00  0.00     0.033 H 
ATOM     16  H2  <0> d           3.080   0.836   2.616  0.00  0.00     0.033 H 
ATOM     17  H3  <0> d           1.924   0.618   1.281  0.00  0.00     0.033 H 
ENDBRANCH   1  14
BRANCH   7  18
ATOM     18  C9  <0> d          -0.013   1.086   0.008  0.00  0.00    -0.013 C 
ATOM     19  H8  <0> d           0.002  -0.004   0.002  0.00  0.00     0.057 H 
ATOM     20  H9  <0> d           1.010   1.463   0.000  0.00  0.00     0.057 H 
ATOM     21  H10 <0> d          -0.540   1.447  -0.875  0.00  0.00     0.057 H 
ENDBRANCH   7  18
TORSDOF 2
