REMARK  3 active torsions:
REMARK  status: ('A' for Active; 'I' for Inactive)
REMARK    1  A    between atoms: C4_4  and  C8_11 
REMARK    2  A    between atoms: C5_6  and  C7_9 
REMARK    3  A    between atoms: C7_9  and  O1_10 
REMARK       I    between atoms: C8_11  and  N1_13 
ROOT
ATOM      1  C1  <0> d          -0.019   1.526   0.010  0.00  0.00    -0.065 C 
ATOM      2  C2  <0> d           1.417   2.055  -0.000  0.00  0.00    -0.064 C 
ATOM      3  C3  <0> d           2.133   1.562  -1.259  0.00  0.00    -0.053 C 
ATOM      4  C4  <0> d           2.154   0.032  -1.268  0.00  0.00     0.029 C 
ATOM      5  H1  <0> d           2.664  -0.319  -2.164  0.00  0.00     0.055 H 
ATOM      6  C5  <0> d           0.718  -0.497  -1.257  0.00  0.00    -0.022 C 
ATOM      7  H2  <0> d           0.191  -0.136  -2.140  0.00  0.00     0.044 H 
ATOM      8  C6  <0> d           0.002  -0.004   0.002  0.00  0.00    -0.059 C 
ATOM      9  H3  <0> d          -0.529   1.877   0.907  0.00  0.00     0.033 H 
ATOM     10  H4  <0> d          -0.546   1.887  -0.873  0.00  0.00     0.033 H 
ATOM     11  H5  <0> d           1.402   3.145   0.006  0.00  0.00     0.033 H 
ATOM     12  H6  <0> d           1.944   1.694   0.883  0.00  0.00     0.033 H 
ATOM     13  H7  <0> d           1.606   1.923  -2.142  0.00  0.00     0.034 H 
ATOM     14  H8  <0> d           3.155   1.939  -1.267  0.00  0.00     0.034 H 
ATOM     15  H9  <0> d           0.529  -0.365   0.885  0.00  0.00     0.033 H 
ATOM     16  H10 <0> d          -1.020  -0.381   0.010  0.00  0.00     0.033 H 
ENDROOT
BRANCH   4  17
ATOM     17  C8  <0> d           2.882  -0.467  -0.047  0.00  0.00     0.220 C 
ATOM     18  O2  <0> d           2.310  -1.177   0.753  0.00  0.00    -0.273 OA
ATOM     19  N1  <0> d           4.170  -0.125   0.156  0.00  0.00    -0.370 N 
ATOM     20  H14 <0> d           4.628   0.442  -0.484  0.00  0.00     0.159 HD
ATOM     21  H15 <0> d           4.639  -0.447   0.942  0.00  0.00     0.159 HD
ENDBRANCH   4  17
BRANCH   6  22
ATOM     22  C7  <0> d           0.739  -2.027  -1.265  0.00  0.00     0.021 C 
ATOM     23  H11 <0> d           1.325  -2.378  -2.115  0.00  0.00     0.074 H 
ATOM     24  H12 <0> d           1.187  -2.390  -0.340  0.00  0.00     0.074 H 
BRANCH  22  25
ATOM     25  O1  <0> d          -0.598  -2.521  -1.373  0.00  0.00    -0.400 OA
ATOM     26  H13 <0> d          -0.661  -3.486  -1.384  0.00  0.00     0.209 HD
ENDBRANCH  22  25
ENDBRANCH   6  22
TORSDOF 3
