REMARK  4 active torsions:
REMARK  status: ('A' for Active; 'I' for Inactive)
REMARK    1  A    between atoms: C1_1  and  C2_2 
REMARK    2  A    between atoms: C2_2  and  C3_3 
REMARK    3  A    between atoms: C3_3  and  C4_5 
REMARK    4  A    between atoms: C3_3  and  O2_7 
ROOT
ATOM      1  C2  <0> d          -0.013   1.086   0.008  0.00  0.00    -0.035 C 
ATOM      2  H5  <0> d           0.002  -0.004   0.002  0.00  0.00     0.036 H 
ATOM      3  H6  <0> d           1.010   1.463   0.000  0.00  0.00     0.036 H 
ENDROOT
BRANCH   1   4
ATOM      4  C1  <0> d          -0.753   1.593  -1.232  0.00  0.00    -0.074 C 
ATOM      5  H2  <0> d          -0.767   2.683  -1.226  0.00  0.00     0.027 H 
ATOM      6  H3  <0> d          -0.242   1.241  -2.128  0.00  0.00     0.027 H 
ATOM      7  H4  <0> d          -1.775   1.215  -1.224  0.00  0.00     0.027 H 
ENDBRANCH   1   4
BRANCH   1   8
ATOM      8  C3  <0> d          -0.729   1.579   1.267  0.00  0.00     0.118 C 
ATOM      9  H1  <0> d          -1.776   1.277   1.232  0.00  0.00     0.100 H 
BRANCH   8  10
ATOM     10  C4  <0> d          -0.074   0.981   2.485  0.00  0.00     0.203 C 
ATOM     11  O1  <0> d           0.492   1.694   3.279  0.00  0.00    -0.646 OA
ATOM     12  O3  <0> d          -0.119  -0.346   2.688  0.00  0.00    -0.646 OA
ENDBRANCH   8  10
BRANCH   8  13
ATOM     13  O2  <0> d          -0.647   3.004   1.334  0.00  0.00    -0.385 OA
ATOM     14  H7  <0> d           0.258   3.345   1.368  0.00  0.00     0.210 HD
ENDBRANCH   8  13
ENDBRANCH   1   8
TORSDOF 4
