REMARK  5 active torsions:
REMARK  status: ('A' for Active; 'I' for Inactive)
REMARK    1  A    between atoms: C1_1  and  C2_2 
REMARK    2  A    between atoms: C2_2  and  O1_3 
REMARK    3  A    between atoms: O1_3  and  C3_4 
REMARK    4  A    between atoms: C6_7  and  N1_11 
REMARK    5  A    between atoms: C8_9  and  C9_10 
ROOT
ATOM      1  C3  <0> d          -3.649   3.001   0.036  0.00  0.00     0.074 A 
ATOM      2  C4  <0> d          -2.457   3.711   0.034  0.00  0.00    -0.048 A 
ATOM      3  C5  <0> d          -1.252   3.038   0.030  0.00  0.00    -0.055 A 
ATOM      4  C6  <0> d          -1.232   1.649   0.017  0.00  0.00     0.026 A 
ATOM      5  C7  <0> d          -2.425   0.939   0.019  0.00  0.00    -0.049 A 
ATOM      6  C8  <0> d          -3.631   1.614   0.028  0.00  0.00    -0.026 A 
ATOM      7  H6  <0> d          -2.472   4.791   0.041  0.00  0.00     0.087 H 
ATOM      8  H7  <0> d          -0.324   3.591   0.033  0.00  0.00     0.087 H 
ATOM      9  H8  <0> d          -2.411  -0.141   0.013  0.00  0.00     0.087 H 
ENDROOT
BRANCH   1  10
ATOM     10  O1  <0> d          -4.836   3.665   0.045  0.00  0.00    -0.351 OA
BRANCH  10  11
ATOM     11  C2  <0> d          -4.780   5.093   0.052  0.00  0.00     0.023 C 
ATOM     12  H4  <0> d          -4.249   5.431   0.942  0.00  0.00     0.074 H 
ATOM     13  H5  <0> d          -4.257   5.441  -0.838  0.00  0.00     0.074 H 
BRANCH  11  14
ATOM     14  C1  <0> d          -6.202   5.658   0.062  0.00  0.00    -0.056 C 
ATOM     15  H1  <0> d          -6.734   5.320  -0.827  0.00  0.00     0.030 H 
ATOM     16  H2  <0> d          -6.725   5.310   0.953  0.00  0.00     0.030 H 
ATOM     17  H3  <0> d          -6.160   6.747   0.068  0.00  0.00     0.030 H 
ENDBRANCH  11  14
ENDBRANCH  10  11
ENDBRANCH   1  10
BRANCH   6  18
ATOM     18  C9  <0> d          -4.926   0.844   0.029  0.00  0.00    -0.049 C 
ATOM     19  H9  <0> d          -5.233   0.652   1.057  0.00  0.00     0.033 H 
ATOM     20  H10 <0> d          -5.695   1.426  -0.478  0.00  0.00     0.033 H 
ATOM     21  H11 <0> d          -4.785  -0.104  -0.490  0.00  0.00     0.033 H 
ENDBRANCH   6  18
BRANCH   4  22
ATOM     22  N1  <0> d          -0.011   0.966   0.007  0.00  0.00    -0.399 N 
ATOM     23  H12 <0> d           0.002  -0.004   0.002  0.00  0.00     0.156 HD
ATOM     24  H13 <0> d           0.822   1.462   0.002  0.00  0.00     0.156 HD
ENDBRANCH   4  22
TORSDOF 5
