REMARK  2 active torsions:
REMARK  status: ('A' for Active; 'I' for Inactive)
REMARK    1  A    between atoms: C1_1  and  O1_2 
REMARK    2  A    between atoms: O1_2  and  C2_3 
ROOT
ATOM      1  C2  <0> d           3.333   2.620  -0.016  0.00  0.00     0.165 A 
ATOM      2  C3  <0> d           2.473   1.537  -0.013  0.00  0.00    -0.005 A 
ATOM      3  C4  <0> d           1.101   1.768   0.001  0.00  0.00     0.048 A 
ATOM      4  C5  <0> d           0.651   3.106   0.013  0.00  0.00     0.010 A 
ATOM      5  C6  <0> d          -0.812   3.038   0.026  0.00  0.00    -0.055 A 
ATOM      6  C7  <0> d          -1.144   1.738   0.016  0.00  0.00    -0.022 A 
ATOM      7  N1  <0> d          -0.011   0.966   0.007  0.00  0.00    -0.365 N 
ATOM      8  H1  <0> d           0.002  -0.004   0.002  0.00  0.00     0.165 HD
ATOM      9  C8  <0> d           1.585   4.138   0.009  0.00  0.00     0.017 A 
ATOM     10  N2  <0> d           2.874   3.865  -0.005  0.00  0.00    -0.236 NA
ATOM     11  H5  <0> d           2.859   0.528  -0.022  0.00  0.00     0.093 H 
ATOM     12  H6  <0> d          -1.494   3.875   0.037  0.00  0.00     0.087 H 
ATOM     13  H7  <0> d          -2.154   1.356   0.019  0.00  0.00     0.111 H 
ATOM     14  H8  <0> d           1.252   5.165   0.018  0.00  0.00     0.116 H 
ENDROOT
BRANCH   1  15
ATOM     15  O1  <0> d           4.673   2.406  -0.030  0.00  0.00    -0.339 OA
BRANCH  15  16
ATOM     16  C1  <0> d           5.515   3.560  -0.032  0.00  0.00     0.012 C 
ATOM     17  H2  <0> d           5.323   4.152   0.863  0.00  0.00     0.067 H 
ATOM     18  H3  <0> d           6.559   3.248  -0.044  0.00  0.00     0.067 H 
ATOM     19  H4  <0> d           5.305   4.161  -0.917  0.00  0.00     0.067 H 
ENDBRANCH  15  16
ENDBRANCH   1  15
TORSDOF 2
