REMARK  3 active torsions:
REMARK  status: ('A' for Active; 'I' for Inactive)
REMARK    1  A    between atoms: C1_1  and  C2_2 
REMARK    2  A    between atoms: C2_2  and  C5_6 
REMARK    3  A    between atoms: C5_6  and  O2_7 
ROOT
ATOM      1  C2  <0> d          -0.729   1.579   1.267  0.00  0.00     0.020 C 
ATOM      2  C3  <0> d          -2.265   1.570   1.153  0.00  0.00     0.030 C 
ATOM      3  O1  <0> d          -2.122   2.932   0.690  0.00  0.00    -0.389 OA
ATOM      4  C4  <0> d          -0.853   3.112   1.351  0.00  0.00     0.030 C 
ATOM      5  H4  <0> d          -2.647   0.883   0.397  0.00  0.00     0.075 H 
ATOM      6  H5  <0> d          -2.778   1.480   2.110  0.00  0.00     0.075 H 
ATOM      7  H6  <0> d          -0.936   3.493   2.369  0.00  0.00     0.075 H 
ATOM      8  H7  <0> d          -0.115   3.648   0.754  0.00  0.00     0.075 H 
ENDROOT
BRANCH   1   9
ATOM      9  C1  <0> d          -0.013   1.086   0.008  0.00  0.00    -0.063 C 
ATOM     10  H1  <0> d           0.002  -0.004   0.002  0.00  0.00     0.028 H 
ATOM     11  H2  <0> d           1.010   1.463   0.000  0.00  0.00     0.028 H 
ATOM     12  H3  <0> d          -0.540   1.447  -0.875  0.00  0.00     0.028 H 
ENDBRANCH   1   9
BRANCH   1  13
ATOM     13  C5  <0> d          -0.201   0.931   2.548  0.00  0.00     0.027 C 
ATOM     14  H8  <0> d           0.806   1.295   2.751  0.00  0.00     0.075 H 
ATOM     15  H9  <0> d          -0.855   1.187   3.381  0.00  0.00     0.075 H 
BRANCH  13  16
ATOM     16  O2  <0> d          -0.170  -0.488   2.386  0.00  0.00    -0.400 OA
ATOM     17  H10 <0> d           0.155  -0.966   3.161  0.00  0.00     0.209 HD
ENDBRANCH  13  16
ENDBRANCH   1  13
TORSDOF 3
