REMARK  2 active torsions:
REMARK  status: ('A' for Active; 'I' for Inactive)
REMARK    1  A    between atoms: C2_2  and  C6_9 
REMARK    2  A    between atoms: C3_3  and  C5_7 
ROOT
ATOM      1  C1  <0> d          -0.013   1.076   0.008  0.00  0.00    -0.006 A 
ATOM      2  C2  <0> d          -1.132   1.856   0.017  0.00  0.00     0.074 A 
ATOM      3  C3  <0> d          -0.653   3.253   0.025  0.00  0.00     0.074 A 
ATOM      4  C4  <0> d           0.709   3.183   0.012  0.00  0.00    -0.006 A 
ATOM      5  N1  <0> d           1.077   1.880   0.002  0.00  0.00    -0.373 N 
ATOM      6  H1  <0> d           1.995   1.566  -0.008  0.00  0.00     0.164 HD
ATOM      7  H2  <0> d           0.002  -0.004   0.002  0.00  0.00     0.112 H 
ATOM      8  H3  <0> d           1.383   4.027   0.010  0.00  0.00     0.112 H 
ENDROOT
BRANCH   2   9
ATOM      9  C6  <0> d          -2.529   1.399   0.020  0.00  0.00     0.211 C 
ATOM     10  O2  <0> d          -3.434   2.210   0.028  0.00  0.00    -0.644 OA
ATOM     11  O4  <0> d          -2.807   0.080   0.015  0.00  0.00    -0.644 OA
ENDBRANCH   2   9
BRANCH   3  12
ATOM     12  C5  <0> d          -1.477   4.471   0.039  0.00  0.00     0.211 C 
ATOM     13  O1  <0> d          -2.689   4.385   0.051  0.00  0.00    -0.644 OA
ATOM     14  O3  <0> d          -0.887   5.684   0.040  0.00  0.00    -0.644 OA
ENDBRANCH   3  12
TORSDOF 2
