REMARK  0 active torsions:
REMARK  status: ('A' for Active; 'I' for Inactive)
ROOT
ATOM      1  C1  <0> d          -2.388  -0.034   0.025  0.00  0.00    -0.057 A 
ATOM      2  C2  <0> d          -1.213  -0.718   0.010  0.00  0.00    -0.036 A 
ATOM      3  C3  <0> d           0.002  -0.004   0.002  0.00  0.00     0.133 A 
ATOM      4  N1  <0> d           1.268  -0.397  -0.012  0.00  0.00    -0.241 NA
ATOM      5  C4  <0> d           2.061   0.677  -0.014  0.00  0.00     0.020 A 
ATOM      6  C5  <0> d           1.286   1.784  -0.001  0.00  0.00     0.003 A 
ATOM      7  N2  <0> d          -0.017   1.366   0.010  0.00  0.00    -0.315 N 
ATOM      8  C6  <0> d          -1.203   2.042   0.029  0.00  0.00     0.007 A 
ATOM      9  C7  <0> d          -2.375   1.372   0.033  0.00  0.00     0.050 A 
ATOM     10 Cl1  <0> d          -3.873   2.250   0.053  0.00  0.00    -0.083 Cl
ATOM     11  H1  <0> d          -3.327  -0.568   0.032  0.00  0.00     0.086 H 
ATOM     12  H2  <0> d          -1.211  -1.798   0.004  0.00  0.00     0.089 H 
ATOM     13  H3  <0> d           3.140   0.663  -0.025  0.00  0.00     0.117 H 
ATOM     14  H4  <0> d           1.631   2.808   0.001  0.00  0.00     0.114 H 
ATOM     15  H5  <0> d          -1.204   3.122   0.036  0.00  0.00     0.114 H 
ENDROOT
TORSDOF 0
