REMARK  0 active torsions:
REMARK  status: ('A' for Active; 'I' for Inactive)
ROOT
ATOM      1  C1  <0> d           1.157   2.090   0.002  0.00  0.00    -0.082 A 
ATOM      2  C2  <0> d           2.379   1.420  -0.012  0.00  0.00    -0.081 A 
ATOM      3  C3  <0> d           2.434   0.059  -0.020  0.00  0.00    -0.054 A 
ATOM      4  C4  <0> d           1.244  -0.688  -0.013  0.00  0.00     0.066 A 
ATOM      5  C5  <0> d           0.002  -0.004   0.002  0.00  0.00    -0.006 A 
ATOM      6  C6  <0> d          -0.017   1.401   0.010  0.00  0.00    -0.071 A 
ATOM      7  C7  <0> d          -1.189  -0.748   0.009  0.00  0.00    -0.049 A 
ATOM      8  C8  <0> d          -1.092  -2.136  -0.000  0.00  0.00     0.063 A 
ATOM      9  C9  <0> d           0.178  -2.739  -0.016  0.00  0.00     0.023 A 
ATOM     10  N1  <0> d           1.275  -2.026  -0.022  0.00  0.00    -0.259 NA
ATOM     11  C10 <0> d          -2.274  -2.943   0.006  0.00  0.00     0.101 C 
ATOM     12  N2  <0> d          -3.213  -3.583   0.011  0.00  0.00    -0.191 NA
ATOM     13  H1  <0> d           1.142   3.170   0.008  0.00  0.00     0.083 H 
ATOM     14  H2  <0> d           3.297   1.988  -0.018  0.00  0.00     0.083 H 
ATOM     15  H3  <0> d           3.390  -0.444  -0.032  0.00  0.00     0.087 H 
ATOM     16  H4  <0> d          -0.958   1.932   0.017  0.00  0.00     0.084 H 
ATOM     17  H5  <0> d          -2.152  -0.258   0.021  0.00  0.00     0.087 H 
ATOM     18  H6  <0> d           0.250  -3.817  -0.023  0.00  0.00     0.117 H 
ENDROOT
TORSDOF 0
