REMARK  3 active torsions:
REMARK  status: ('A' for Active; 'I' for Inactive)
REMARK    1  A    between atoms: C1_1  and  C2_2 
REMARK    2  A    between atoms: C2_2  and  C7_9 
REMARK    3  A    between atoms: C3_3  and  C4_4 
ROOT
ATOM      1  C2  <0> d           1.132   1.734   0.004  0.00  0.00    -0.085 C 
ATOM      2  C3  <0> d          -0.018   1.067   0.014  0.00  0.00    -0.047 C 
ATOM      3  H4  <0> d          -0.016  -0.013  -0.004  0.00  0.00     0.088 H 
ENDROOT
BRANCH   1   4
ATOM      4  C1  <0> d           2.437   0.987   0.096  0.00  0.00    -0.055 C 
ATOM      5  H1  <0> d           2.784   0.736  -0.906  0.00  0.00     0.033 H 
ATOM      6  H2  <0> d           3.180   1.612   0.592  0.00  0.00     0.033 H 
ATOM      7  H3  <0> d           2.292   0.071   0.670  0.00  0.00     0.033 H 
ENDBRANCH   1   4
BRANCH   1   8
ATOM      8  C7  <0> d           1.130   3.237  -0.100  0.00  0.00    -0.055 C 
ATOM      9  H7  <0> d           0.662   3.662   0.788  0.00  0.00     0.033 H 
ATOM     10  H8  <0> d           2.156   3.598  -0.178  0.00  0.00     0.033 H 
ATOM     11  H9  <0> d           0.570   3.540  -0.985  0.00  0.00     0.033 H 
ENDBRANCH   1   8
BRANCH   2  12
ATOM     12  C4  <0> d          -1.294   1.800   0.042  0.00  0.00     0.102 A 
ATOM     13  O1  <0> d          -1.462   3.133  -0.029  0.00  0.00    -0.214 OA
ATOM     14  N1  <0> d          -2.632   3.433   0.020  0.00  0.00    -0.140 NA
ATOM     15  C6  <0> d          -3.401   2.386   0.128  0.00  0.00     0.032 A 
ATOM     16  C5  <0> d          -2.551   1.262   0.142  0.00  0.00    -0.029 A 
ATOM     17  H6  <0> d          -4.479   2.381   0.191  0.00  0.00     0.118 H 
ATOM     18  H5  <0> d          -2.826   0.221   0.215  0.00  0.00     0.090 H 
ENDBRANCH   2  12
TORSDOF 3
