REMARK  1 active torsions:
REMARK  status: ('A' for Active; 'I' for Inactive)
REMARK    1  A    between atoms: C5_7  and  C6_8 
ROOT
ATOM      1  C1  <0> d           3.481  -1.334  -0.468  0.00  0.00    -0.056 C 
ATOM      2  C2  <0> d           3.518   0.148  -0.032  0.00  0.00    -0.036 C 
ATOM      3  C3  <0> d           2.076   0.584  -0.015  0.00  0.00     0.012 A 
ATOM      4  C4  <0> d           1.254  -0.486  -0.012  0.00  0.00     0.087 A 
ATOM      5  O1  <0> d           0.002  -0.004   0.002  0.00  0.00    -0.216 OA
ATOM      6  N1  <0> d          -0.014   1.206   0.009  0.00  0.00    -0.121 NA
ATOM      7  C5  <0> d           1.200   1.700  -0.000  0.00  0.00     0.169 A 
ATOM      8  C7  <0> d           2.063  -1.762  -0.026  0.00  0.00    -0.017 C 
ATOM      9  H1  <0> d           3.597  -1.426  -1.548  0.00  0.00     0.034 H 
ATOM     10  H2  <0> d           4.243  -1.913   0.055  0.00  0.00     0.034 H 
ATOM     11  H3  <0> d           4.084   0.741  -0.750  0.00  0.00     0.040 H 
ATOM     12  H4  <0> d           3.953   0.240   0.963  0.00  0.00     0.040 H 
ATOM     13  H5  <0> d           2.094  -2.202   0.971  0.00  0.00     0.043 H 
ATOM     14  H6  <0> d           1.642  -2.470  -0.740  0.00  0.00     0.043 H 
ENDROOT
BRANCH   7  15
ATOM     15  C6  <0> d           1.580   3.133   0.004  0.00  0.00     0.231 C 
ATOM     16  O2  <0> d           2.752   3.450  -0.006  0.00  0.00    -0.643 OA
ATOM     17  O3  <0> d           0.626   4.083   0.019  0.00  0.00    -0.643 OA
ENDBRANCH   7  15
TORSDOF 1
