REMARK  2 active torsions:
REMARK  status: ('A' for Active; 'I' for Inactive)
REMARK    1  A    between atoms: C4_4  and  C8_11 
REMARK    2  A    between atoms: C8_11  and  O1_12 
ROOT
ATOM      1  C1  <0> d           2.383   0.084  -0.021  0.00  0.00    -0.065 A 
ATOM      2  C2  <0> d           1.227  -0.674  -0.014  0.00  0.00    -0.067 A 
ATOM      3  C3  <0> d           0.002  -0.004   0.002  0.00  0.00     0.020 A 
ATOM      4  C4  <0> d          -1.398  -0.432   0.014  0.00  0.00    -0.005 A 
ATOM      5  C5  <0> d          -2.146   0.683   0.028  0.00  0.00    -0.012 A 
ATOM      6  N1  <0> d          -1.337   1.787   0.030  0.00  0.00    -0.350 N 
ATOM      7  H1  <0> d          -1.780   2.794   0.046  0.00  0.00     0.166 HD
ATOM      8  C6  <0> d          -0.017   1.404   0.010  0.00  0.00     0.138 A 
ATOM      9  N2  <0> d           1.124   2.079   0.003  0.00  0.00    -0.242 NA
ATOM     10  C7  <0> d           2.289   1.467  -0.013  0.00  0.00     0.004 A 
ATOM     11  H2  <0> d           3.350  -0.396  -0.033  0.00  0.00     0.085 H 
ATOM     12  H3  <0> d           1.270  -1.753  -0.019  0.00  0.00     0.085 H 
ATOM     13  H4  <0> d          -3.225   0.705   0.039  0.00  0.00     0.112 H 
ATOM     14  H5  <0> d           3.194   2.057  -0.019  0.00  0.00     0.114 H 
ENDROOT
BRANCH   4  15
ATOM     15  C8  <0> d          -1.903  -1.852   0.012  0.00  0.00     0.043 C 
ATOM     16  H6  <0> d          -1.546  -2.366  -0.892  0.00  0.00     0.081 H 
ATOM     17  H7  <0> d          -1.528  -2.376   0.904  0.00  0.00     0.081 H 
BRANCH  15  18
ATOM     18  O1  <0> d          -3.332  -1.849   0.026  0.00  0.00    -0.396 OA
ATOM     19  H8  <0> d          -3.883  -2.801   0.027  0.00  0.00     0.209 HD
ENDBRANCH  15  18
ENDBRANCH   4  15
TORSDOF 2
