REMARK  3 active torsions:
REMARK  status: ('A' for Active; 'I' for Inactive)
REMARK    1  A    between atoms: C1_1  and  C2_2 
REMARK    2  A    between atoms: C1_1  and  C4_9 
REMARK    3  A    between atoms: C3_4  and  N4_8 
REMARK       I    between atoms: C4_9  and  N5_11 
ROOT
ATOM      1  C2  <0> d           0.002  -0.004   0.002  0.00  0.00     0.174 A 
ATOM      2  N1  <0> d           0.007  -0.771  -1.089  0.00  0.00    -0.046 NA
ATOM      3  C3  <0> d           0.027  -2.040  -0.739  0.00  0.00     0.716 A 
ATOM      4  N2  <0> d           0.034  -2.096   0.610  0.00  0.00    -0.106 N 
ATOM      5  H1  <0> d           0.048  -2.897   1.158  0.00  0.00     0.208 HD
ATOM      6  N3  <0> d           0.023  -0.767   1.062  0.00  0.00    -0.143 NA
ENDROOT
BRANCH   1   7
ATOM      7  C1  <0> d          -0.018   1.503   0.010  0.00  0.00     0.068 C 
ATOM      8  H2  <0> d          -0.545   1.864  -0.873  0.00  0.00     0.059 H 
ATOM      9  H3  <0> d          -0.529   1.854   0.907  0.00  0.00     0.059 H 
BRANCH   7  10
ATOM     10  C4  <0> d           1.395   2.024  -0.000  0.00  0.00     0.222 C 
ATOM     11  O1  <0> d           2.328   1.249  -0.013  0.00  0.00    -0.273 OA
ATOM     12  N5  <0> d           1.624   3.353   0.005  0.00  0.00    -0.370 N 
ATOM     13  H6  <0> d           0.878   3.973   0.015  0.00  0.00     0.159 HD
ATOM     14  H7  <0> d           2.534   3.688  -0.002  0.00  0.00     0.159 HD
ENDBRANCH   7  10
ENDBRANCH   1   7
BRANCH   3  15
ATOM     15  N4  <0> d           0.037  -3.122  -1.600  0.00  0.00    -0.231 N 
ATOM     16  H4  <0> d           0.031  -2.979  -2.559  0.00  0.00     0.174 HD
ATOM     17  H5  <0> d           0.051  -4.025  -1.244  0.00  0.00     0.174 HD
ENDBRANCH   3  15
TORSDOF 3
