REMARK  4 active torsions:
REMARK  status: ('A' for Active; 'I' for Inactive)
REMARK    1  A    between atoms: C1_1  and  C2_2 
REMARK    2  A    between atoms: C3_3  and  N4_10 
REMARK    3  A    between atoms: C4_5  and  C6_9 
REMARK    4  A    between atoms: C5_7  and  N3_8 
ROOT
ATOM      1  C2  <0> d          -0.718   1.572   1.248  0.00  0.00     0.029 A 
ATOM      2  C3  <0> d          -2.091   1.797   1.246  0.00  0.00     0.133 A 
ATOM      3  N1  <0> d          -2.678   2.221   2.364  0.00  0.00    -0.216 NA
ATOM      4  C4  <0> d          -1.975   2.438   3.457  0.00  0.00     0.126 A 
ATOM      5  N2  <0> d          -0.672   2.242   3.497  0.00  0.00    -0.216 NA
ATOM      6  C5  <0> d          -0.012   1.813   2.423  0.00  0.00     0.133 A 
ENDROOT
BRANCH   1   7
ATOM      7  C1  <0> d          -0.013   1.086   0.008  0.00  0.00    -0.044 C 
ATOM      8  H1  <0> d          -0.744   0.958  -0.804  0.00  0.00     0.033 H 
ATOM      9  H2  <0> d           0.475   0.122   0.217  0.00  0.00     0.033 H 
ATOM     10  H3  <0> d           0.746   1.822  -0.295  0.00  0.00     0.033 H 
ENDBRANCH   1   7
BRANCH   6  11
ATOM     11  N3  <0> d           1.358   1.610   2.474  0.00  0.00    -0.383 N 
ATOM     12  H4  <0> d           1.908   1.803   3.407  0.00  0.00     0.157 HD
ATOM     13  H5  <0> d           1.896   1.256   1.582  0.00  0.00     0.157 HD
ENDBRANCH   6  11
BRANCH   2  14
ATOM     14  N4  <0> d          -2.838   1.577   0.099  0.00  0.00    -0.383 N 
ATOM     15  H9  <0> d          -3.924   1.758   0.107  0.00  0.00     0.157 HD
ATOM     16  H10 <0> d          -2.346   1.223  -0.818  0.00  0.00     0.157 HD
ENDBRANCH   2  14
BRANCH   4  17
ATOM     17  C6  <0> d          -2.680   2.924   4.696  0.00  0.00    -0.019 C 
ATOM     18  H6  <0> d          -1.949   3.051   5.508  0.00  0.00     0.037 H 
ATOM     19  H7  <0> d          -3.439   2.188   4.999  0.00  0.00     0.037 H 
ATOM     20  H8  <0> d          -3.167   3.888   4.487  0.00  0.00     0.037 H 
ENDBRANCH   4  17
TORSDOF 4
