REMARK  2 active torsions:
REMARK  status: ('A' for Active; 'I' for Inactive)
REMARK    1  A    between atoms: C7_9  and  C8_11 
REMARK    2  A    between atoms: C8_11  and  C9_12 
ROOT
ATOM      1  C1  <0> d          -0.735   1.354  -1.026  0.00  0.00    -0.061 C 
ATOM      2  C2  <0> d           0.038   0.968   0.256  0.00  0.00    -0.061 C 
ATOM      3  C3  <0> d          -0.772   1.618   1.419  0.00  0.00    -0.050 C 
ATOM      4  H1  <0> d          -0.600   1.200   2.411  0.00  0.00     0.040 H 
ATOM      5  C4  <0> d          -2.234   1.496   0.853  0.00  0.00    -0.058 C 
ATOM      6  C5  <0> d          -1.942   2.200  -0.519  0.00  0.00    -0.053 C 
ATOM      7  H2  <0> d          -2.784   2.288  -1.205  0.00  0.00     0.040 H 
ATOM      8  C6  <0> d          -1.305   3.543  -0.046  0.00  0.00    -0.058 C 
ATOM      9  C7  <0> d          -0.527   3.149   1.256  0.00  0.00    -0.041 C 
ATOM     10  H3  <0> d          -0.921   3.690   2.117  0.00  0.00     0.041 H 
ATOM     11  H4  <0> d          -0.103   1.949  -1.686  0.00  0.00     0.033 H 
ATOM     12  H5  <0> d          -1.087   0.460  -1.541  0.00  0.00     0.033 H 
ATOM     13  H6  <0> d           0.066  -0.116   0.371  0.00  0.00     0.033 H 
ATOM     14  H7  <0> d           1.050   1.371   0.225  0.00  0.00     0.033 H 
ATOM     15  H8  <0> d          -2.952   2.053   1.454  0.00  0.00     0.034 H 
ATOM     16  H9  <0> d          -2.538   0.457   0.722  0.00  0.00     0.034 H 
ATOM     17  H10 <0> d          -0.629   3.932  -0.808  0.00  0.00     0.034 H 
ATOM     18  H11 <0> d          -2.083   4.273   0.181  0.00  0.00     0.034 H 
ENDROOT
BRANCH   9  19
ATOM     19  C8  <0> d           0.966   3.436   1.085  0.00  0.00     0.019 C 
ATOM     20  H12 <0> d           1.520   2.979   1.906  0.00  0.00     0.049 H 
ATOM     21  H13 <0> d           1.310   3.019   0.139  0.00  0.00     0.049 H 
BRANCH  19  22
ATOM     22  C9  <0> d           1.196   4.925   1.091  0.00  0.00     0.172 C 
ATOM     23  O1  <0> d           0.261   5.680   1.219  0.00  0.00    -0.648 OA
ATOM     24  O2  <0> d           2.439   5.413   0.954  0.00  0.00    -0.648 OA
ENDBRANCH  19  22
ENDBRANCH   9  19
TORSDOF 2
