REMARK  1 active torsions:
REMARK  status: ('A' for Active; 'I' for Inactive)
REMARK    1  A    between atoms: C2_2  and  C3_6 
ROOT
ATOM      1  C1  <0> d           2.424   3.948   0.006  0.00  0.00     0.067 A 
ATOM      2  C2  <0> d           1.238   3.071   0.007  0.00  0.00     0.182 A 
ATOM      3  N1  <0> d           0.243   3.934   0.021  0.00  0.00    -0.097 NA
ATOM      4  O1  <0> d           0.692   5.056   0.023  0.00  0.00    -0.106 OA
ATOM      5  N2  <0> d           1.897   5.144   0.011  0.00  0.00    -0.115 NA
ATOM      6  H1  <0> d           3.467   3.671   0.000  0.00  0.00     0.122 H 
ENDROOT
BRANCH   2   7
ATOM      7  C3  <0> d           1.180   1.590  -0.001  0.00  0.00     0.232 C 
ATOM      8  O2  <0> d           2.207   0.943  -0.014  0.00  0.00    -0.643 OA
ATOM      9  O3  <0> d          -0.011   0.963   0.007  0.00  0.00    -0.643 OA
ENDBRANCH   2   7
TORSDOF 1
