REMARK  0 active torsions:
REMARK  status: ('A' for Active; 'I' for Inactive)
ROOT
ATOM      1  C1  <0> d           1.210  -0.677  -0.013  0.00  0.00    -0.082 A 
ATOM      2  C2  <0> d           0.002  -0.004   0.002  0.00  0.00    -0.082 A 
ATOM      3  C3  <0> d          -0.017   1.376   0.010  0.00  0.00    -0.076 A 
ATOM      4  C4  <0> d           1.172   2.091   0.002  0.00  0.00    -0.044 A 
ATOM      5  C5  <0> d           2.376   1.419  -0.013  0.00  0.00    -0.044 A 
ATOM      6  C6  <0> d           2.394   0.033  -0.021  0.00  0.00    -0.076 A 
ATOM      7  C7  <0> d           3.515   2.409  -0.020  0.00  0.00     0.015 A 
ATOM      8  C8  <0> d           2.909   3.792  -0.006  0.00  0.00     0.135 A 
ATOM      9  O1  <0> d           3.497   4.847  -0.007  0.00  0.00    -0.297 OA
ATOM     10  C9  <0> d           1.414   3.580   0.007  0.00  0.00     0.015 A 
ATOM     11  H1  <0> d           1.227  -1.757  -0.019  0.00  0.00     0.083 H 
ATOM     12  H2  <0> d          -0.925  -0.557   0.008  0.00  0.00     0.083 H 
ATOM     13  H3  <0> d          -0.960   1.902   0.017  0.00  0.00     0.084 H 
ATOM     14  H4  <0> d           3.337  -0.493  -0.032  0.00  0.00     0.084 H 
ATOM     15  H5  <0> d           4.087   2.264   0.788  0.00  0.00     0.051 H 
ATOM     16  H6  <0> d           4.117   2.276  -0.919  0.00  0.00     0.051 H 
ATOM     17  H7  <0> d           0.991   3.990  -0.801  0.00  0.00     0.051 H 
ATOM     18  H8  <0> d           0.983   4.023   0.905  0.00  0.00     0.051 H 
ENDROOT
TORSDOF 0
