REMARK  0 active torsions:
REMARK  status: ('A' for Active; 'I' for Inactive)
ROOT
ATOM      1  C1  <0> d           2.176   0.008  -1.227  0.00  0.00    -0.058 C 
ATOM      2  C2  <0> d           0.735  -0.507  -1.240  0.00  0.00    -0.052 C 
ATOM      3  C3  <0> d           0.002  -0.004   0.002  0.00  0.00    -0.052 C 
ATOM      4  C4  <0> d          -0.019   1.530   0.011  0.00  0.00     0.005 C 
ATOM      5  C5  <0> d           1.424   2.050  -0.001  0.00  0.00    -0.052 C 
ATOM      6  C6  <0> d           2.152   1.539  -1.243  0.00  0.00    -0.052 C 
ATOM      7  C7  <0> d           1.458   2.024  -2.515  0.00  0.00    -0.052 C 
ATOM      8  C8  <0> d           0.017   1.502  -2.554  0.00  0.00     0.005 C 
ATOM      9  C9  <0> d           0.036  -0.031  -2.512  0.00  0.00    -0.052 C 
ATOM     10  C10 <0> d          -0.674   1.981  -1.286  0.00  0.00     0.135 C 
ATOM     11  O1  <0> d          -1.666   2.669  -1.307  0.00  0.00    -0.297 OA
ATOM     12  H1  <0> d           2.681  -0.340  -0.326  0.00  0.00     0.034 H 
ATOM     13  H2  <0> d           2.703  -0.357  -2.109  0.00  0.00     0.034 H 
ATOM     14  H3  <0> d           0.756  -1.597  -1.228  0.00  0.00     0.040 H 
ATOM     15  H4  <0> d           0.513  -0.364   0.895  0.00  0.00     0.034 H 
ATOM     16  H5  <0> d          -1.021  -0.380  -0.006  0.00  0.00     0.034 H 
ATOM     17  H6  <0> d          -0.515   1.852   0.817  0.00  0.00     0.051 H 
ATOM     18  H7  <0> d           1.416   3.140  -0.009  0.00  0.00     0.034 H 
ATOM     19  H8  <0> d           1.942   1.700   0.892  0.00  0.00     0.034 H 
ATOM     20  H9  <0> d           3.179   1.903  -1.232  0.00  0.00     0.040 H 
ATOM     21  H10 <0> d           2.001   1.656  -3.386  0.00  0.00     0.034 H 
ATOM     22  H11 <0> d           1.449   3.114  -2.528  0.00  0.00     0.034 H 
ATOM     23  H12 <0> d          -0.436   1.837  -3.380  0.00  0.00     0.051 H 
ATOM     24  H13 <0> d           0.570  -0.411  -3.383  0.00  0.00     0.034 H 
ATOM     25  H14 <0> d          -0.988  -0.406  -2.525  0.00  0.00     0.034 H 
ENDROOT
TORSDOF 0
