REMARK  3 active torsions:
REMARK  status: ('A' for Active; 'I' for Inactive)
REMARK    1  A    between atoms: C1_1  and  C2_2 
REMARK    2  A    between atoms: C6_7  and  C7_8 
REMARK    3  A    between atoms: C7_8  and  O1_9 
ROOT
ATOM      1  C2  <0> d           0.002  -0.004   0.002  0.00  0.00    -0.035 A 
ATOM      2  C3  <0> d          -0.017   1.383   0.010  0.00  0.00    -0.074 A 
ATOM      3  C4  <0> d           1.193   2.059   0.002  0.00  0.00    -0.066 A 
ATOM      4  C5  <0> d           2.370   1.334  -0.013  0.00  0.00     0.003 A 
ATOM      5  N1  <0> d           2.350   0.015  -0.020  0.00  0.00    -0.263 NA
ATOM      6  C6  <0> d           1.218  -0.661  -0.013  0.00  0.00     0.063 A 
ATOM      7  H4  <0> d          -0.952   1.923   0.017  0.00  0.00     0.084 H 
ATOM      8  H5  <0> d           1.216   3.139   0.007  0.00  0.00     0.085 H 
ATOM      9  H6  <0> d           3.317   1.853  -0.019  0.00  0.00     0.114 H 
ENDROOT
BRANCH   6  10
ATOM     10  C7  <0> d           1.250  -2.168  -0.021  0.00  0.00     0.057 C 
ATOM     11  H7  <0> d           2.152  -2.514   0.482  0.00  0.00     0.083 H 
ATOM     12  H8  <0> d           0.373  -2.553   0.499  0.00  0.00     0.083 H 
BRANCH  10  13
ATOM     13  O1  <0> d           1.248  -2.636  -1.371  0.00  0.00    -0.395 OA
ATOM     14  H9  <0> d           1.268  -3.600  -1.453  0.00  0.00     0.209 HD
ENDBRANCH  10  13
ENDBRANCH   6  10
BRANCH   1  15
ATOM     15  C1  <0> d          -1.287  -0.785   0.011  0.00  0.00    -0.049 C 
ATOM     16  H1  <0> d          -1.608  -0.967  -1.015  0.00  0.00     0.033 H 
ATOM     17  H2  <0> d          -1.132  -1.737   0.518  0.00  0.00     0.033 H 
ATOM     18  H3  <0> d          -2.054  -0.214   0.535  0.00  0.00     0.033 H 
ENDBRANCH   1  15
TORSDOF 3
