REMARK  3 active torsions:
REMARK  status: ('A' for Active; 'I' for Inactive)
REMARK    1  A    between atoms: C1_1  and  C2_2 
REMARK    2  A    between atoms: C2_2  and  C3_3 
REMARK    3  A    between atoms: C3_3  and  C4_4 
ROOT
ATOM      1  C4  <0> d          -0.705   1.566   3.765  0.00  0.00     0.131 C 
ATOM      2  O1  <0> d          -0.623   2.992   3.832  0.00  0.00    -0.361 OA
ATOM      3  C5  <0> d          -1.243   3.551   4.994  0.00  0.00     0.024 C 
ATOM      4  C6  <0> d          -0.590   2.950   6.244  0.00  0.00    -0.025 C 
ATOM      5  C7  <0> d          -0.667   1.422   6.157  0.00  0.00     0.024 C 
ATOM      6  O2  <0> d          -0.084   0.998   4.921  0.00  0.00    -0.361 OA
ATOM      7  H8  <0> d          -1.752   1.263   3.730  0.00  0.00     0.129 H 
ATOM      8  H9  <0> d          -2.307   3.316   4.989  0.00  0.00     0.074 H 
ATOM      9  H10 <0> d          -1.108   4.633   4.997  0.00  0.00     0.074 H 
ATOM     10  H11 <0> d          -1.121   3.292   7.133  0.00  0.00     0.039 H 
ATOM     11  H12 <0> d           0.453   3.261   6.297  0.00  0.00     0.039 H 
ATOM     12  H13 <0> d          -1.709   1.106   6.195  0.00  0.00     0.074 H 
ATOM     13  H14 <0> d          -0.119   0.981   6.989  0.00  0.00     0.074 H 
ENDROOT
BRANCH   1  14
ATOM     14  C3  <0> d           0.011   1.072   2.506  0.00  0.00    -0.019 C 
ATOM     15  H6  <0> d           0.026  -0.018   2.500  0.00  0.00     0.040 H 
ATOM     16  H7  <0> d           1.034   1.450   2.499  0.00  0.00     0.040 H 
BRANCH  14  17
ATOM     17  C2  <0> d          -0.729   1.579   1.267  0.00  0.00    -0.064 C 
ATOM     18  H4  <0> d          -0.744   2.669   1.273  0.00  0.00     0.032 H 
ATOM     19  H5  <0> d          -1.751   1.202   1.275  0.00  0.00     0.032 H 
BRANCH  17  20
ATOM     20  C1  <0> d          -0.013   1.086   0.008  0.00  0.00    -0.076 C 
ATOM     21  H1  <0> d           0.002  -0.004   0.002  0.00  0.00     0.027 H 
ATOM     22  H2  <0> d           1.010   1.463   0.000  0.00  0.00     0.027 H 
ATOM     23  H3  <0> d          -0.540   1.447  -0.875  0.00  0.00     0.027 H 
ENDBRANCH  17  20
ENDBRANCH  14  17
ENDBRANCH   1  14
TORSDOF 3
