REMARK  2 active torsions:
REMARK  status: ('A' for Active; 'I' for Inactive)
REMARK    1  A    between atoms: C1_1  and  C2_2 
REMARK    2  A    between atoms: C4_4  and  C5_8 
REMARK       I    between atoms: C5_8  and  N3_10 
ROOT
ATOM      1  C2  <0> d          -1.888   5.197   0.040  0.00  0.00     0.026 A 
ATOM      2  C3  <0> d          -2.356   3.927   0.029  0.00  0.00    -0.025 A 
ATOM      3  C4  <0> d          -1.207   3.101   0.025  0.00  0.00     0.146 A 
ATOM      4  N1  <0> d          -0.159   3.899   0.024  0.00  0.00    -0.169 NA
ATOM      5  N2  <0> d          -0.539   5.126   0.032  0.00  0.00    -0.282 N 
ATOM      6  H1  <0> d           0.075   5.915   0.033  0.00  0.00     0.189 HD
ATOM      7  H5  <0> d          -3.389   3.611   0.027  0.00  0.00     0.090 H 
ENDROOT
BRANCH   3   8
ATOM      8  C5  <0> d          -1.187   1.624   0.017  0.00  0.00     0.269 C 
ATOM      9  O1  <0> d          -2.232   1.002   0.018  0.00  0.00    -0.266 OA
ATOM     10  N3  <0> d          -0.011   0.966   0.007  0.00  0.00    -0.365 N 
ATOM     11  H6  <0> d           0.002  -0.004   0.002  0.00  0.00     0.159 HD
ATOM     12  H7  <0> d           0.822   1.462   0.002  0.00  0.00     0.159 HD
ENDBRANCH   3   8
BRANCH   1  13
ATOM     13  C1  <0> d          -2.717   6.456   0.051  0.00  0.00    -0.036 C 
ATOM     14  H2  <0> d          -2.922   6.764  -0.974  0.00  0.00     0.035 H 
ATOM     15  H3  <0> d          -3.657   6.267   0.569  0.00  0.00     0.035 H 
ATOM     16  H4  <0> d          -2.171   7.246   0.566  0.00  0.00     0.035 H 
ENDBRANCH   1  13
TORSDOF 2
