REMARK  0 active torsions:
REMARK  status: ('A' for Active; 'I' for Inactive)
ROOT
ATOM      1  C1  <0> d           1.383   1.810  -0.001  0.00  0.00    -0.050 C 
ATOM      2  C2  <0> d           0.742   3.242  -0.108  0.00  0.00    -0.035 C 
ATOM      3  H1  <0> d           1.431   4.079  -0.217  0.00  0.00     0.046 H 
ATOM      4  C3  <0> d          -0.153   3.246   1.172  0.00  0.00    -0.026 C 
ATOM      5  C4  <0> d          -0.673   1.762   1.252  0.00  0.00     0.133 C 
ATOM      6  C5  <0> d          -0.013   1.086   0.008  0.00  0.00    -0.004 C 
ATOM      7  H2  <0> d           0.002  -0.004   0.002  0.00  0.00     0.050 H 
ATOM      8  C6  <0> d          -0.667   1.764  -1.202  0.00  0.00    -0.099 C 
ATOM      9  C7  <0> d          -0.232   3.006  -1.269  0.00  0.00    -0.102 C 
ATOM     10  C8  <0> d          -2.140   1.722   1.145  0.00  0.00     0.086 C 
ATOM     11  N1  <0> d          -3.273   1.690   1.062  0.00  0.00    -0.195 NA
ATOM     12 Cl1  <0> d          -0.124   0.964   2.773  0.00  0.00    -0.102 Cl
ATOM     13  H3  <0> d           1.934   1.667   0.928  0.00  0.00     0.035 H 
ATOM     14  H4  <0> d           1.980   1.554  -0.876  0.00  0.00     0.035 H 
ATOM     15  H5  <0> d           0.437   3.502   2.052  0.00  0.00     0.038 H 
ATOM     16  H6  <0> d          -0.988   3.937   1.054  0.00  0.00     0.038 H 
ATOM     17  H7  <0> d          -1.365   1.302  -1.884  0.00  0.00     0.077 H 
ATOM     18  H8  <0> d          -0.514   3.735  -2.014  0.00  0.00     0.076 H 
ENDROOT
TORSDOF 0
