REMARK  3 active torsions:
REMARK  status: ('A' for Active; 'I' for Inactive)
REMARK    1  A    between atoms: C2_2  and  C3_3 
REMARK    2  A    between atoms: C3_3  and  N1_4 
REMARK    3  A    between atoms: N1_4  and  C4_5 
ROOT
ATOM      1  N1  <0> d          -0.011   0.966   0.007  0.00  0.00    -0.366 N 
ATOM      2  H6  <0> d           0.004  -0.134   0.006  0.00  0.00     0.162 HD
ENDROOT
BRANCH   1   3
ATOM      3  C3  <0> d           1.248   1.716  -0.001  0.00  0.00     0.009 C 
ATOM      4  H4  <0> d           1.306   2.344   0.900  0.00  0.00     0.070 H 
ATOM      5  H5  <0> d           1.289   2.353  -0.896  0.00  0.00     0.070 H 
BRANCH   3   6
ATOM      6  C2  <0> d           2.406   0.752  -0.017  0.00  0.00    -0.095 C 
ATOM      7  C1  <0> d           3.317   0.838  -0.955  0.00  0.00    -0.123 C 
ATOM      8  H1  <0> d           4.163   0.135  -0.966  0.00  0.00     0.066 H 
ATOM      9  H2  <0> d           3.236   1.614  -1.730  0.00  0.00     0.066 H 
ATOM     10  H3  <0> d           2.487  -0.024   0.758  0.00  0.00     0.078 H 
ENDBRANCH   3   6
ENDBRANCH   1   3
BRANCH   1  11
ATOM     11  C4  <0> d          -1.221   1.643   0.017  0.00  0.00     0.166 A 
ATOM     12  S1  <0> d          -2.832   0.996   0.021  0.00  0.00    -0.063 SA
ATOM     13  C6  <0> d          -3.708   2.554   0.034  0.00  0.00    -0.025 A 
ATOM     14  C5  <0> d          -2.672   3.425   0.034  0.00  0.00     0.011 A 
ATOM     15  H8  <0> d          -4.771   2.747   0.041  0.00  0.00     0.097 H 
ATOM     16  N2  <0> d          -1.443   2.943   0.031  0.00  0.00    -0.236 NA
ATOM     17  H7  <0> d          -2.846   4.491   0.042  0.00  0.00     0.115 H 
ENDBRANCH   1  11
TORSDOF 3
