REMARK  1 active torsions:
REMARK  status: ('A' for Active; 'I' for Inactive)
REMARK    1  A    between atoms: C1_1  and  C2_2 
ROOT
ATOM      1  C2  <0> d          -0.013   1.086   0.008  0.00  0.00     0.011 A 
ATOM      2  H1  <0> d           0.002  -0.004   0.002  0.00  0.00     0.059 H 
ATOM      3  C3  <0> d          -0.810   1.620   1.207  0.00  0.00     0.018 A 
ATOM      4  N1  <0> d          -1.989   2.407   0.845  0.00  0.00    -0.275 N 
ATOM      5  C4  <0> d          -2.974   3.066   1.533  0.00  0.00     0.344 A 
ATOM      6  O1  <0> d          -3.074   3.134   2.745  0.00  0.00    -0.245 OA
ATOM      7  N2  <0> d          -3.810   3.624   0.642  0.00  0.00    -0.226 N 
ATOM      8  H2  <0> d          -4.599   4.151   0.846  0.00  0.00     0.194 HD
ATOM      9  N3  <0> d          -3.335   3.304  -0.636  0.00  0.00    -0.145 NA
ATOM     10  C5  <0> d          -2.263   2.588  -0.489  0.00  0.00     0.192 A 
ATOM     11  S1  <0> d          -0.991   1.738  -1.396  0.00  0.00    -0.084 SA
ATOM     12  H6  <0> d          -1.132   0.774   1.813  0.00  0.00     0.067 H 
ATOM     13  H7  <0> d          -0.152   2.246   1.810  0.00  0.00     0.067 H 
ENDROOT
BRANCH   1  14
ATOM     14  C1  <0> d           1.409   1.652  -0.003  0.00  0.00    -0.062 C 
ATOM     15  H3  <0> d           1.941   1.314   0.887  0.00  0.00     0.029 H 
ATOM     16  H4  <0> d           1.932   1.303  -0.893  0.00  0.00     0.029 H 
ATOM     17  H5  <0> d           1.366   2.741  -0.009  0.00  0.00     0.029 H 
ENDBRANCH   1  14
TORSDOF 1
