REMARK  4 active torsions:
REMARK  status: ('A' for Active; 'I' for Inactive)
REMARK    1  A    between atoms: C1_1  and  C2_2 
REMARK    2  A    between atoms: C4_4  and  C6_7 
REMARK    3  A    between atoms: C6_7  and  O2_9 
REMARK    4  A    between atoms: O2_9  and  C7_10 
ROOT
ATOM      1  C2  <0> d          -3.677   1.970   0.031  0.00  0.00    -0.021 A 
ATOM      2  C3  <0> d          -2.555   1.224   0.015  0.00  0.00    -0.054 A 
ATOM      3  C4  <0> d          -1.298   1.929   0.019  0.00  0.00     0.046 A 
ATOM      4  C5  <0> d          -1.352   3.308   0.026  0.00  0.00    -0.029 A 
ATOM      5  S1  <0> d          -3.052   3.638   0.036  0.00  0.00    -0.106 SA
ATOM      6  H4  <0> d          -2.596   0.145   0.005  0.00  0.00     0.086 H 
ATOM      7  H5  <0> d          -0.533   4.012   0.025  0.00  0.00     0.096 H 
ENDROOT
BRANCH   3   8
ATOM      8  C6  <0> d          -0.014   1.211   0.009  0.00  0.00     0.293 C 
ATOM      9  O1  <0> d           0.002  -0.004   0.002  0.00  0.00    -0.259 OA
BRANCH   8  10
ATOM     10  O2  <0> d           1.144   1.901   0.001  0.00  0.00    -0.323 OA
BRANCH  10  11
ATOM     11  C7  <0> d           2.372   1.127  -0.015  0.00  0.00     0.013 C 
ATOM     12  H6  <0> d           2.414   0.494   0.872  0.00  0.00     0.067 H 
ATOM     13  H7  <0> d           2.397   0.503  -0.908  0.00  0.00     0.067 H 
ATOM     14  H8  <0> d           3.227   1.803  -0.019  0.00  0.00     0.067 H 
ENDBRANCH  10  11
ENDBRANCH   8  10
ENDBRANCH   3   8
BRANCH   1  15
ATOM     15  C1  <0> d          -5.111   1.507   0.035  0.00  0.00    -0.045 C 
ATOM     16  H1  <0> d          -5.772   2.373   0.043  0.00  0.00     0.034 H 
ATOM     17  H2  <0> d          -5.302   0.911  -0.857  0.00  0.00     0.034 H 
ATOM     18  H3  <0> d          -5.294   0.901   0.923  0.00  0.00     0.034 H 
ENDBRANCH   1  15
TORSDOF 4
