REMARK  4 active torsions:
REMARK  status: ('A' for Active; 'I' for Inactive)
REMARK    1  A    between atoms: C1_1  and  C2_2 
REMARK    2  A    between atoms: C2_2  and  C3_3 
REMARK    3  A    between atoms: C3_3  and  C4_5 
REMARK    4  A    between atoms: C3_3  and  O2_7 
ROOT
ATOM      1  C2  <0> d          -0.729   1.579   1.267  0.00  0.00    -0.035 C 
ATOM      2  H5  <0> d          -1.751   1.202   1.275  0.00  0.00     0.036 H 
ATOM      3  H6  <0> d          -0.202   1.218   2.150  0.00  0.00     0.036 H 
ENDROOT
BRANCH   1   4
ATOM      4  C1  <0> d          -0.013   1.086   0.008  0.00  0.00    -0.074 C 
ATOM      5  H2  <0> d           0.002  -0.004   0.002  0.00  0.00     0.027 H 
ATOM      6  H3  <0> d           1.010   1.463   0.000  0.00  0.00     0.027 H 
ATOM      7  H4  <0> d          -0.540   1.447  -0.875  0.00  0.00     0.027 H 
ENDBRANCH   1   4
BRANCH   1   8
ATOM      8  C3  <0> d          -0.750   3.109   1.275  0.00  0.00     0.118 C 
ATOM      9  H1  <0> d           0.268   3.487   1.178  0.00  0.00     0.100 H 
BRANCH   8  10
ATOM     10  C4  <0> d          -1.345   3.596   2.571  0.00  0.00     0.203 C 
ATOM     11  O1  <0> d          -2.391   4.200   2.566  0.00  0.00    -0.646 OA
ATOM     12  O3  <0> d          -0.712   3.359   3.731  0.00  0.00    -0.646 OA
ENDBRANCH   8  10
BRANCH   8  13
ATOM     13  O2  <0> d          -1.539   3.581   0.182  0.00  0.00    -0.385 OA
ATOM     14  H7  <0> d          -2.459   3.283   0.203  0.00  0.00     0.210 HD
ENDBRANCH   8  13
ENDBRANCH   1   8
TORSDOF 4
