REMARK  2 active torsions:
REMARK  status: ('A' for Active; 'I' for Inactive)
REMARK    1  A    between atoms: C1_1  and  C2_2 
REMARK    2  A    between atoms: C7_9  and  C8_11 
ROOT
ATOM      1  C2  <0> d          -0.060   3.879  -0.961  0.00  0.00    -0.054 C 
ATOM      2  H1  <0> d          -0.057   4.342   0.026  0.00  0.00     0.040 H 
ATOM      3  C3  <0> d          -1.301   2.996  -1.105  0.00  0.00    -0.056 C 
ATOM      4  C4  <0> d          -1.323   1.961   0.019  0.00  0.00    -0.009 C 
ATOM      5  C5  <0> d          -0.014   1.203   0.009  0.00  0.00     0.127 C 
ATOM      6  O1  <0> d           0.002  -0.004   0.002  0.00  0.00    -0.298 OA
ATOM      7  C6  <0> d           1.274   1.997   0.001  0.00  0.00    -0.006 C 
ATOM      8  C7  <0> d           1.202   3.030  -1.128  0.00  0.00    -0.048 C 
ATOM      9  H2  <0> d           1.171   2.518  -2.089  0.00  0.00     0.040 H 
ATOM     10  H6  <0> d          -2.196   3.616  -1.048  0.00  0.00     0.034 H 
ATOM     11  H7  <0> d          -1.273   2.485  -2.067  0.00  0.00     0.034 H 
ATOM     12  H8  <0> d          -2.084   1.329  -0.126  0.00  0.00     0.044 H 
ATOM     13  H9  <0> d          -1.446   2.467   0.976  0.00  0.00     0.044 H 
ATOM     14  H10 <0> d           1.386   2.459   0.880  0.00  0.00     0.044 H 
ATOM     15  H11 <0> d           2.116   1.325  -0.167  0.00  0.00     0.044 H 
ENDROOT
BRANCH   1  16
ATOM     16  C1  <0> d          -0.085   4.970  -2.033  0.00  0.00    -0.073 C 
ATOM     17  H3  <0> d          -0.084   4.509  -3.021  0.00  0.00     0.028 H 
ATOM     18  H4  <0> d          -0.983   5.575  -1.915  0.00  0.00     0.028 H 
ATOM     19  H5  <0> d           0.796   5.603  -1.927  0.00  0.00     0.028 H 
ENDBRANCH   1  16
BRANCH   8  20
ATOM     20  C8  <0> d           2.436   3.934  -1.072  0.00  0.00    -0.072 C 
ATOM     21  H12 <0> d           3.335   3.329  -1.190  0.00  0.00     0.028 H 
ATOM     22  H13 <0> d           2.385   4.669  -1.875  0.00  0.00     0.028 H 
ATOM     23  H14 <0> d           2.467   4.447  -0.111  0.00  0.00     0.028 H 
ENDBRANCH   8  20
TORSDOF 2
