REMARK  3 active torsions:
REMARK  status: ('A' for Active; 'I' for Inactive)
REMARK    1  A    between atoms: C1_1  and  C2_2 
REMARK    2  A    between atoms: C4_5  and  C7_11 
REMARK    3  A    between atoms: C5_7  and  O1_10 
ROOT
ATOM      1  C2  <0> d          -1.547  -1.390   1.337  0.00  0.00    -0.055 C 
ATOM      2  H1  <0> d          -1.959  -0.790   2.148  0.00  0.00     0.039 H 
ATOM      3  C3  <0> d          -1.435  -0.551   0.048  0.00  0.00    -0.057 C 
ATOM      4  C4  <0> d           0.002  -0.004   0.002  0.00  0.00    -0.032 C 
ATOM      5  H2  <0> d           0.512  -0.365  -0.891  0.00  0.00     0.043 H 
ATOM      6  C5  <0> d           0.714  -0.530   1.266  0.00  0.00     0.039 C 
ATOM      7  H3  <0> d           0.669   0.210   2.064  0.00  0.00     0.083 H 
ATOM      8  C6  <0> d          -0.086  -1.798   1.653  0.00  0.00    -0.038 C 
ATOM      9  H7  <0> d          -2.148   0.274   0.076  0.00  0.00     0.034 H 
ATOM     10  H8  <0> d          -1.624  -1.178  -0.824  0.00  0.00     0.034 H 
ATOM     11  H9  <0> d           0.217  -2.648   1.042  0.00  0.00     0.037 H 
ATOM     12  H10 <0> d           0.032  -2.021   2.713  0.00  0.00     0.037 H 
ENDROOT
BRANCH   1  13
ATOM     13  C1  <0> d          -2.410  -2.631   1.096  0.00  0.00    -0.073 C 
ATOM     14  H4  <0> d          -2.422  -3.245   1.997  0.00  0.00     0.028 H 
ATOM     15  H5  <0> d          -3.426  -2.324   0.851  0.00  0.00     0.028 H 
ATOM     16  H6  <0> d          -1.994  -3.207   0.269  0.00  0.00     0.028 H 
ENDBRANCH   1  13
BRANCH   6  17
ATOM     17  O1  <0> d           2.071  -0.866   0.972  0.00  0.00    -0.395 OA
ATOM     18  H11 <0> d           2.567  -1.202   1.731  0.00  0.00     0.210 HD
ENDBRANCH   6  17
BRANCH   4  19
ATOM     19  C7  <0> d          -0.019   1.526   0.010  0.00  0.00    -0.071 C 
ATOM     20  H12 <0> d           1.004   1.903   0.003  0.00  0.00     0.028 H 
ATOM     21  H13 <0> d          -0.546   1.887  -0.873  0.00  0.00     0.028 H 
ATOM     22  H14 <0> d          -0.529   1.877   0.907  0.00  0.00     0.028 H 
ENDBRANCH   4  19
TORSDOF 3
