REMARK  5 active torsions:
REMARK  status: ('A' for Active; 'I' for Inactive)
REMARK    1  A    between atoms: C1_1  and  C2_2 
REMARK    2  A    between atoms: C2_2  and  C3_3 
REMARK    3  A    between atoms: C2_2  and  C4_4 
REMARK    4  A    between atoms: C4_4  and  C5_5 
REMARK    5  A    between atoms: C5_5  and  O1_10 
ROOT
ATOM      1  C5  <0> d          -1.765  -1.720   0.438  0.00  0.00     0.058 C 
ATOM      2  C6  <0> d          -1.144  -2.543  -0.709  0.00  0.00    -0.036 C 
ATOM      3  C7  <0> d          -2.161  -3.685  -0.952  0.00  0.00    -0.062 C 
ATOM      4  C8  <0> d          -3.524  -2.975  -0.759  0.00  0.00    -0.062 C 
ATOM      5  C9  <0> d          -3.279  -1.994   0.406  0.00  0.00    -0.036 C 
ATOM      6  H10 <0> d          -1.037  -1.930  -1.604  0.00  0.00     0.037 H 
ATOM      7  H11 <0> d          -0.178  -2.950  -0.407  0.00  0.00     0.037 H 
ATOM      8  H12 <0> d          -2.069  -4.076  -1.965  0.00  0.00     0.033 H 
ATOM      9  H13 <0> d          -2.033  -4.480  -0.217  0.00  0.00     0.033 H 
ATOM     10  H14 <0> d          -3.802  -2.432  -1.663  0.00  0.00     0.033 H 
ATOM     11  H15 <0> d          -4.297  -3.697  -0.494  0.00  0.00     0.033 H 
ATOM     12  H16 <0> d          -3.596  -2.445   1.347  0.00  0.00     0.037 H 
ATOM     13  H17 <0> d          -3.823  -1.066   0.234  0.00  0.00     0.037 H 
ENDROOT
BRANCH   1  14
ATOM     14  C4  <0> d          -1.498  -0.229   0.218  0.00  0.00    -0.034 C 
ATOM     15  H8  <0> d          -1.896   0.339   1.059  0.00  0.00     0.037 H 
ATOM     16  H9  <0> d          -1.984   0.095  -0.702  0.00  0.00     0.037 H 
BRANCH  14  17
ATOM     17  C2  <0> d           0.009   0.008   0.110  0.00  0.00    -0.059 C 
ATOM     18  H4  <0> d           0.427  -0.649  -0.652  0.00  0.00     0.039 H 
BRANCH  17  19
ATOM     19  C1  <0> d           0.270   1.466  -0.275  0.00  0.00    -0.073 C 
ATOM     20  H1  <0> d           1.344   1.635  -0.352  0.00  0.00     0.028 H 
ATOM     21  H2  <0> d          -0.201   1.677  -1.235  0.00  0.00     0.028 H 
ATOM     22  H3  <0> d          -0.148   2.123   0.487  0.00  0.00     0.028 H 
ENDBRANCH  17  19
BRANCH  17  23
ATOM     23  C3  <0> d           0.670  -0.289   1.458  0.00  0.00    -0.073 C 
ATOM     24  H5  <0> d           0.618  -1.359   1.660  0.00  0.00     0.028 H 
ATOM     25  H6  <0> d           1.714   0.025   1.428  0.00  0.00     0.028 H 
ATOM     26  H7  <0> d           0.150   0.256   2.245  0.00  0.00     0.028 H 
ENDBRANCH  17  23
ENDBRANCH  14  17
ENDBRANCH   1  14
BRANCH   1  27
ATOM     27  O1  <0> d          -1.219  -2.135   1.692  0.00  0.00    -0.390 OA
ATOM     28  H18 <0> d          -1.355  -3.071   1.890  0.00  0.00     0.210 HD
ENDBRANCH   1  27
TORSDOF 5
