REMARK  3 active torsions:
REMARK  status: ('A' for Active; 'I' for Inactive)
REMARK    1  A    between atoms: C1_1  and  C2_2 
REMARK    2  A    between atoms: C4_4  and  C7_9 
REMARK    3  A    between atoms: C7_9  and  O1_10 
ROOT
ATOM      1  C2  <0> d           0.002  -0.004   0.002  0.00  0.00    -0.044 A 
ATOM      2  C3  <0> d           0.006  -0.700  -1.198  0.00  0.00    -0.065 A 
ATOM      3  C4  <0> d           0.025  -2.084  -1.158  0.00  0.00     0.006 A 
ATOM      4  C5  <0> d           0.039  -2.723   0.069  0.00  0.00     0.134 A 
ATOM      5  N1  <0> d           0.035  -2.029   1.191  0.00  0.00    -0.248 NA
ATOM      6  C6  <0> d           0.023  -0.710   1.190  0.00  0.00     0.009 A 
ATOM      7 Cl1  <0> d           0.062  -4.458   0.134  0.00  0.00    -0.062 Cl
ATOM      8  H4  <0> d          -0.006  -0.174  -2.142  0.00  0.00     0.085 H 
ATOM      9  H5  <0> d           0.025  -0.175   2.128  0.00  0.00     0.115 H 
ENDROOT
BRANCH   3  10
ATOM     10  C7  <0> d           0.029  -2.885  -2.435  0.00  0.00     0.043 C 
ATOM     11  H6  <0> d           0.927  -3.501  -2.475  0.00  0.00     0.081 H 
ATOM     12  H7  <0> d          -0.852  -3.525  -2.466  0.00  0.00     0.081 H 
BRANCH  10  13
ATOM     13  O1  <0> d           0.012  -1.996  -3.554  0.00  0.00    -0.396 OA
ATOM     14  H8  <0> d           0.013  -2.443  -4.412  0.00  0.00     0.209 HD
ENDBRANCH  10  13
ENDBRANCH   3  10
BRANCH   1  15
ATOM     15  C1  <0> d          -0.018   1.503   0.010  0.00  0.00    -0.050 C 
ATOM     16  H1  <0> d           1.004   1.880   0.003  0.00  0.00     0.033 H 
ATOM     17  H2  <0> d          -0.545   1.864  -0.873  0.00  0.00     0.033 H 
ATOM     18  H3  <0> d          -0.529   1.854   0.907  0.00  0.00     0.033 H 
ENDBRANCH   1  15
TORSDOF 3
