REMARK  4 active torsions:
REMARK  status: ('A' for Active; 'I' for Inactive)
REMARK    1  A    between atoms: C1_1  and  N1_2 
REMARK    2  A    between atoms: C4_6  and  C5_7 
REMARK    3  A    between atoms: C5_7  and  C6_8 
REMARK    4  A    between atoms: C6_8  and  O1_9 
ROOT
ATOM      1  N1  <0> d          -0.016   1.346   0.009  0.00  0.00    -0.348 N 
ATOM      2  C2  <0> d           1.286   1.769  -0.001  0.00  0.00    -0.003 A 
ATOM      3  C3  <0> d           2.054   0.663  -0.014  0.00  0.00     0.019 A 
ATOM      4  N2  <0> d           1.244  -0.406  -0.012  0.00  0.00    -0.246 NA
ATOM      5  C4  <0> d           0.002  -0.004   0.002  0.00  0.00     0.107 A 
ATOM      6  H4  <0> d           1.630   2.792   0.001  0.00  0.00     0.113 H 
ATOM      7  H5  <0> d           3.134   0.641  -0.025  0.00  0.00     0.117 H 
ENDROOT
BRANCH   5   8
ATOM      8  C5  <0> d          -1.210  -0.899   0.008  0.00  0.00     0.010 C 
ATOM      9  H6  <0> d          -0.968  -1.842   0.519  0.00  0.00     0.047 H 
ATOM     10  H7  <0> d          -2.034  -0.397   0.537  0.00  0.00     0.047 H 
BRANCH   8  11
ATOM     11  C6  <0> d          -1.634  -1.194  -1.432  0.00  0.00     0.023 C 
ATOM     12  H8  <0> d          -1.876  -0.251  -1.944  0.00  0.00     0.074 H 
ATOM     13  H9  <0> d          -0.810  -1.696  -1.961  0.00  0.00     0.074 H 
BRANCH  11  14
ATOM     14  O1  <0> d          -2.783  -2.043  -1.427  0.00  0.00    -0.400 OA
ATOM     15  H10 <0> d          -3.234  -2.364  -2.377  0.00  0.00     0.209 HD
ENDBRANCH  11  14
ENDBRANCH   8  11
ENDBRANCH   5   8
BRANCH   1  16
ATOM     16  C1  <0> d          -1.207   2.199   0.020  0.00  0.00    -0.013 C 
ATOM     17  H1  <0> d          -0.901   3.256   0.024  0.00  0.00     0.057 H 
ATOM     18  H2  <0> d          -1.803   1.986   0.920  0.00  0.00     0.057 H 
ATOM     19  H3  <0> d          -1.812   1.996  -0.876  0.00  0.00     0.057 H 
ENDBRANCH   1  16
TORSDOF 4
