REMARK  0 active torsions:
REMARK  status: ('A' for Active; 'I' for Inactive)
ROOT
ATOM      1  C1  <0> d          -0.017   1.381   0.010  0.00  0.00    -0.045 A 
ATOM      2  C2  <0> d           1.170   2.095   0.002  0.00  0.00    -0.071 A 
ATOM      3  C3  <0> d           2.373   1.428  -0.013  0.00  0.00    -0.018 A 
ATOM      4  C4  <0> d           2.404   0.030  -0.021  0.00  0.00     0.050 A 
ATOM      5  C5  <0> d           1.206  -0.684  -0.013  0.00  0.00    -0.029 A 
ATOM      6  C6  <0> d           0.002  -0.004   0.002  0.00  0.00     0.117 A 
ATOM      7  F1  <0> d          -1.160  -0.693   0.010  0.00  0.00    -0.206 F 
ATOM      8  C7  <0> d           3.818  -0.385  -0.036  0.00  0.00     0.294 A 
ATOM      9  O1  <0> d           4.207  -1.536  -0.047  0.00  0.00    -0.259 OA
ATOM     10  O2  <0> d           4.614   0.697  -0.038  0.00  0.00    -0.313 OA
ATOM     11  C8  <0> d           3.811   1.880  -0.024  0.00  0.00     0.054 A 
ATOM     12  H1  <0> d          -0.960   1.907   0.026  0.00  0.00     0.088 H 
ATOM     13  H2  <0> d           1.152   3.175   0.008  0.00  0.00     0.084 H 
ATOM     14  H3  <0> d           1.218  -1.764  -0.019  0.00  0.00     0.089 H 
ATOM     15  H4  <0> d           4.008   2.475  -0.916  0.00  0.00     0.082 H 
ATOM     16  H5  <0> d           4.025   2.465   0.870  0.00  0.00     0.082 H 
ENDROOT
TORSDOF 0
