REMARK  6 active torsions:
REMARK  status: ('A' for Active; 'I' for Inactive)
REMARK    1  A    between atoms: C1_1  and  C2_2 
REMARK    2  A    between atoms: C2_2  and  C3_4 
REMARK    3  A    between atoms: C2_2  and  C5_6 
REMARK    4  A    between atoms: C5_6  and  C6_7 
REMARK    5  A    between atoms: C5_6  and  C7_8 
REMARK    6  A    between atoms: C5_6  and  O1_9 
ROOT
ATOM      1  C2  <0> d           0.011   1.072   2.506  0.00  0.00    -0.013 C 
ATOM      2  H1  <0> d           1.034   1.450   2.499  0.00  0.00     0.050 H 
ENDROOT
BRANCH   1   3
ATOM      3  C1  <0> d           0.032  -0.457   2.498  0.00  0.00    -0.067 C 
ATOM      4  H2  <0> d           0.559  -0.819   3.381  0.00  0.00     0.028 H 
ATOM      5  H3  <0> d          -0.991  -0.835   2.506  0.00  0.00     0.028 H 
ATOM      6  H4  <0> d           0.542  -0.809   1.601  0.00  0.00     0.028 H 
ENDBRANCH   1   3
BRANCH   1   7
ATOM      7  C3  <0> d          -0.694   1.558   3.746  0.00  0.00    -0.105 C 
ATOM      8  C4  <0> d          -0.060   2.316   4.607  0.00  0.00    -0.124 C 
ATOM      9  H6  <0> d          -0.565   2.664   5.495  0.00  0.00     0.066 H 
ATOM     10  H7  <0> d           0.969   2.591   4.427  0.00  0.00     0.066 H 
ATOM     11  H5  <0> d          -1.723   1.282   3.925  0.00  0.00     0.076 H 
ENDBRANCH   1   7
BRANCH   1  12
ATOM     12  C5  <0> d          -0.729   1.579   1.267  0.00  0.00     0.057 C 
BRANCH  12  13
ATOM     13  C6  <0> d          -0.013   1.086   0.008  0.00  0.00    -0.048 C 
ATOM     14  H8  <0> d           0.002  -0.004   0.002  0.00  0.00     0.031 H 
ATOM     15  H9  <0> d           1.010   1.463   0.000  0.00  0.00     0.031 H 
ATOM     16  H10 <0> d          -0.540   1.447  -0.875  0.00  0.00     0.031 H 
ENDBRANCH  12  13
BRANCH  12  17
ATOM     17  C7  <0> d          -0.750   3.109   1.275  0.00  0.00    -0.048 C 
ATOM     18  H11 <0> d          -1.277   3.470   0.392  0.00  0.00     0.031 H 
ATOM     19  H12 <0> d          -1.260   3.461   2.172  0.00  0.00     0.031 H 
ATOM     20  H13 <0> d           0.273   3.486   1.268  0.00  0.00     0.031 H 
ENDBRANCH  12  17
BRANCH  12  21
ATOM     21  O1  <0> d          -2.070   1.085   1.277  0.00  0.00    -0.390 OA
ATOM     22  H14 <0> d          -2.133   0.120   1.272  0.00  0.00     0.210 HD
ENDBRANCH  12  21
ENDBRANCH   1  12
TORSDOF 6
