REMARK  5 active torsions:
REMARK  status: ('A' for Active; 'I' for Inactive)
REMARK    1  A    between atoms: C1_1  and  C2_2 
REMARK    2  A    between atoms: C2_2  and  O1_3 
REMARK    3  A    between atoms: O1_3  and  C3_4 
REMARK    4  A    between atoms: C3_4  and  C4_6 
REMARK    5  A    between atoms: C5_7  and  C6_12 
ROOT
ATOM      1  C4  <0> d           2.037   0.752  -0.013  0.00  0.00     0.179 A 
ATOM      2  C5  <0> d           1.247  -0.416  -0.012  0.00  0.00     0.089 A 
ATOM      3  N1  <0> d           0.002  -0.004   0.002  0.00  0.00    -0.160 NA
ATOM      4  N2  <0> d          -0.015   1.281   0.009  0.00  0.00    -0.196 N 
ATOM      5  H1  <0> d          -0.848   1.835   0.020  0.00  0.00     0.213 HD
ATOM      6  N3  <0> d           1.178   1.761   0.000  0.00  0.00    -0.149 NA
ENDROOT
BRANCH   1   7
ATOM      7  C3  <0> d           3.511   0.834  -0.027  0.00  0.00     0.316 C 
ATOM      8  O2  <0> d           4.176  -0.183  -0.039  0.00  0.00    -0.257 OA
BRANCH   7   9
ATOM      9  O1  <0> d           4.119   2.036  -0.026  0.00  0.00    -0.317 OA
BRANCH   9  10
ATOM     10  C2  <0> d           5.571   2.041  -0.040  0.00  0.00     0.026 C 
ATOM     11  H5  <0> d           5.944   1.523   0.844  0.00  0.00     0.074 H 
ATOM     12  H6  <0> d           5.927   1.533  -0.936  0.00  0.00     0.074 H 
BRANCH  10  13
ATOM     13  C1  <0> d           6.076   3.485  -0.037  0.00  0.00    -0.056 C 
ATOM     14  H2  <0> d           7.166   3.488  -0.048  0.00  0.00     0.030 H 
ATOM     15  H3  <0> d           5.703   4.002  -0.921  0.00  0.00     0.030 H 
ATOM     16  H4  <0> d           5.720   3.993   0.859  0.00  0.00     0.030 H 
ENDBRANCH  10  13
ENDBRANCH   9  10
ENDBRANCH   7   9
ENDBRANCH   1   7
BRANCH   2  17
ATOM     17  C6  <0> d           1.733  -1.842  -0.025  0.00  0.00    -0.031 C 
ATOM     18  H7  <0> d           1.840  -2.180  -1.056  0.00  0.00     0.035 H 
ATOM     19  H8  <0> d           2.698  -1.902   0.479  0.00  0.00     0.035 H 
ATOM     20  H9  <0> d           1.013  -2.476   0.493  0.00  0.00     0.035 H 
ENDBRANCH   2  17
TORSDOF 5
