REMARK  5 active torsions:
REMARK  status: ('A' for Active; 'I' for Inactive)
REMARK    1  A    between atoms: C1_1  and  C2_2 
REMARK    2  A    between atoms: C2_2  and  C3_3 
REMARK    3  A    between atoms: C3_3  and  C10_11 
REMARK    4  A    between atoms: C7_7  and  C8_9 
REMARK    5  A    between atoms: C7_7  and  C9_10 
ROOT
ATOM      1  C3  <0> d          -0.730   1.580   1.268  0.00  0.00     0.058 C 
ATOM      2  C4  <0> d          -0.873   3.100   1.215  0.00  0.00    -0.036 C 
ATOM      3  C5  <0> d           0.447   3.777   1.582  0.00  0.00    -0.060 C 
ATOM      4  C6  <0> d           0.862   3.312   2.980  0.00  0.00    -0.037 C 
ATOM      5  C7  <0> d           1.050   1.793   2.977  0.00  0.00     0.054 C 
ATOM      6  O1  <0> d          -0.081   1.136   2.441  0.00  0.00    -0.370 OA
ATOM      7  H6  <0> d          -1.168   3.401   0.207  0.00  0.00     0.037 H 
ATOM      8  H7  <0> d          -1.649   3.415   1.917  0.00  0.00     0.037 H 
ATOM      9  H8  <0> d           0.303   4.862   1.595  0.00  0.00     0.033 H 
ATOM     10  H9  <0> d           1.216   3.534   0.854  0.00  0.00     0.033 H 
ATOM     11  H10 <0> d           0.087   3.581   3.699  0.00  0.00     0.037 H 
ATOM     12  H11 <0> d           1.799   3.793   3.261  0.00  0.00     0.037 H 
ENDROOT
BRANCH   1  13
ATOM     13  C2  <0> d          -2.152   0.977   1.253  0.00  0.00    -0.040 C 
ATOM     14  H4  <0> d          -2.696   1.307   2.138  0.00  0.00     0.036 H 
ATOM     15  H5  <0> d          -2.678   1.310   0.358  0.00  0.00     0.036 H 
BRANCH  13  16
ATOM     16  C1  <0> d          -2.059  -0.550   1.252  0.00  0.00    -0.074 C 
ATOM     17  H1  <0> d          -1.515  -0.880   0.367  0.00  0.00     0.027 H 
ATOM     18  H2  <0> d          -1.533  -0.883   2.147  0.00  0.00     0.027 H 
ATOM     19  H3  <0> d          -3.063  -0.975   1.241  0.00  0.00     0.027 H 
ENDBRANCH  13  16
ENDBRANCH   1  13
BRANCH   1  20
ATOM     20  C10 <0> d          -0.013   1.086   0.008  0.00  0.00    -0.048 C 
ATOM     21  H18 <0> d           0.002  -0.004   0.002  0.00  0.00     0.031 H 
ATOM     22  H19 <0> d           1.010   1.463   0.000  0.00  0.00     0.031 H 
ATOM     23  H20 <0> d          -0.540   1.447  -0.875  0.00  0.00     0.031 H 
ENDBRANCH   1  20
BRANCH   5  24
ATOM     24  C8  <0> d           1.218   1.341   4.443  0.00  0.00    -0.048 C 
ATOM     25  H12 <0> d           1.361   0.261   4.477  0.00  0.00     0.031 H 
ATOM     26  H13 <0> d           2.086   1.836   4.879  0.00  0.00     0.031 H 
ATOM     27  H14 <0> d           0.325   1.607   5.010  0.00  0.00     0.031 H 
ENDBRANCH   5  24
BRANCH   5  28
ATOM     28  C9  <0> d           2.332   1.427   2.230  0.00  0.00    -0.048 C 
ATOM     29  H15 <0> d           2.237   1.713   1.182  0.00  0.00     0.031 H 
ATOM     30  H16 <0> d           3.176   1.955   2.675  0.00  0.00     0.031 H 
ATOM     31  H17 <0> d           2.499   0.352   2.299  0.00  0.00     0.031 H 
ENDBRANCH   5  28
TORSDOF 5
