REMARK  1 active torsions:
REMARK  status: ('A' for Active; 'I' for Inactive)
REMARK    1  A    between atoms: C1_1  and  C2_2 
ROOT
ATOM      1  C2  <0> d          -0.742   1.585  -1.213  0.00  0.00     0.124 A 
ATOM      2  N1  <0> d          -0.200   1.844  -2.359  0.00  0.00    -0.158 NA
ATOM      3  H1  <0> d          -1.095   2.547  -4.155  0.00  0.00     0.194 HD
ATOM      4  N2  <0> d          -1.209   2.283  -3.229  0.00  0.00    -0.227 N 
ATOM      5  C3  <0> d          -2.368   2.269  -2.538  0.00  0.00     0.342 A 
ATOM      6  N3  <0> d          -2.090   1.834  -1.293  0.00  0.00    -0.294 N 
ATOM      7  O1  <0> d          -3.465   2.586  -2.963  0.00  0.00    -0.245 OA
ATOM      8  H5  <0> d          -2.732   1.718  -0.575  0.00  0.00     0.172 HD
ENDROOT
BRANCH   1   9
ATOM      9  C1  <0> d          -0.013   1.086   0.008  0.00  0.00    -0.019 C 
ATOM     10  H2  <0> d           0.002  -0.004   0.002  0.00  0.00     0.037 H 
ATOM     11  H3  <0> d           1.010   1.463   0.000  0.00  0.00     0.037 H 
ATOM     12  H4  <0> d          -0.523   1.437   0.905  0.00  0.00     0.037 H 
ENDBRANCH   1   9
TORSDOF 1
