REMARK  1 active torsions:
REMARK  status: ('A' for Active; 'I' for Inactive)
REMARK    1  A    between atoms: N2_4  and  C4_6 
ROOT
ATOM      1  C4  <0> d           3.531   0.753  -0.027  0.00  0.00     0.124 C 
ATOM      2  H1  <0> d           3.880   1.796   0.004  0.00  0.00     0.120 H 
ATOM      3  C5  <0> d           4.059  -0.078   1.145  0.00  0.00    -0.023 C 
ATOM      4  C6  <0> d           5.589  -0.112   1.090  0.00  0.00    -0.059 C 
ATOM      5  C7  <0> d           6.027  -0.675  -0.266  0.00  0.00    -0.045 C 
ATOM      6  C8  <0> d           5.424   0.179  -1.384  0.00  0.00     0.022 C 
ATOM      7  O1  <0> d           4.001   0.193  -1.255  0.00  0.00    -0.365 OA
ATOM      8  H5  <0> d           3.733   0.377   2.093  0.00  0.00     0.039 H 
ATOM      9  H6  <0> d           3.663  -1.102   1.076  0.00  0.00     0.039 H 
ATOM     10  H7  <0> d           5.983   0.908   1.212  0.00  0.00     0.033 H 
ATOM     11  H8  <0> d           5.971  -0.752   1.898  0.00  0.00     0.033 H 
ATOM     12  H9  <0> d           7.125  -0.652  -0.335  0.00  0.00     0.036 H 
ATOM     13  H10 <0> d           5.675  -1.713  -0.362  0.00  0.00     0.036 H 
ATOM     14  H11 <0> d           5.809   1.206  -1.309  0.00  0.00     0.074 H 
ATOM     15  H12 <0> d           5.700  -0.247  -2.360  0.00  0.00     0.074 H 
ENDROOT
BRANCH   1  16
ATOM     16  N2  <0> d           2.066   0.743  -0.014  0.00  0.00    -0.252 N 
ATOM     17  N1  <0> d           1.250  -0.396  -0.012  0.00  0.00    -0.183 NA
ATOM     18  C2  <0> d           0.002  -0.004   0.002  0.00  0.00     0.023 A 
ATOM     19  C1  <0> d          -0.017   1.395   0.010  0.00  0.00    -0.048 A 
ATOM     20  H3  <0> d          -0.864  -0.649   0.006  0.00  0.00     0.117 H 
ATOM     21  C3  <0> d           1.265   1.828  -0.000  0.00  0.00     0.003 A 
ATOM     22  H2  <0> d          -0.899   2.018   0.018  0.00  0.00     0.087 H 
ATOM     23  H4  <0> d           1.588   2.859   0.002  0.00  0.00     0.114 H 
ENDBRANCH   1  16
TORSDOF 1
