REMARK  2 active torsions:
REMARK  status: ('A' for Active; 'I' for Inactive)
REMARK    1  A    between atoms: C1_1  and  C2_2 
REMARK    2  A    between atoms: C4_7  and  C6_12 
ROOT
ATOM      1  C2  <0> d          -0.019   1.526   0.010  0.00  0.00     0.128 C 
ATOM      2  H1  <0> d          -0.539   1.882   0.900  0.00  0.00     0.099 H 
ATOM      3  C3  <0> d          -0.719   2.035  -1.231  0.00  0.00     0.289 C 
ATOM      4  O1  <0> d          -1.360   1.290  -1.935  0.00  0.00    -0.262 OA
ATOM      5  O2  <0> d          -0.605   3.348  -1.528  0.00  0.00    -0.304 OA
ATOM      6  C4  <0> d           0.761   3.860  -1.539  0.00  0.00     0.128 C 
ATOM      7  H2  <0> d           0.747   4.950  -1.533  0.00  0.00     0.099 H 
ATOM      8  C5  <0> d           1.462   3.351  -0.297  0.00  0.00     0.289 C 
ATOM      9  O3  <0> d           2.103   4.096   0.406  0.00  0.00    -0.262 OA
ATOM     10  O4  <0> d           1.348   2.037   0.000  0.00  0.00    -0.304 OA
ENDROOT
BRANCH   1  11
ATOM     11  C1  <0> d           0.002  -0.004   0.002  0.00  0.00    -0.043 C 
ATOM     12  H3  <0> d           0.529  -0.365   0.885  0.00  0.00     0.031 H 
ATOM     13  H4  <0> d          -1.020  -0.381   0.010  0.00  0.00     0.031 H 
ATOM     14  H5  <0> d           0.512  -0.356  -0.895  0.00  0.00     0.031 H 
ENDBRANCH   1  11
BRANCH   6  15
ATOM     15  C6  <0> d           1.492   3.359  -2.786  0.00  0.00    -0.043 C 
ATOM     16  H6  <0> d           1.492   2.269  -2.794  0.00  0.00     0.031 H 
ATOM     17  H7  <0> d           0.984   3.728  -3.677  0.00  0.00     0.031 H 
ATOM     18  H8  <0> d           2.519   3.723  -2.777  0.00  0.00     0.031 H 
ENDBRANCH   6  15
TORSDOF 2
