REMARK  4 active torsions:
REMARK  status: ('A' for Active; 'I' for Inactive)
REMARK    1  A    between atoms: C1_1  and  C2_2 
REMARK    2  A    between atoms: C4_4  and  C7_11 
REMARK    3  A    between atoms: N1_5  and  C5_7 
REMARK    4  A    between atoms: C5_7  and  C6_8 
REMARK       I    between atoms: C6_8  and  N3_10 
ROOT
ATOM      1  C2  <0> d          -3.982  -0.393   0.751  0.00  0.00     0.053 A 
ATOM      2  C3  <0> d          -3.994  -0.392  -0.648  0.00  0.00    -0.035 A 
ATOM      3  C4  <0> d          -3.035   0.463  -1.072  0.00  0.00     0.029 A 
ATOM      4  N1  <0> d          -2.430   0.977   0.019  0.00  0.00    -0.265 N 
ATOM      5  N2  <0> d          -3.044   0.427   1.152  0.00  0.00    -0.177 NA
ATOM      6  H4  <0> d          -4.656  -0.967  -1.278  0.00  0.00     0.089 H 
ENDROOT
BRANCH   4   7
ATOM      7  C5  <0> d          -1.330   1.944   0.019  0.00  0.00     0.090 C 
ATOM      8  H5  <0> d          -1.392   2.565   0.913  0.00  0.00     0.082 H 
ATOM      9  H6  <0> d          -1.400   2.575  -0.867  0.00  0.00     0.082 H 
BRANCH   7  10
ATOM     10  C6  <0> d          -0.014   1.209   0.009  0.00  0.00     0.235 C 
ATOM     11  O1  <0> d           0.002  -0.004   0.002  0.00  0.00    -0.272 OA
ATOM     12  N3  <0> d           1.143   1.898   0.001  0.00  0.00    -0.369 N 
ATOM     13  H7  <0> d           1.990   1.425  -0.009  0.00  0.00     0.159 HD
ATOM     14  H8  <0> d           1.130   2.868   0.007  0.00  0.00     0.159 HD
ENDBRANCH   7  10
ENDBRANCH   4   7
BRANCH   3  15
ATOM     15  C7  <0> d          -2.700   0.781  -2.507  0.00  0.00    -0.036 C 
ATOM     16  H9  <0> d          -1.941   0.086  -2.865  0.00  0.00     0.035 H 
ATOM     17  H10 <0> d          -3.597   0.687  -3.119  0.00  0.00     0.035 H 
ATOM     18  H11 <0> d          -2.320   1.800  -2.574  0.00  0.00     0.035 H 
ENDBRANCH   3  15
BRANCH   1  19
ATOM     19  C1  <0> d          -4.891  -1.199   1.642  0.00  0.00    -0.034 C 
ATOM     20  H1  <0> d          -5.788  -0.621   1.864  0.00  0.00     0.035 H 
ATOM     21  H2  <0> d          -5.169  -2.123   1.136  0.00  0.00     0.035 H 
ATOM     22  H3  <0> d          -4.372  -1.436   2.571  0.00  0.00     0.035 H 
ENDBRANCH   1  19
TORSDOF 4
