REMARK  2 active torsions:
REMARK  status: ('A' for Active; 'I' for Inactive)
REMARK    1  A    between atoms: C4_5  and  C8_11 
REMARK    2  A    between atoms: C8_11  and  O1_12 
ROOT
ATOM      1  C1  <0> d          -0.460  -0.272  -2.728  0.00  0.00    -0.052 C 
ATOM      2  C2  <0> d          -1.992   0.163  -2.781  0.00  0.00    -0.037 C 
ATOM      3  H1  <0> d          -2.715  -0.623  -2.997  0.00  0.00     0.046 H 
ATOM      4  C3  <0> d          -2.110   0.865  -1.391  0.00  0.00    -0.053 C 
ATOM      5  C4  <0> d          -0.753   1.593  -1.232  0.00  0.00    -0.026 C 
ATOM      6  H2  <0> d          -0.898   2.671  -1.175  0.00  0.00     0.044 H 
ATOM      7  C5  <0> d           0.026   1.211  -2.530  0.00  0.00    -0.032 C 
ATOM      8  H3  <0> d           1.104   1.373  -2.513  0.00  0.00     0.046 H 
ATOM      9  C6  <0> d          -0.749   1.914  -3.651  0.00  0.00    -0.102 C 
ATOM     10  C7  <0> d          -1.912   1.310  -3.796  0.00  0.00    -0.102 C 
ATOM     11  H4  <0> d          -0.119  -0.701  -3.670  0.00  0.00     0.035 H 
ATOM     12  H5  <0> d          -0.220  -0.907  -1.875  0.00  0.00     0.035 H 
ATOM     13  H6  <0> d          -2.255   0.143  -0.587  0.00  0.00     0.034 H 
ATOM     14  H7  <0> d          -2.929   1.583  -1.415  0.00  0.00     0.034 H 
ATOM     15  H8  <0> d          -0.402   2.761  -4.224  0.00  0.00     0.077 H 
ATOM     16  H9  <0> d          -2.679   1.578  -4.508  0.00  0.00     0.076 H 
ENDROOT
BRANCH   5  17
ATOM     17  C8  <0> d          -0.013   1.086   0.008  0.00  0.00     0.021 C 
ATOM     18  H10 <0> d           0.002  -0.004   0.002  0.00  0.00     0.074 H 
ATOM     19  H11 <0> d           1.010   1.463   0.000  0.00  0.00     0.074 H 
BRANCH  17  20
ATOM     20  O1  <0> d          -0.682   1.547   1.184  0.00  0.00    -0.400 OA
ATOM     21  H12 <0> d          -0.266   1.262   2.009  0.00  0.00     0.209 HD
ENDBRANCH  17  20
ENDBRANCH   5  17
TORSDOF 2
