REMARK  2 active torsions:
REMARK  status: ('A' for Active; 'I' for Inactive)
REMARK    1  A    between atoms: C1_1  and  N1_2 
REMARK    2  A    between atoms: C4_6  and  C5_7 
REMARK       I    between atoms: C5_7  and  N3_9 
ROOT
ATOM      1  N1  <0> d           0.467   3.263   0.021  0.00  0.00    -0.340 N 
ATOM      2  C2  <0> d          -0.857   3.030   0.056  0.00  0.00     0.066 A 
ATOM      3  N2  <0> d          -1.067   1.739   0.029  0.00  0.00    -0.253 NA
ATOM      4  C3  <0> d           0.099   1.095  -0.013  0.00  0.00     0.035 A 
ATOM      5  C4  <0> d           1.094   2.032  -0.023  0.00  0.00     0.121 A 
ATOM      6  H4  <0> d          -1.625   3.789   0.094  0.00  0.00     0.143 H 
ATOM      7  H5  <0> d           0.234   0.023  -0.040  0.00  0.00     0.118 H 
ENDROOT
BRANCH   5   8
ATOM      8  C5  <0> d           2.539   1.781  -0.072  0.00  0.00     0.267 C 
ATOM      9  O1  <0> d           3.315   2.712  -0.179  0.00  0.00    -0.266 OA
ATOM     10  N3  <0> d           3.007   0.519   0.001  0.00  0.00    -0.365 N 
ATOM     11  H6  <0> d           2.388  -0.228   0.013  0.00  0.00     0.159 HD
ATOM     12  H7  <0> d           3.962   0.358   0.043  0.00  0.00     0.159 HD
ENDBRANCH   5   8
BRANCH   1  13
ATOM     13  C1  <0> d           1.122   4.573   0.030  0.00  0.00    -0.013 C 
ATOM     14  H1  <0> d           1.188   4.953  -0.990  0.00  0.00     0.057 H 
ATOM     15  H2  <0> d           0.541   5.266   0.638  0.00  0.00     0.057 H 
ATOM     16  H3  <0> d           2.124   4.476   0.447  0.00  0.00     0.057 H 
ENDBRANCH   1  13
TORSDOF 2
