REMARK  2 active torsions:
REMARK  status: ('A' for Active; 'I' for Inactive)
REMARK    1  A    between atoms: C1_1  and  C2_2 
REMARK    2  A    between atoms: C2_2  and  C3_4 
ROOT
ATOM      1  C3  <0> d          -0.000  -0.732  -1.275  0.00  0.00     0.123 A 
ATOM      2  C4  <0> d           0.012  -2.139  -1.443  0.00  0.00    -0.034 A 
ATOM      3  C5  <0> d           0.004  -2.345  -2.780  0.00  0.00    -0.002 A 
ATOM      4  N1  <0> d          -0.012  -1.125  -3.373  0.00  0.00    -0.289 N 
ATOM      5  H1  <0> d          -0.020  -0.974  -4.332  0.00  0.00     0.188 HD
ATOM      6  N2  <0> d          -0.019  -0.199  -2.483  0.00  0.00    -0.172 NA
ATOM      7  H5  <0> d           0.025  -2.890  -0.667  0.00  0.00     0.089 H 
ATOM      8  H6  <0> d           0.009  -3.301  -3.281  0.00  0.00     0.113 H 
ENDROOT
BRANCH   1   9
ATOM      9  C2  <0> d           0.002  -0.004   0.002  0.00  0.00     0.175 C 
ATOM     10  O1  <0> d           0.020  -0.616   1.049  0.00  0.00    -0.291 OA
BRANCH   9  11
ATOM     11  C1  <0> d          -0.018   1.503   0.010  0.00  0.00    -0.015 C 
ATOM     12  H2  <0> d           1.004   1.880   0.003  0.00  0.00     0.038 H 
ATOM     13  H3  <0> d          -0.545   1.864  -0.873  0.00  0.00     0.038 H 
ATOM     14  H4  <0> d          -0.529   1.854   0.907  0.00  0.00     0.038 H 
ENDBRANCH   9  11
ENDBRANCH   1   9
TORSDOF 2
