REMARK  0 active torsions:
REMARK  status: ('A' for Active; 'I' for Inactive)
ROOT
ATOM      1  C1  <0> d           0.626   5.533   0.026  0.00  0.00    -0.081 A 
ATOM      2  C2  <0> d          -0.761   5.521   0.039  0.00  0.00    -0.080 A 
ATOM      3  C3  <0> d          -1.450   4.326   0.039  0.00  0.00    -0.048 A 
ATOM      4  C4  <0> d          -0.754   3.127   0.026  0.00  0.00     0.105 A 
ATOM      5  C5  <0> d           0.649   3.135   0.013  0.00  0.00     0.092 A 
ATOM      6  C6  <0> d           1.334   4.351   0.013  0.00  0.00    -0.052 A 
ATOM      7  N1  <0> d           1.043   1.833   0.002  0.00  0.00    -0.234 NA
ATOM      8  C7  <0> d          -0.013   1.076   0.008  0.00  0.00     0.104 A 
ATOM      9  O1  <0> d          -1.124   1.828   0.017  0.00  0.00    -0.302 OA
ATOM     10  H1  <0> d           1.155   6.475   0.026  0.00  0.00     0.083 H 
ATOM     11  H2  <0> d          -1.305   6.454   0.050  0.00  0.00     0.083 H 
ATOM     12  H3  <0> d          -2.530   4.325   0.050  0.00  0.00     0.087 H 
ATOM     13  H4  <0> d           2.413   4.366   0.003  0.00  0.00     0.087 H 
ATOM     14  H5  <0> d           0.002  -0.004   0.002  0.00  0.00     0.155 H 
ENDROOT
TORSDOF 0
