REMARK  0 active torsions:
REMARK  status: ('A' for Active; 'I' for Inactive)
ROOT
ATOM      1  C1  <0> d          -0.500  -2.231  -0.006  0.00  0.00     0.032 A 
ATOM      2  C2  <0> d           1.033  -2.075  -0.019  0.00  0.00     0.018 A 
ATOM      3  N1  <0> d           1.229  -0.618  -0.013  0.00  0.00    -0.336 N 
ATOM      4  C3  <0> d           2.362   0.144  -0.018  0.00  0.00    -0.002 A 
ATOM      5  C4  <0> d           2.285   1.490  -0.009  0.00  0.00     0.019 A 
ATOM      6  N2  <0> d           1.113   2.125   0.003  0.00  0.00    -0.244 NA
ATOM      7  C5  <0> d          -0.018   1.470   0.010  0.00  0.00     0.171 A 
ATOM      8  C6  <0> d           0.002  -0.004   0.002  0.00  0.00     0.166 A 
ATOM      9  N3  <0> d          -0.998  -0.851   0.007  0.00  0.00    -0.268 NA
ATOM     10 Cl1  <0> d          -1.528   2.327   0.022  0.00  0.00    -0.058 Cl
ATOM     11  H1  <0> d          -0.854  -2.757   0.893  0.00  0.00     0.070 H 
ATOM     12  H2  <0> d          -0.871  -2.747  -0.903  0.00  0.00     0.070 H 
ATOM     13  H3  <0> d           1.459  -2.559   0.872  0.00  0.00     0.067 H 
ATOM     14  H4  <0> d           1.442  -2.549  -0.924  0.00  0.00     0.067 H 
ATOM     15  H5  <0> d           3.345  -0.351  -0.031  0.00  0.00     0.113 H 
ATOM     16  H6  <0> d           3.205   2.093  -0.011  0.00  0.00     0.117 H 
ENDROOT
TORSDOF 0
