REMARK  2 active torsions:
REMARK  status: ('A' for Active; 'I' for Inactive)
REMARK    1  A    between atoms: C1_1  and  C2_2 
REMARK    2  A    between atoms: C4_6  and  C6_10 
ROOT
ATOM      1  C2  <0> d          -1.954   2.434   3.499  0.00  0.00     0.046 A 
ATOM      2  C3  <0> d          -0.613   2.234   3.504  0.00  0.00     0.139 A 
ATOM      3  N1  <0> d          -0.003   1.795   2.366  0.00  0.00    -0.223 NA
ATOM      4  H1  <0> d          -2.567   1.587   0.282  0.00  0.00     0.170 HD
ATOM      5  C4  <0> d          -0.718   1.573   1.248  0.00  0.00     0.104 A 
ATOM      6  N2  <0> d          -2.008   1.768   1.212  0.00  0.00    -0.311 N 
ATOM      7  C5  <0> d          -2.671   2.190   2.304  0.00  0.00     0.255 A 
ATOM      8  O1  <0> d          -3.879   2.365   2.263  0.00  0.00    -0.268 OA
ATOM      9 Cl1  <0> d           0.313   2.519   4.944  0.00  0.00    -0.062 Cl
ENDROOT
BRANCH   1  10
ATOM     10  C1  <0> d          -2.665   2.914   4.738  0.00  0.00    -0.043 C 
ATOM     11  H2  <0> d          -1.936   3.043   5.552  0.00  0.00     0.033 H 
ATOM     12  H3  <0> d          -3.421   2.173   5.037  0.00  0.00     0.033 H 
ATOM     13  H4  <0> d          -3.156   3.876   4.530  0.00  0.00     0.033 H 
ENDBRANCH   1  10
BRANCH   5  14
ATOM     14  C6  <0> d          -0.013   1.087   0.008  0.00  0.00    -0.021 C 
ATOM     15  H5  <0> d          -0.744   0.960  -0.804  0.00  0.00     0.037 H 
ATOM     16  H6  <0> d           0.475   0.123   0.217  0.00  0.00     0.037 H 
ATOM     17  H7  <0> d           0.746   1.824  -0.295  0.00  0.00     0.037 H 
ENDBRANCH   5  14
TORSDOF 2
