REMARK  2 active torsions:
REMARK  status: ('A' for Active; 'I' for Inactive)
REMARK    1  A    between atoms: C1_1  and  N1_2 
REMARK    2  A    between atoms: N1_2  and  C2_3 
ROOT
ATOM      1  C2  <0> d          -0.213   1.226   2.454  0.00  0.00     0.237 C 
ATOM      2  N2  <0> d           0.858   0.484   2.642  0.00  0.00    -0.243 NA
ATOM      3  C3  <0> d           1.013   0.340   4.080  0.00  0.00     0.062 C 
ATOM      4  H1  <0> d           0.493  -0.552   4.427  0.00  0.00     0.080 H 
ATOM      5  C4  <0> d           2.399   0.399   4.686  0.00  0.00    -0.042 C 
ATOM      6  C5  <0> d           2.215   0.247   6.209  0.00  0.00    -0.063 C 
ATOM      7  C6  <0> d           1.301   1.328   6.776  0.00  0.00    -0.063 C 
ATOM      8  C7  <0> d          -0.046   1.391   6.034  0.00  0.00    -0.038 C 
ATOM      9  C8  <0> d           0.266   1.617   4.571  0.00  0.00     0.070 C 
ATOM     10  H2  <0> d           0.895   2.498   4.443  0.00  0.00     0.087 H 
ATOM     11  O1  <0> d          -0.794   1.627   3.625  0.00  0.00    -0.313 OA
ATOM     12  H7  <0> d           3.010  -0.417   4.300  0.00  0.00     0.036 H 
ATOM     13  H8  <0> d           2.867   1.357   4.458  0.00  0.00     0.036 H 
ATOM     14  H9  <0> d           1.781  -0.731   6.419  0.00  0.00     0.033 H 
ATOM     15  H10 <0> d           3.188   0.315   6.694  0.00  0.00     0.033 H 
ATOM     16  H11 <0> d           1.116   1.120   7.829  0.00  0.00     0.033 H 
ATOM     17  H12 <0> d           1.798   2.294   6.689  0.00  0.00     0.033 H 
ATOM     18  H13 <0> d          -0.645   2.216   6.419  0.00  0.00     0.036 H 
ATOM     19  H14 <0> d          -0.583   0.450   6.158  0.00  0.00     0.036 H 
ENDROOT
BRANCH   1  20
ATOM     20  N1  <0> d          -0.698   1.558   1.213  0.00  0.00    -0.359 N 
ATOM     21  H6  <0> d          -1.495   2.106   1.135  0.00  0.00     0.162 HD
BRANCH  20  22
ATOM     22  C1  <0> d          -0.013   1.086   0.008  0.00  0.00    -0.018 C 
ATOM     23  H3  <0> d           0.002  -0.004   0.002  0.00  0.00     0.056 H 
ATOM     24  H4  <0> d           1.010   1.463   0.000  0.00  0.00     0.056 H 
ATOM     25  H5  <0> d          -0.540   1.447  -0.875  0.00  0.00     0.056 H 
ENDBRANCH  20  22
ENDBRANCH   1  20
TORSDOF 2
