REMARK  5 active torsions:
REMARK  status: ('A' for Active; 'I' for Inactive)
REMARK    1  A    between atoms: C1_1  and  C2_2 
REMARK    2  A    between atoms: C3_3  and  O2_10 
REMARK    3  A    between atoms: C5_7  and  O1_8 
REMARK    4  A    between atoms: O1_8  and  C6_9 
REMARK    5  A    between atoms: O2_10  and  C7_11 
ROOT
ATOM      1  C2  <0> d           0.002  -0.004   0.002  0.00  0.00     0.044 A 
ATOM      2  C3  <0> d           0.006  -0.710  -1.195  0.00  0.00     0.175 A 
ATOM      3  N1  <0> d           0.024  -2.039  -1.161  0.00  0.00    -0.217 NA
ATOM      4  C4  <0> d           0.038  -2.686  -0.013  0.00  0.00     0.092 A 
ATOM      5  N2  <0> d           0.035  -2.052   1.142  0.00  0.00    -0.217 NA
ATOM      6  C5  <0> d           0.023  -0.723   1.192  0.00  0.00     0.175 A 
ATOM      7  H4  <0> d           0.053  -3.766  -0.019  0.00  0.00     0.146 H 
ENDROOT
BRANCH   2   8
ATOM      8  O2  <0> d          -0.009  -0.053  -2.381  0.00  0.00    -0.339 OA
BRANCH   8   9
ATOM      9  C7  <0> d          -0.003  -0.853  -3.565  0.00  0.00     0.012 C 
ATOM     10  H8  <0> d           0.895  -1.470  -3.583  0.00  0.00     0.067 H 
ATOM     11  H9  <0> d          -0.884  -1.494  -3.575  0.00  0.00     0.067 H 
ATOM     12  H10 <0> d          -0.017  -0.204  -4.441  0.00  0.00     0.067 H 
ENDBRANCH   8   9
ENDBRANCH   2   8
BRANCH   1  13
ATOM     13  C1  <0> d          -0.018   1.503   0.010  0.00  0.00    -0.043 C 
ATOM     14  H1  <0> d           1.004   1.880   0.003  0.00  0.00     0.033 H 
ATOM     15  H2  <0> d          -0.545   1.864  -0.873  0.00  0.00     0.033 H 
ATOM     16  H3  <0> d          -0.529   1.854   0.907  0.00  0.00     0.033 H 
ENDBRANCH   1  13
BRANCH   6  17
ATOM     17  O1  <0> d           0.026  -0.079   2.384  0.00  0.00    -0.339 OA
BRANCH  17  18
ATOM     18  C6  <0> d           0.048  -0.891   3.560  0.00  0.00     0.012 C 
ATOM     19  H5  <0> d          -0.833  -1.533   3.575  0.00  0.00     0.067 H 
ATOM     20  H6  <0> d           0.946  -1.508   3.558  0.00  0.00     0.067 H 
ATOM     21  H7  <0> d           0.048  -0.252   4.443  0.00  0.00     0.067 H 
ENDBRANCH  17  18
ENDBRANCH   6  17
TORSDOF 5
