REMARK  2 active torsions:
REMARK  status: ('A' for Active; 'I' for Inactive)
REMARK    1  A    between atoms: C3_3  and  O1_8 
REMARK    2  A    between atoms: C4_4  and  N2_7 
ROOT
ATOM      1  C1  <0> d           1.232  -0.649  -0.013  0.00  0.00    -0.063 A 
ATOM      2  C2  <0> d           0.002  -0.004   0.002  0.00  0.00    -0.046 A 
ATOM      3  C3  <0> d          -0.017   1.382   0.010  0.00  0.00     0.111 A 
ATOM      4  C4  <0> d           1.195   2.076   0.002  0.00  0.00     0.154 A 
ATOM      5  N1  <0> d           2.344   1.421  -0.013  0.00  0.00    -0.241 NA
ATOM      6  C5  <0> d           2.390   0.101  -0.020  0.00  0.00     0.005 A 
ATOM      7  H1  <0> d           1.282  -1.728  -0.020  0.00  0.00     0.085 H 
ATOM      8  H2  <0> d          -0.918  -0.569   0.007  0.00  0.00     0.087 H 
ATOM      9  H3  <0> d           3.347  -0.398  -0.032  0.00  0.00     0.114 H 
ENDROOT
BRANCH   4  10
ATOM     10  N2  <0> d           1.194   3.468   0.009  0.00  0.00    -0.382 N 
ATOM     11  H4  <0> d           0.353   3.953   0.020  0.00  0.00     0.157 HD
ATOM     12  H5  <0> d           2.033   3.954   0.004  0.00  0.00     0.157 HD
ENDBRANCH   4  10
BRANCH   3  13
ATOM     13  O1  <0> d          -1.198   2.057   0.019  0.00  0.00    -0.357 OA
ATOM     14  H6  <0> d          -1.535   2.247   0.905  0.00  0.00     0.218 HD
ENDBRANCH   3  13
TORSDOF 2
