REMARK  1 active torsions:
REMARK  status: ('A' for Active; 'I' for Inactive)
REMARK    1  A    between atoms: C1_1  and  C2_2 
ROOT
ATOM      1  C2  <0> d           0.002  -0.004   0.002  0.00  0.00    -0.057 C 
ATOM      2  C3  <0> d          -1.373  -0.558  -0.288  0.00  0.00    -0.058 C 
ATOM      3  C4  <0> d          -2.164  -1.040   0.910  0.00  0.00    -0.047 C 
ATOM      4  H1  <0> d          -2.980  -1.689   0.543  0.00  0.00     0.040 H 
ATOM      5  C5  <0> d          -1.297  -1.881   1.841  0.00  0.00    -0.058 C 
ATOM      6  C6  <0> d          -0.146  -1.022   2.354  0.00  0.00    -0.047 C 
ATOM      7  H2  <0> d           0.473  -1.658   3.014  0.00  0.00     0.040 H 
ATOM      8  C7  <0> d           0.727  -0.538   1.215  0.00  0.00    -0.058 C 
ATOM      9  C8  <0> d          -0.677   0.135   3.196  0.00  0.00    -0.006 C 
ATOM     10  C9  <0> d          -1.765   0.874   2.460  0.00  0.00     0.127 C 
ATOM     11  O1  <0> d          -1.814   2.087   2.514  0.00  0.00    -0.298 OA
ATOM     12  C10 <0> d          -2.804   0.116   1.674  0.00  0.00    -0.006 C 
ATOM     13  H6  <0> d           0.638  -0.277  -0.883  0.00  0.00     0.039 H 
ATOM     14  H7  <0> d          -1.965   0.213  -0.811  0.00  0.00     0.034 H 
ATOM     15  H8  <0> d          -1.277  -1.394  -1.002  0.00  0.00     0.034 H 
ATOM     16  H9  <0> d          -1.895  -2.231   2.682  0.00  0.00     0.034 H 
ATOM     17  H10 <0> d          -0.899  -2.737   1.297  0.00  0.00     0.034 H 
ATOM     18  H11 <0> d           1.383  -1.368   0.901  0.00  0.00     0.034 H 
ATOM     19  H12 <0> d           1.403   0.245   1.600  0.00  0.00     0.034 H 
ATOM     20  H13 <0> d          -1.076  -0.255   4.138  0.00  0.00     0.044 H 
ATOM     21  H14 <0> d           0.140   0.824   3.427  0.00  0.00     0.044 H 
ATOM     22  H15 <0> d          -3.293   0.793   0.968  0.00  0.00     0.044 H 
ATOM     23  H16 <0> d          -3.563  -0.276   2.358  0.00  0.00     0.044 H 
ENDROOT
BRANCH   1  24
ATOM     24  C1  <0> d          -0.019   1.530   0.011  0.00  0.00    -0.073 C 
ATOM     25  H3  <0> d           1.004   1.907   0.003  0.00  0.00     0.028 H 
ATOM     26  H4  <0> d          -0.546   1.891  -0.873  0.00  0.00     0.028 H 
ATOM     27  H5  <0> d          -0.529   1.881   0.907  0.00  0.00     0.028 H 
ENDBRANCH   1  24
TORSDOF 1
