REMARK  8 active torsions:
REMARK  status: ('A' for Active; 'I' for Inactive)
REMARK    1  A    between atoms: C1_1  and  C2_2 
REMARK    2  A    between atoms: C2_2  and  C3_3 
REMARK    3  A    between atoms: C2_2  and  C4_4 
REMARK    4  A    between atoms: C2_2  and  C5_5 
REMARK    5  A    between atoms: C5_5  and  C6_6 
REMARK    6  A    between atoms: C6_6  and  C7_7 
REMARK    7  A    between atoms: C7_7  and  C8_8 
REMARK    8  A    between atoms: C8_8  and  C9_9 
ROOT
ATOM      1  C5  <0> d           4.217   5.531  -0.009  0.00  0.00    -0.059 C 
ATOM      2  H10 <0> d           4.712   5.149  -0.913  0.00  0.00     0.034 H 
ATOM      3  H11 <0> d           4.729   5.139   0.883  0.00  0.00     0.034 H 
ENDROOT
BRANCH   1   4
ATOM      4  C2  <0> d           4.276   7.059  -0.001  0.00  0.00    -0.051 C 
BRANCH   4   5
ATOM      5  C1  <0> d           3.587   7.590   1.258  0.00  0.00    -0.070 C 
ATOM      6  H1  <0> d           2.537   7.264   1.266  0.00  0.00     0.028 H 
ATOM      7  H2  <0> d           3.630   8.689   1.263  0.00  0.00     0.028 H 
ATOM      8  H3  <0> d           4.099   7.199   2.149  0.00  0.00     0.028 H 
ENDBRANCH   4   5
BRANCH   4   9
ATOM      9  C3  <0> d           5.737   7.513  -0.012  0.00  0.00    -0.070 C 
ATOM     10  H4  <0> d           6.232   7.131  -0.917  0.00  0.00     0.028 H 
ATOM     11  H5  <0> d           6.250   7.122   0.879  0.00  0.00     0.028 H 
ATOM     12  H6  <0> d           5.780   8.612  -0.007  0.00  0.00     0.028 H 
ENDBRANCH   4   9
BRANCH   4  13
ATOM     13  C4  <0> d           3.563   7.604  -1.240  0.00  0.00    -0.070 C 
ATOM     14  H7  <0> d           4.058   7.222  -2.145  0.00  0.00     0.028 H 
ATOM     15  H8  <0> d           3.606   8.703  -1.235  0.00  0.00     0.028 H 
ATOM     16  H9  <0> d           2.513   7.277  -1.232  0.00  0.00     0.028 H 
ENDBRANCH   4  13
ENDBRANCH   1   4
BRANCH   1  17
ATOM     17  C6  <0> d           2.755   5.077   0.003  0.00  0.00    -0.064 C 
ATOM     18  H12 <0> d           2.260   5.458   0.908  0.00  0.00     0.033 H 
ATOM     19  H13 <0> d           2.243   5.468  -0.888  0.00  0.00     0.033 H 
BRANCH  17  20
ATOM     20  C7  <0> d           2.696   3.548  -0.005  0.00  0.00    -0.056 C 
ATOM     21  H14 <0> d           3.192   3.166  -0.910  0.00  0.00     0.033 H 
ATOM     22  H15 <0> d           3.209   3.157   0.887  0.00  0.00     0.033 H 
BRANCH  20  23
ATOM     23  C8  <0> d           1.235   3.094   0.007  0.00  0.00     0.016 C 
ATOM     24  H16 <0> d           0.740   3.476   0.912  0.00  0.00     0.049 H 
ATOM     25  H17 <0> d           0.723   3.486  -0.884  0.00  0.00     0.049 H 
BRANCH  23  26
ATOM     26  C9  <0> d           1.177   1.588  -0.001  0.00  0.00     0.172 C 
ATOM     27  O1  <0> d           2.199   0.944  -0.014  0.00  0.00    -0.648 OA
ATOM     28  O2  <0> d          -0.011   0.963   0.007  0.00  0.00    -0.648 OA
ENDBRANCH  23  26
ENDBRANCH  20  23
ENDBRANCH  17  20
ENDBRANCH   1  17
TORSDOF 8
