REMARK  2 active torsions:
REMARK  status: ('A' for Active; 'I' for Inactive)
REMARK    1  A    between atoms: C6_7  and  C7_8 
REMARK    2  A    between atoms: C7_8  and  C8_9 
ROOT
ATOM      1  C1  <0> d          -0.648   3.105   1.333  0.00  0.00    -0.055 C 
ATOM      2  C2  <0> d          -1.443   3.606   2.543  0.00  0.00    -0.009 C 
ATOM      3  C3  <0> d          -0.932   2.900   3.780  0.00  0.00     0.127 C 
ATOM      4  O1  <0> d          -0.608   3.526   4.760  0.00  0.00    -0.298 OA
ATOM      5  C4  <0> d          -0.837   1.391   3.756  0.00  0.00    -0.009 C 
ATOM      6  C5  <0> d          -0.063   0.971   2.502  0.00  0.00    -0.055 C 
ATOM      7  C6  <0> d          -0.729   1.579   1.267  0.00  0.00    -0.044 C 
ATOM      8  H1  <0> d           0.404   3.413   1.432  0.00  0.00     0.034 H 
ATOM      9  H2  <0> d          -1.070   3.535   0.412  0.00  0.00     0.034 H 
ATOM     10  H3  <0> d          -1.307   4.692   2.647  0.00  0.00     0.044 H 
ATOM     11  H4  <0> d          -2.511   3.382   2.398  0.00  0.00     0.044 H 
ATOM     12  H5  <0> d          -0.309   1.043   4.657  0.00  0.00     0.044 H 
ATOM     13  H6  <0> d          -1.848   0.960   3.735  0.00  0.00     0.044 H 
ATOM     14  H7  <0> d           0.975   1.329   2.574  0.00  0.00     0.034 H 
ATOM     15  H8  <0> d          -0.067  -0.126   2.419  0.00  0.00     0.034 H 
ATOM     16  H9  <0> d          -1.785   1.273   1.236  0.00  0.00     0.040 H 
ENDROOT
BRANCH   7  17
ATOM     17  C7  <0> d          -0.013   1.086   0.008  0.00  0.00     0.019 C 
ATOM     18  H10 <0> d           1.019   1.467   0.000  0.00  0.00     0.049 H 
ATOM     19  H11 <0> d           0.002  -0.014   0.002  0.00  0.00     0.049 H 
BRANCH  17  20
ATOM     20  C8  <0> d          -0.742   1.585  -1.213  0.00  0.00     0.172 C 
ATOM     21  O2  <0> d          -1.732   2.266  -1.089  0.00  0.00    -0.648 OA
ATOM     22  O3  <0> d          -0.290   1.274  -2.438  0.00  0.00    -0.648 OA
ENDBRANCH  17  20
ENDBRANCH   7  17
TORSDOF 2
