REMARK  3 active torsions:
REMARK  status: ('A' for Active; 'I' for Inactive)
REMARK    1  A    between atoms: C1_1  and  C2_2 
REMARK    2  A    between atoms: C6_7  and  C9_13 
REMARK       I    between atoms: N1_9  and  C7_10 
REMARK    3  A    between atoms: C7_10  and  C8_12 
ROOT
ATOM      1  C2  <0> d          -0.802   3.199  -1.149  0.00  0.00     0.011 C 
ATOM      2  H1  <0> d           0.196   3.634  -1.196  0.00  0.00     0.072 H 
ATOM      3  C3  <0> d          -0.715   1.687  -1.377  0.00  0.00    -0.046 C 
ATOM      4  C4  <0> d           0.057   1.044  -0.223  0.00  0.00    -0.061 C 
ATOM      5  C5  <0> d          -0.686   1.293   1.091  0.00  0.00    -0.046 C 
ATOM      6  C6  <0> d          -0.772   2.800   1.347  0.00  0.00     0.011 C 
ATOM      7  H2  <0> d          -1.384   2.989   2.230  0.00  0.00     0.072 H 
ATOM      8  N1  <0> d          -1.384   3.445   0.177  0.00  0.00    -0.344 N 
ATOM      9  C7  <0> d          -2.459   4.245   0.318  0.00  0.00     0.216 C 
ATOM     10  O1  <0> d          -3.019   4.687  -0.663  0.00  0.00    -0.274 OA
ATOM     11  H6  <0> d          -0.198   1.490  -2.316  0.00  0.00     0.035 H 
ATOM     12  H7  <0> d          -1.720   1.267  -1.421  0.00  0.00     0.035 H 
ATOM     13  H8  <0> d           0.142  -0.029  -0.396  0.00  0.00     0.033 H 
ATOM     14  H9  <0> d           1.054   1.482  -0.165  0.00  0.00     0.033 H 
ATOM     15  H10 <0> d          -1.692   0.877   1.024  0.00  0.00     0.035 H 
ATOM     16  H11 <0> d          -0.148   0.815   1.910  0.00  0.00     0.035 H 
ENDROOT
BRANCH   1  17
ATOM     17  C1  <0> d          -1.690   3.830  -2.224  0.00  0.00    -0.057 C 
ATOM     18  H3  <0> d          -2.704   3.438  -2.133  0.00  0.00     0.030 H 
ATOM     19  H4  <0> d          -1.706   4.912  -2.093  0.00  0.00     0.030 H 
ATOM     20  H5  <0> d          -1.294   3.588  -3.210  0.00  0.00     0.030 H 
ENDBRANCH   1  17
BRANCH   6  21
ATOM     21  C9  <0> d           0.633   3.365   1.567  0.00  0.00    -0.057 C 
ATOM     22  H15 <0> d           0.570   4.440   1.737  0.00  0.00     0.030 H 
ATOM     23  H16 <0> d           1.085   2.886   2.436  0.00  0.00     0.030 H 
ATOM     24  H17 <0> d           1.244   3.171   0.686  0.00  0.00     0.030 H 
ENDBRANCH   6  21
BRANCH   9  25
ATOM     25  C8  <0> d          -2.966   4.591   1.694  0.00  0.00    -0.003 C 
ATOM     26  H12 <0> d          -2.285   4.188   2.444  0.00  0.00     0.040 H 
ATOM     27  H13 <0> d          -3.022   5.675   1.799  0.00  0.00     0.040 H 
ATOM     28  H14 <0> d          -3.958   4.161   1.835  0.00  0.00     0.040 H 
ENDBRANCH   9  25
TORSDOF 3
