REMARK  8 active torsions:
REMARK  status: ('A' for Active; 'I' for Inactive)
REMARK    1  A    between atoms: C1_1  and  C2_2 
REMARK    2  A    between atoms: C2_2  and  C3_4 
REMARK    3  A    between atoms: C2_2  and  O2_10 
REMARK    4  A    between atoms: C3_4  and  O1_5 
REMARK    5  A    between atoms: O1_5  and  C4_6 
REMARK    6  A    between atoms: C4_6  and  C5_7 
REMARK    7  A    between atoms: C4_6  and  C6_8 
REMARK    8  A    between atoms: C4_6  and  C7_9 
ROOT
ATOM      1  C4  <0> d          -3.495  -0.412   1.229  0.00  0.00     0.050 C 
ENDROOT
BRANCH   1   2
ATOM      2  O1  <0> d          -2.137   0.021   1.126  0.00  0.00    -0.379 OA
BRANCH   2   3
ATOM      3  C3  <0> d          -1.433  -0.534   0.013  0.00  0.00     0.044 C 
ATOM      4  H5  <0> d          -1.933  -0.247  -0.912  0.00  0.00     0.078 H 
ATOM      5  H6  <0> d          -1.419  -1.620   0.097  0.00  0.00     0.078 H 
BRANCH   3   6
ATOM      6  C2  <0> d           0.002  -0.004   0.002  0.00  0.00     0.052 C 
ATOM      7  H1  <0> d           0.512  -0.356  -0.895  0.00  0.00     0.085 H 
BRANCH   6   8
ATOM      8  C1  <0> d          -0.019   1.526   0.010  0.00  0.00    -0.051 C 
ATOM      9  H2  <0> d           1.004   1.903   0.003  0.00  0.00     0.031 H 
ATOM     10  H3  <0> d          -0.546   1.887  -0.873  0.00  0.00     0.031 H 
ATOM     11  H4  <0> d          -0.529   1.877   0.907  0.00  0.00     0.031 H 
ENDBRANCH   6   8
BRANCH   6  12
ATOM     12  O2  <0> d           0.693  -0.477   1.160  0.00  0.00    -0.394 OA
ATOM     13  H16 <0> d           1.611  -0.180   1.219  0.00  0.00     0.210 HD
ENDBRANCH   6  12
ENDBRANCH   3   6
ENDBRANCH   2   3
ENDBRANCH   1   2
BRANCH   1  14
ATOM     14  C5  <0> d          -3.535  -1.934   1.382  0.00  0.00    -0.048 C 
ATOM     15  H7  <0> d          -2.992  -2.223   2.282  0.00  0.00     0.031 H 
ATOM     16  H8  <0> d          -4.571  -2.264   1.461  0.00  0.00     0.031 H 
ATOM     17  H9  <0> d          -3.071  -2.399   0.512  0.00  0.00     0.031 H 
ENDBRANCH   1  14
BRANCH   1  18
ATOM     18  C6  <0> d          -4.147   0.240   2.450  0.00  0.00    -0.048 C 
ATOM     19  H10 <0> d          -4.119   1.324   2.341  0.00  0.00     0.031 H 
ATOM     20  H11 <0> d          -5.183  -0.090   2.529  0.00  0.00     0.031 H 
ATOM     21  H12 <0> d          -3.604  -0.049   3.350  0.00  0.00     0.031 H 
ENDBRANCH   1  18
BRANCH   1  22
ATOM     22  C7  <0> d          -4.257  -0.006  -0.034  0.00  0.00    -0.048 C 
ATOM     23  H13 <0> d          -3.792  -0.471  -0.903  0.00  0.00     0.031 H 
ATOM     24  H14 <0> d          -5.293  -0.337   0.045  0.00  0.00     0.031 H 
ATOM     25  H15 <0> d          -4.229   1.078  -0.143  0.00  0.00     0.031 H 
ENDBRANCH   1  22
TORSDOF 8
