REMARK  1 active torsions:
REMARK  status: ('A' for Active; 'I' for Inactive)
REMARK    1  A    between atoms: C1_1  and  C2_2 
ROOT
ATOM      1  C2  <0> d           1.159   3.188   0.008  0.00  0.00    -0.040 A 
ATOM      2  C3  <0> d          -0.050   3.851   0.022  0.00  0.00    -0.055 A 
ATOM      3  C4  <0> d          -1.235   3.135   0.029  0.00  0.00     0.034 A 
ATOM      4  C5  <0> d          -1.215   1.750   0.017  0.00  0.00    -0.060 A 
ATOM      5  C6  <0> d          -0.013   1.076   0.008  0.00  0.00    -0.061 A 
ATOM      6  C7  <0> d           1.187   1.792   0.000  0.00  0.00     0.050 A 
ATOM      7  C8  <0> d           2.439   1.098  -0.015  0.00  0.00     0.100 C 
ATOM      8  N1  <0> d           3.432   0.547  -0.028  0.00  0.00    -0.191 NA
ATOM      9 Cl1  <0> d          -2.753   3.977   0.046  0.00  0.00    -0.084 Cl
ATOM     10  H4  <0> d          -0.072   4.931   0.028  0.00  0.00     0.086 H 
ATOM     11  H5  <0> d          -2.143   1.198   0.019  0.00  0.00     0.086 H 
ATOM     12  H6  <0> d           0.002  -0.004   0.002  0.00  0.00     0.085 H 
ENDROOT
BRANCH   1  13
ATOM     13  C1  <0> d           2.448   3.969   0.000  0.00  0.00    -0.050 C 
ATOM     14  H1  <0> d           2.750   4.162  -1.029  0.00  0.00     0.033 H 
ATOM     15  H2  <0> d           2.303   4.916   0.520  0.00  0.00     0.033 H 
ATOM     16  H3  <0> d           3.225   3.393   0.504  0.00  0.00     0.033 H 
ENDBRANCH   1  13
TORSDOF 1
