REMARK  4 active torsions:
REMARK  status: ('A' for Active; 'I' for Inactive)
REMARK    1  A    between atoms: C1_1  and  C2_2 
REMARK    2  A    between atoms: C4_4  and  O2_10 
REMARK    3  A    between atoms: C6_6  and  O1_9 
REMARK    4  A    between atoms: C7_7  and  C8_8 
ROOT
ATOM      1  C2  <0> d           1.208  -0.680  -0.013  0.00  0.00    -0.051 A 
ATOM      2  C3  <0> d           0.002  -0.004   0.002  0.00  0.00    -0.045 A 
ATOM      3  C4  <0> d          -0.017   1.383   0.010  0.00  0.00     0.068 A 
ATOM      4  C5  <0> d           1.175   2.092   0.002  0.00  0.00    -0.019 A 
ATOM      5  C6  <0> d           2.383   1.412  -0.013  0.00  0.00     0.074 A 
ATOM      6  C7  <0> d           2.396   0.024  -0.021  0.00  0.00    -0.023 A 
ATOM      7  H4  <0> d          -0.926  -0.556   0.008  0.00  0.00     0.088 H 
ATOM      8  H5  <0> d           1.163   3.172   0.008  0.00  0.00     0.092 H 
ENDROOT
BRANCH   1   9
ATOM      9  C1  <0> d           1.225  -2.187  -0.021  0.00  0.00    -0.051 C 
ATOM     10  H1  <0> d           1.219  -2.545  -1.051  0.00  0.00     0.033 H 
ATOM     11  H2  <0> d           2.124  -2.542   0.482  0.00  0.00     0.033 H 
ATOM     12  H3  <0> d           0.344  -2.563   0.499  0.00  0.00     0.033 H 
ENDBRANCH   1   9
BRANCH   6  13
ATOM     13  C8  <0> d           3.709  -0.716  -0.038  0.00  0.00    -0.048 C 
ATOM     14  H6  <0> d           4.015  -0.889  -1.070  0.00  0.00     0.033 H 
ATOM     15  H7  <0> d           4.468  -0.122   0.471  0.00  0.00     0.033 H 
ATOM     16  H8  <0> d           3.594  -1.673   0.472  0.00  0.00     0.033 H 
ENDBRANCH   6  13
BRANCH   5  17
ATOM     17  O1  <0> d           3.553   2.103  -0.021  0.00  0.00    -0.360 OA
ATOM     18  H9  <0> d           3.882   2.308  -0.907  0.00  0.00     0.217 HD
ENDBRANCH   5  17
BRANCH   3  19
ATOM     19  O2  <0> d          -1.202   2.047   0.019  0.00  0.00    -0.361 OA
ATOM     20  H10 <0> d          -1.541   2.235   0.905  0.00  0.00     0.217 HD
ENDBRANCH   3  19
TORSDOF 4
