REMARK  4 active torsions:
REMARK  status: ('A' for Active; 'I' for Inactive)
REMARK    1  A    between atoms: C2_2  and  C3_3 
REMARK    2  A    between atoms: C3_3  and  N1_4 
REMARK    3  A    between atoms: N1_4  and  C4_5 
REMARK    4  A    between atoms: C5_7  and  N4_10 
ROOT
ATOM      1  N1  <0> d           2.455  -1.395  -0.029  0.00  0.00    -0.364 N 
ATOM      2  H6  <0> d           3.425  -1.362  -0.037  0.00  0.00     0.162 HD
ENDROOT
BRANCH   1   3
ATOM      3  C3  <0> d           1.767  -2.688  -0.029  0.00  0.00     0.009 C 
ATOM      4  H4  <0> d           1.151  -2.772   0.866  0.00  0.00     0.070 H 
ATOM      5  H5  <0> d           1.134  -2.763  -0.913  0.00  0.00     0.070 H 
BRANCH   3   6
ATOM      6  C2  <0> d           2.785  -3.799  -0.044  0.00  0.00    -0.095 C 
ATOM      7  C1  <0> d           2.756  -4.727   0.881  0.00  0.00    -0.123 C 
ATOM      8  H1  <0> d           2.003  -4.695   1.654  0.00  0.00     0.066 H 
ATOM      9  H2  <0> d           3.485  -5.523   0.870  0.00  0.00     0.066 H 
ATOM     10  H3  <0> d           3.538  -3.831  -0.817  0.00  0.00     0.078 H 
ENDBRANCH   3   6
ENDBRANCH   1   3
BRANCH   1  11
ATOM     11  C4  <0> d           1.723  -0.222  -0.016  0.00  0.00     0.204 A 
ATOM     12  S1  <0> d           0.002  -0.004   0.002  0.00  0.00     0.069 SA
ATOM     13  N3  <0> d          -0.021   1.708   0.011  0.00  0.00    -0.020 NA
ATOM     14  C5  <0> d           1.262   2.003   0.001  0.00  0.00     0.729 A 
ATOM     15  N2  <0> d           2.151   1.033  -0.013  0.00  0.00    -0.036 NA
BRANCH  14  16
ATOM     16  N4  <0> d           1.675   3.334   0.004  0.00  0.00    -0.230 N 
ATOM     17  H7  <0> d           1.017   4.047   0.014  0.00  0.00     0.174 HD
ATOM     18  H8  <0> d           2.621   3.549  -0.005  0.00  0.00     0.174 HD
ENDBRANCH  14  16
ENDBRANCH   1  11
TORSDOF 4
