REMARK  2 active torsions:
REMARK  status: ('A' for Active; 'I' for Inactive)
REMARK    1  A    between atoms: C1_1  and  C2_2 
REMARK    2  A    between atoms: C3_3  and  C5_8 
ROOT
ATOM      1  C2  <0> d           0.002  -0.004   0.002  0.00  0.00     0.019 A 
ATOM      2  C3  <0> d           0.008  -0.821  -1.133  0.00  0.00     0.061 A 
ATOM      3  N1  <0> d           0.028  -2.069  -0.739  0.00  0.00    -0.177 NA
ATOM      4  N2  <0> d           0.035  -2.090   0.661  0.00  0.00    -0.254 N 
ATOM      5  C4  <0> d           0.024  -0.810   1.096  0.00  0.00     0.203 A 
ATOM      6  O1  <0> d           0.031  -0.404   2.392  0.00  0.00    -0.170 OA
ATOM      7  H4  <0> d           0.048  -2.883   1.220  0.00  0.00     0.191 HD
ENDROOT
BRANCH   1   8
ATOM      8  C1  <0> d          -0.018   1.503   0.010  0.00  0.00    -0.045 C 
ATOM      9  H1  <0> d           1.004   1.880   0.003  0.00  0.00     0.033 H 
ATOM     10  H2  <0> d          -0.545   1.864  -0.873  0.00  0.00     0.033 H 
ATOM     11  H3  <0> d          -0.529   1.854   0.907  0.00  0.00     0.033 H 
ENDBRANCH   1   8
BRANCH   2  12
ATOM     12  C5  <0> d          -0.006  -0.346  -2.563  0.00  0.00    -0.033 C 
ATOM     13  H5  <0> d           1.018  -0.217  -2.913  0.00  0.00     0.035 H 
ATOM     14  H6  <0> d          -0.513  -1.084  -3.185  0.00  0.00     0.035 H 
ATOM     15  H7  <0> d          -0.534   0.605  -2.624  0.00  0.00     0.035 H 
ENDBRANCH   2  12
TORSDOF 2
