REMARK  1 active torsions:
REMARK  status: ('A' for Active; 'I' for Inactive)
REMARK    1  A    between atoms: C4_5  and  C5_7 
REMARK       I    between atoms: C5_7  and  N3_9 
ROOT
ATOM      1  C1  <0> d           2.275   1.419  -0.012  0.00  0.00     0.020 A 
ATOM      2  C2  <0> d           2.292   0.032  -0.020  0.00  0.00     0.021 A 
ATOM      3  N1  <0> d           1.158  -0.646  -0.013  0.00  0.00    -0.245 NA
ATOM      4  C3  <0> d           0.002  -0.004   0.002  0.00  0.00     0.160 A 
ATOM      5  C4  <0> d          -0.017   1.392   0.010  0.00  0.00     0.164 A 
ATOM      6  N2  <0> d           1.129   2.068   0.002  0.00  0.00    -0.251 NA
ATOM      7 Cl1  <0> d          -1.488  -0.895   0.011  0.00  0.00    -0.060 Cl
ATOM      8  H1  <0> d           3.205   1.969  -0.018  0.00  0.00     0.117 H 
ATOM      9  H2  <0> d           3.234  -0.495  -0.032  0.00  0.00     0.117 H 
ENDROOT
BRANCH   5  10
ATOM     10  C5  <0> d          -1.308   2.117   0.020  0.00  0.00     0.271 C 
ATOM     11  O1  <0> d          -2.353   1.497   0.021  0.00  0.00    -0.266 OA
ATOM     12  N3  <0> d          -1.323   3.465   0.027  0.00  0.00    -0.365 N 
ATOM     13  H3  <0> d          -0.489   3.959   0.026  0.00  0.00     0.159 HD
ATOM     14  H4  <0> d          -2.169   3.940   0.034  0.00  0.00     0.159 HD
ENDBRANCH   5  10
TORSDOF 1
