REMARK  2 active torsions:
REMARK  status: ('A' for Active; 'I' for Inactive)
REMARK    1  A    between atoms: C5_5  and  N2_8 
REMARK    2  A    between atoms: C6_6  and  N1_7 
ROOT
ATOM      1  C1  <0> d           1.208  -0.685  -0.013  0.00  0.00    -0.034 A 
ATOM      2  C2  <0> d           2.409   0.023  -0.021  0.00  0.00     0.067 A 
ATOM      3  C3  <0> d           2.389   1.433  -0.013  0.00  0.00     0.067 A 
ATOM      4  C4  <0> d           1.170   2.109   0.002  0.00  0.00    -0.034 A 
ATOM      5  C5  <0> d          -0.017   1.395   0.010  0.00  0.00     0.053 A 
ATOM      6  C6  <0> d           0.002  -0.004   0.002  0.00  0.00     0.053 A 
ATOM      7  C7  <0> d           3.618   2.169  -0.020  0.00  0.00     0.101 C 
ATOM      8  N3  <0> d           4.593   2.752  -0.026  0.00  0.00    -0.191 NA
ATOM      9  C8  <0> d           3.657  -0.679  -0.036  0.00  0.00     0.101 C 
ATOM     10  N4  <0> d           4.647  -1.235  -0.048  0.00  0.00    -0.191 NA
ATOM     11  H1  <0> d           1.218  -1.765  -0.019  0.00  0.00     0.089 H 
ATOM     12  H2  <0> d           1.151   3.189   0.008  0.00  0.00     0.089 H 
ENDROOT
BRANCH   5  13
ATOM     13  N2  <0> d          -1.236   2.074   0.019  0.00  0.00    -0.397 N 
ATOM     14  H5  <0> d          -2.069   1.576   0.020  0.00  0.00     0.156 HD
ATOM     15  H6  <0> d          -1.252   3.044   0.025  0.00  0.00     0.156 HD
ENDBRANCH   5  13
BRANCH   6  16
ATOM     16  N1  <0> d          -1.198  -0.716   0.010  0.00  0.00    -0.397 N 
ATOM     17  H3  <0> d          -2.044  -0.240   0.021  0.00  0.00     0.156 HD
ATOM     18  H4  <0> d          -1.187  -1.686   0.005  0.00  0.00     0.156 HD
ENDBRANCH   6  16
TORSDOF 2
