REMARK  4 active torsions:
REMARK  status: ('A' for Active; 'I' for Inactive)
REMARK    1  A    between atoms: C1_1  and  O1_2 
REMARK    2  A    between atoms: O1_2  and  C2_3 
REMARK    3  A    between atoms: C2_3  and  C3_5 
REMARK    4  A    between atoms: C5_8  and  N3_11 
ROOT
ATOM      1  C3  <0> d          -1.303   1.932   0.019  0.00  0.00     0.149 A 
ATOM      2  C4  <0> d          -2.502   1.218   0.015  0.00  0.00     0.038 A 
ATOM      3  N1  <0> d          -3.654   1.863   0.030  0.00  0.00    -0.240 NA
ATOM      4  C5  <0> d          -3.671   3.191   0.037  0.00  0.00     0.138 A 
ATOM      5  C6  <0> d          -2.469   3.906   0.035  0.00  0.00     0.047 A 
ATOM      6  N2  <0> d          -1.322   3.264   0.026  0.00  0.00    -0.250 NA
ATOM      7  H4  <0> d          -2.488   0.138   0.004  0.00  0.00     0.118 H 
ATOM      8  H5  <0> d          -2.483   4.986   0.041  0.00  0.00     0.120 H 
ENDROOT
BRANCH   1   9
ATOM      9  C2  <0> d          -0.014   1.211   0.009  0.00  0.00     0.313 C 
ATOM     10  O2  <0> d           0.002  -0.004   0.002  0.00  0.00    -0.257 OA
BRANCH   9  11
ATOM     11  O1  <0> d           1.143   1.900   0.001  0.00  0.00    -0.321 OA
BRANCH  11  12
ATOM     12  C1  <0> d           2.371   1.126  -0.015  0.00  0.00     0.013 C 
ATOM     13  H1  <0> d           3.235   1.808  -0.019  0.00  0.00     0.067 H 
ATOM     14  H2  <0> d           2.397   0.496  -0.916  0.00  0.00     0.067 H 
ATOM     15  H3  <0> d           2.414   0.487   0.880  0.00  0.00     0.067 H 
ENDBRANCH  11  12
ENDBRANCH   9  11
ENDBRANCH   1   9
BRANCH   4  16
ATOM     16  N3  <0> d          -4.878   3.867   0.046  0.00  0.00    -0.383 N 
ATOM     17  H6  <0> d          -4.893   4.967   0.052  0.00  0.00     0.157 HD
ATOM     18  H7  <0> d          -5.824   3.304   0.047  0.00  0.00     0.157 HD
ENDBRANCH   4  16
TORSDOF 4
