REMARK  1 active torsions:
REMARK  status: ('A' for Active; 'I' for Inactive)
REMARK    1  A    between atoms: C5_6  and  C6_8 
ROOT
ATOM      1  C1  <0> d           2.704   3.583  -0.057  0.00  0.00    -0.046 C 
ATOM      2  C2  <0> d           2.555   4.999  -0.668  0.00  0.00    -0.009 C 
ATOM      3  C3  <0> d           1.440   4.857  -1.690  0.00  0.00     0.127 C 
ATOM      4  O1  <0> d           1.258   5.562  -2.653  0.00  0.00    -0.298 OA
ATOM      5  C4  <0> d           0.599   3.668  -1.276  0.00  0.00     0.003 C 
ATOM      6  C5  <0> d           1.235   3.094   0.007  0.00  0.00     0.037 C 
ATOM      7  H1  <0> d           0.737   3.491   0.892  0.00  0.00     0.057 H 
ATOM      8  H2  <0> d           3.140   3.633   0.942  0.00  0.00     0.034 H 
ATOM      9  H3  <0> d           3.298   2.941  -0.708  0.00  0.00     0.034 H 
ATOM     10  H4  <0> d           3.421   5.276  -1.085  0.00  0.00     0.044 H 
ATOM     11  H5  <0> d           2.276   5.718   0.102  0.00  0.00     0.044 H 
ATOM     12  H6  <0> d           0.598   2.989  -2.010  0.00  0.00     0.045 H 
ATOM     13  H7  <0> d          -0.424   3.986  -1.075  0.00  0.00     0.045 H 
ENDROOT
BRANCH   6  14
ATOM     14  C6  <0> d           1.177   1.588  -0.001  0.00  0.00     0.177 C 
ATOM     15  O2  <0> d           2.199   0.944  -0.014  0.00  0.00    -0.648 OA
ATOM     16  O3  <0> d          -0.011   0.963   0.007  0.00  0.00    -0.648 OA
ENDBRANCH   6  14
TORSDOF 1
