REMARK  3 active torsions:
REMARK  status: ('A' for Active; 'I' for Inactive)
REMARK    1  A    between atoms: C1_1  and  C2_2 
REMARK    2  A    between atoms: C6_7  and  C7_8 
REMARK    3  A    between atoms: C6_7  and  C8_9 
ROOT
ATOM      1  C2  <0> d           0.002  -0.004   0.002  0.00  0.00     0.024 C 
ATOM      2  C3  <0> d           0.746  -0.667  -1.197  0.00  0.00    -0.051 C 
ATOM      3  C4  <0> d           1.065  -2.101  -0.713  0.00  0.00    -0.059 C 
ATOM      4  C5  <0> d           0.474  -2.165   0.729  0.00  0.00    -0.040 C 
ATOM      5  H1  <0> d           0.859  -2.958   1.370  0.00  0.00     0.041 H 
ATOM      6  C6  <0> d           0.727  -0.692   1.212  0.00  0.00    -0.029 C 
ATOM      7  C9  <0> d          -1.071  -2.146   0.514  0.00  0.00    -0.005 C 
ATOM      8  C10 <0> d          -1.369  -0.692   0.058  0.00  0.00     0.136 C 
ATOM      9  O1  <0> d          -2.442  -0.211  -0.217  0.00  0.00    -0.297 OA
ATOM     10  H5  <0> d           0.101  -0.697  -2.075  0.00  0.00     0.034 H 
ATOM     11  H6  <0> d           1.667  -0.127  -1.419  0.00  0.00     0.034 H 
ATOM     12  H7  <0> d           0.581  -2.836  -1.356  0.00  0.00     0.033 H 
ATOM     13  H8  <0> d           2.142  -2.264  -0.690  0.00  0.00     0.033 H 
ATOM     14  H15 <0> d          -1.357  -2.875  -0.244  0.00  0.00     0.044 H 
ATOM     15  H16 <0> d          -1.587  -2.352   1.452  0.00  0.00     0.044 H 
ENDROOT
BRANCH   6  16
ATOM     16  C7  <0> d           0.034  -0.396   2.543  0.00  0.00    -0.068 C 
ATOM     17  H9  <0> d          -0.992  -0.763   2.508  0.00  0.00     0.028 H 
ATOM     18  H10 <0> d           0.571  -0.892   3.351  0.00  0.00     0.028 H 
ATOM     19  H11 <0> d           0.029   0.680   2.718  0.00  0.00     0.028 H 
ENDBRANCH   6  16
BRANCH   6  20
ATOM     20  C8  <0> d           2.218  -0.351   1.258  0.00  0.00    -0.068 C 
ATOM     21  H12 <0> d           2.341   0.728   1.358  0.00  0.00     0.028 H 
ATOM     22  H13 <0> d           2.678  -0.849   2.111  0.00  0.00     0.028 H 
ATOM     23  H14 <0> d           2.697  -0.688   0.339  0.00  0.00     0.028 H 
ENDBRANCH   6  20
BRANCH   1  24
ATOM     24  C1  <0> d          -0.019   1.526   0.010  0.00  0.00    -0.062 C 
ATOM     25  H2  <0> d           1.004   1.903   0.003  0.00  0.00     0.029 H 
ATOM     26  H3  <0> d          -0.546   1.887  -0.873  0.00  0.00     0.029 H 
ATOM     27  H4  <0> d          -0.529   1.877   0.907  0.00  0.00     0.029 H 
ENDBRANCH   1  24
TORSDOF 3
