REMARK  1 active torsions:
REMARK  status: ('A' for Active; 'I' for Inactive)
REMARK    1  A    between atoms: C5_5  and  N1_7 
ROOT
ATOM      1  C1  <0> d           4.188   2.253  -0.170  0.00  0.00    -0.080 A 
ATOM      2  C2  <0> d           3.598   1.043  -0.482  0.00  0.00    -0.076 A 
ATOM      3  C3  <0> d           2.224   0.892  -0.398  0.00  0.00    -0.050 A 
ATOM      4  C4  <0> d           1.437   1.955  -0.001  0.00  0.00    -0.026 A 
ATOM      5  C5  <0> d           2.029   3.174   0.313  0.00  0.00     0.032 A 
ATOM      6  C6  <0> d           3.406   3.320   0.228  0.00  0.00    -0.057 A 
ATOM      7  C7  <0> d          -0.019   1.539   0.011  0.00  0.00    -0.038 C 
ATOM      8  C8  <0> d           0.002  -0.004   0.002  0.00  0.00    -0.058 C 
ATOM      9  C9  <0> d           1.351  -0.313  -0.681  0.00  0.00    -0.040 C 
ATOM     10  H1  <0> d           5.260   2.365  -0.237  0.00  0.00     0.083 H 
ATOM     11  H2  <0> d           4.212   0.211  -0.793  0.00  0.00     0.084 H 
ATOM     12  H3  <0> d           3.866   4.267   0.471  0.00  0.00     0.086 H 
ATOM     13  H6  <0> d          -0.527   1.915  -0.877  0.00  0.00     0.040 H 
ATOM     14  H7  <0> d          -0.510   1.906   0.912  0.00  0.00     0.040 H 
ATOM     15  H8  <0> d          -0.017  -0.398   1.018  0.00  0.00     0.033 H 
ATOM     16  H9  <0> d          -0.830  -0.400  -0.580  0.00  0.00     0.033 H 
ATOM     17  H10 <0> d           1.796  -1.211  -0.252  0.00  0.00     0.040 H 
ATOM     18  H11 <0> d           1.212  -0.435  -1.756  0.00  0.00     0.040 H 
ENDROOT
BRANCH   5  19
ATOM     19  N1  <0> d           1.236   4.252   0.715  0.00  0.00    -0.399 N 
ATOM     20  H4  <0> d           1.648   5.102   0.933  0.00  0.00     0.156 HD
ATOM     21  H5  <0> d           0.273   4.150   0.774  0.00  0.00     0.156 HD
ENDBRANCH   5  19
TORSDOF 1
