REMARK  2 active torsions:
REMARK  status: ('A' for Active; 'I' for Inactive)
REMARK    1  A    between atoms: C1_1  and  C2_2 
REMARK    2  A    between atoms: N1_6  and  C6_7 
ROOT
ATOM      1  C2  <0> d           0.661   3.196   0.013  0.00  0.00     0.011 A 
ATOM      2  C3  <0> d           1.113   1.925   0.002  0.00  0.00    -0.060 A 
ATOM      3  C4  <0> d          -0.013   1.076   0.008  0.00  0.00    -0.066 A 
ATOM      4  C5  <0> d          -1.111   1.859   0.017  0.00  0.00    -0.015 A 
ATOM      5  N1  <0> d          -0.705   3.163   0.026  0.00  0.00    -0.338 N 
ATOM      6  H4  <0> d           2.147   1.615  -0.010  0.00  0.00     0.086 H 
ATOM      7  H5  <0> d           0.002  -0.004   0.002  0.00  0.00     0.085 H 
ATOM      8  H6  <0> d          -2.134   1.514   0.019  0.00  0.00     0.112 H 
ENDROOT
BRANCH   5   9
ATOM      9  C6  <0> d          -1.545   4.277   0.040  0.00  0.00    -0.025 C 
ATOM     10  C7  <0> d          -2.853   4.115   0.051  0.00  0.00    -0.106 C 
ATOM     11  H8  <0> d          -3.275   3.121   0.050  0.00  0.00     0.068 H 
ATOM     12  H9  <0> d          -3.504   4.977   0.062  0.00  0.00     0.068 H 
ATOM     13  H7  <0> d          -1.124   5.271   0.041  0.00  0.00     0.110 H 
ENDBRANCH   5   9
BRANCH   1  14
ATOM     14  C1  <0> d           1.515   4.437   0.011  0.00  0.00    -0.037 C 
ATOM     15  H1  <0> d           1.711   4.742  -1.016  0.00  0.00     0.035 H 
ATOM     16  H2  <0> d           0.993   5.238   0.535  0.00  0.00     0.035 H 
ATOM     17  H3  <0> d           2.460   4.229   0.515  0.00  0.00     0.035 H 
ENDBRANCH   1  14
TORSDOF 2
