REMARK  0 active torsions:
REMARK  status: ('A' for Active; 'I' for Inactive)
ROOT
ATOM      1  C1  <0> d           1.471   1.966  -0.001  0.00  0.00    -0.061 C 
ATOM      2  C2  <0> d          -0.019   1.555   0.011  0.00  0.00    -0.060 C 
ATOM      3  C3  <0> d           0.002  -0.004   0.002  0.00  0.00    -0.038 C 
ATOM      4  H1  <0> d          -0.909  -0.495   0.343  0.00  0.00     0.042 H 
ATOM      5  C4  <0> d           1.296  -0.281   0.846  0.00  0.00    -0.057 C 
ATOM      6  C5  <0> d           2.252   0.617  -0.048  0.00  0.00    -0.052 C 
ATOM      7  H2  <0> d           3.298   0.654   0.255  0.00  0.00     0.040 H 
ATOM      8  C6  <0> d           1.973   0.031  -1.466  0.00  0.00    -0.046 C 
ATOM      9  C7  <0> d           0.483  -0.380  -1.433  0.00  0.00     0.034 C 
ATOM     10  H3  <0> d           0.379  -1.452  -1.600  0.00  0.00     0.063 H 
ATOM     11  C8  <0> d          -0.279   0.372  -2.443  0.00  0.00     0.064 C 
ATOM     12  N1  <0> d          -0.868   0.952  -3.223  0.00  0.00    -0.197 NA
ATOM     13  H4  <0> d           1.698   2.546  -0.896  0.00  0.00     0.033 H 
ATOM     14  H5  <0> d           1.715   2.537   0.895  0.00  0.00     0.033 H 
ATOM     15  H6  <0> d          -0.525   1.933  -0.878  0.00  0.00     0.033 H 
ATOM     16  H7  <0> d          -0.508   1.923   0.913  0.00  0.00     0.033 H 
ATOM     17  H8  <0> d           1.203   0.085   1.868  0.00  0.00     0.034 H 
ATOM     18  H9  <0> d           1.586  -1.332   0.817  0.00  0.00     0.034 H 
ATOM     19  H10 <0> d           2.603  -0.839  -1.648  0.00  0.00     0.035 H 
ATOM     20  H11 <0> d           2.141   0.788  -2.232  0.00  0.00     0.035 H 
ENDROOT
TORSDOF 0
