REMARK  4 active torsions:
REMARK  status: ('A' for Active; 'I' for Inactive)
REMARK    1  A    between atoms: C1_1  and  C2_2 
REMARK    2  A    between atoms: C4_5  and  C7_9 
REMARK    3  A    between atoms: C5_6  and  C6_8 
REMARK    4  A    between atoms: C7_9  and  C8_11 
ROOT
ATOM      1  C2  <0> d          -1.357   5.620   1.834  0.00  0.00     0.048 A 
ATOM      2  C3  <0> d          -0.429   5.189   0.895  0.00  0.00     0.026 A 
ATOM      3  N1  <0> d          -0.111   3.914   0.817  0.00  0.00    -0.253 NA
ATOM      4  C4  <0> d          -0.681   3.035   1.641  0.00  0.00     0.126 A 
ATOM      5  C5  <0> d          -1.618   3.472   2.580  0.00  0.00     0.063 A 
ATOM      6  N2  <0> d          -1.926   4.754   2.654  0.00  0.00    -0.255 NA
ATOM      7  H4  <0> d           0.033   5.902   0.228  0.00  0.00     0.117 H 
ENDROOT
BRANCH   4   8
ATOM      8  C7  <0> d          -0.328   1.605   1.557  0.00  0.00     0.176 C 
ATOM      9  O1  <0> d          -0.756   0.826   2.381  0.00  0.00    -0.291 OA
BRANCH   8  10
ATOM     10  C8  <0> d           0.564   1.113   0.446  0.00  0.00    -0.015 C 
ATOM     11  H8  <0> d           0.699   0.127   0.540  0.00  0.00     0.038 H 
ATOM     12  H9  <0> d           1.527   1.619   0.503  0.00  0.00     0.038 H 
ATOM     13  H10 <0> d           0.097   1.326  -0.516  0.00  0.00     0.038 H 
ENDBRANCH   8  10
ENDBRANCH   4   8
BRANCH   5  14
ATOM     14  C6  <0> d          -2.271   2.483   3.511  0.00  0.00    -0.033 C 
ATOM     15  H5  <0> d          -1.619   2.304   4.366  0.00  0.00     0.035 H 
ATOM     16  H6  <0> d          -3.223   2.885   3.858  0.00  0.00     0.035 H 
ATOM     17  H7  <0> d          -2.443   1.546   2.982  0.00  0.00     0.035 H 
ENDBRANCH   5  14
BRANCH   1  18
ATOM     18  C1  <0> d          -1.717   7.082   1.918  0.00  0.00    -0.034 C 
ATOM     19  H1  <0> d          -2.560   7.287   1.259  0.00  0.00     0.035 H 
ATOM     20  H2  <0> d          -1.989   7.330   2.944  0.00  0.00     0.035 H 
ATOM     21  H3  <0> d          -0.862   7.684   1.613  0.00  0.00     0.035 H 
ENDBRANCH   1  18
TORSDOF 4
