REMARK  2 active torsions:
REMARK  status: ('A' for Active; 'I' for Inactive)
REMARK    1  A    between atoms: C1_1  and  O1_2 
REMARK    2  A    between atoms: O1_2  and  C2_3 
ROOT
ATOM      1  C2  <0> d          -0.054   4.200   0.025  0.00  0.00     0.071 A 
ATOM      2  C3  <0> d           1.159   3.522   0.010  0.00  0.00    -0.049 A 
ATOM      3  C4  <0> d           1.182   2.146   0.002  0.00  0.00    -0.057 A 
ATOM      4  C5  <0> d          -0.017   1.428   0.010  0.00  0.00     0.083 A 
ATOM      5  C6  <0> d          -1.238   2.114   0.019  0.00  0.00     0.139 A 
ATOM      6  C7  <0> d          -1.250   3.494   0.032  0.00  0.00    -0.012 A 
ATOM      7  F1  <0> d          -2.401   1.426   0.021  0.00  0.00    -0.204 F 
ATOM      8  C8  <0> d           0.002  -0.004   0.002  0.00  0.00     0.102 C 
ATOM      9  N1  <0> d           0.018  -1.140  -0.004  0.00  0.00    -0.191 NA
ATOM     10  H4  <0> d           2.086   4.076   0.004  0.00  0.00     0.087 H 
ATOM     11  H5  <0> d           2.126   1.621  -0.010  0.00  0.00     0.086 H 
ATOM     12  H6  <0> d          -2.190   4.025   0.044  0.00  0.00     0.092 H 
ENDROOT
BRANCH   1  13
ATOM     13  O1  <0> d          -0.071   5.558   0.033  0.00  0.00    -0.356 OA
BRANCH  13  14
ATOM     14  C1  <0> d          -1.352   6.191   0.048  0.00  0.00     0.010 C 
ATOM     15  H1  <0> d          -1.897   5.887   0.942  0.00  0.00     0.066 H 
ATOM     16  H2  <0> d          -1.222   7.273   0.053  0.00  0.00     0.066 H 
ATOM     17  H3  <0> d          -1.914   5.896  -0.838  0.00  0.00     0.066 H 
ENDBRANCH  13  14
ENDBRANCH   1  13
TORSDOF 2
