REMARK  8 active torsions:
REMARK  status: ('A' for Active; 'I' for Inactive)
REMARK    1  A    between atoms: C1_1  and  C2_2 
REMARK    2  A    between atoms: C2_2  and  C3_4 
REMARK    3  A    between atoms: C2_2  and  O3_10 
REMARK    4  A    between atoms: C3_4  and  C4_5 
REMARK    5  A    between atoms: C4_5  and  O1_6 
REMARK    6  A    between atoms: O1_6  and  C5_7 
REMARK    7  A    between atoms: C5_7  and  C6_9 
REMARK    8  A    between atoms: O3_10  and  C7_11 
ROOT
ATOM      1  C3  <0> d          -0.013   1.086   0.008  0.00  0.00    -0.021 C 
ATOM      2  H5  <0> d           0.002  -0.004   0.002  0.00  0.00     0.040 H 
ATOM      3  H6  <0> d           1.010   1.463   0.000  0.00  0.00     0.040 H 
ENDROOT
BRANCH   1   4
ATOM      4  C2  <0> d          -0.729   1.579   1.267  0.00  0.00     0.036 C 
ATOM      5  H1  <0> d          -1.776   1.277   1.232  0.00  0.00     0.082 H 
BRANCH   4   6
ATOM      6  C1  <0> d          -0.064   0.971   2.503  0.00  0.00    -0.052 C 
ATOM      7  H2  <0> d          -0.574   1.323   3.400  0.00  0.00     0.030 H 
ATOM      8  H3  <0> d          -0.126  -0.116   2.452  0.00  0.00     0.030 H 
ATOM      9  H4  <0> d           0.983   1.274   2.539  0.00  0.00     0.030 H 
ENDBRANCH   4   6
BRANCH   4  10
ATOM     10  O3  <0> d          -0.647   3.004   1.334  0.00  0.00    -0.391 OA
BRANCH  10  11
ATOM     11  C7  <0> d          -1.755   3.620   1.993  0.00  0.00     0.004 C 
ATOM     12  H12 <0> d          -2.675   3.375   1.462  0.00  0.00     0.066 H 
ATOM     13  H13 <0> d          -1.818   3.253   3.017  0.00  0.00     0.066 H 
ATOM     14  H14 <0> d          -1.617   4.701   2.002  0.00  0.00     0.066 H 
ENDBRANCH  10  11
ENDBRANCH   4  10
ENDBRANCH   1   4
BRANCH   1  15
ATOM     15  C4  <0> d          -0.753   1.593  -1.232  0.00  0.00     0.031 C 
ATOM     16  H7  <0> d          -1.775   1.215  -1.224  0.00  0.00     0.075 H 
ATOM     17  H8  <0> d          -0.767   2.683  -1.226  0.00  0.00     0.075 H 
BRANCH  15  18
ATOM     18  O1  <0> d          -0.073   1.124  -2.426  0.00  0.00    -0.322 OA
BRANCH  18  19
ATOM     19  C5  <0> d          -0.599   1.484  -3.607  0.00  0.00     0.254 C 
ATOM     20  O2  <0> d          -1.595   2.168  -3.642  0.00  0.00    -0.266 OA
BRANCH  19  21
ATOM     21  C6  <0> d           0.052   1.036  -4.890  0.00  0.00     0.004 C 
ATOM     22  H9  <0> d           0.930   0.433  -4.661  0.00  0.00     0.041 H 
ATOM     23  H10 <0> d          -0.656   0.442  -5.468  0.00  0.00     0.041 H 
ATOM     24  H11 <0> d           0.352   1.909  -5.470  0.00  0.00     0.041 H 
ENDBRANCH  19  21
ENDBRANCH  18  19
ENDBRANCH  15  18
ENDBRANCH   1  15
TORSDOF 8
