REMARK  2 active torsions:
REMARK  status: ('A' for Active; 'I' for Inactive)
REMARK    1  A    between atoms: C1_1  and  C2_2 
REMARK    2  A    between atoms: C2_2  and  O1_11 
ROOT
ATOM      1  C2  <0> d           0.846   1.569  -2.309  0.00  0.00     0.058 C 
ATOM      2  C3  <0> d          -0.292   1.710  -1.244  0.00  0.00    -0.033 C 
ATOM      3  C4  <0> d           0.380   1.327   0.110  0.00  0.00    -0.051 C 
ATOM      4  H1  <0> d          -0.126   1.662   1.016  0.00  0.00     0.040 H 
ATOM      5  C5  <0> d           0.635  -0.207  -0.000  0.00  0.00    -0.061 C 
ATOM      6  C6  <0> d           1.764  -0.341  -1.048  0.00  0.00    -0.059 C 
ATOM      7  C7  <0> d           2.084   1.126  -1.472  0.00  0.00    -0.024 C 
ATOM      8  H2  <0> d           3.057   1.285  -1.937  0.00  0.00     0.044 H 
ATOM      9  C8  <0> d           1.831   1.880  -0.119  0.00  0.00    -0.056 C 
ATOM     10  H6  <0> d          -1.106   1.022  -1.472  0.00  0.00     0.037 H 
ATOM     11  H7  <0> d          -0.659   2.736  -1.210  0.00  0.00     0.037 H 
ATOM     12  H8  <0> d           0.958  -0.608   0.960  0.00  0.00     0.033 H 
ATOM     13  H9  <0> d          -0.265  -0.718  -0.342  0.00  0.00     0.033 H 
ATOM     14  H10 <0> d           2.642  -0.808  -0.603  0.00  0.00     0.033 H 
ATOM     15  H11 <0> d           1.419  -0.917  -1.906  0.00  0.00     0.033 H 
ATOM     16  H12 <0> d           1.840   2.963  -0.247  0.00  0.00     0.034 H 
ATOM     17  H13 <0> d           2.519   1.560   0.663  0.00  0.00     0.034 H 
ENDROOT
BRANCH   1  18
ATOM     18  C1  <0> d           0.502   0.508  -3.356  0.00  0.00    -0.048 C 
ATOM     19  H3  <0> d           0.136  -0.389  -2.857  0.00  0.00     0.031 H 
ATOM     20  H4  <0> d          -0.268   0.893  -4.024  0.00  0.00     0.031 H 
ATOM     21  H5  <0> d           1.395   0.264  -3.933  0.00  0.00     0.031 H 
ENDBRANCH   1  18
BRANCH   1  22
ATOM     22  O1  <0> d           1.096   2.827  -2.940  0.00  0.00    -0.390 OA
ATOM     23  H14 <0> d           0.359   3.152  -3.475  0.00  0.00     0.210 HD
ENDBRANCH   1  22
TORSDOF 2
