REMARK  1 active torsions:
REMARK  status: ('A' for Active; 'I' for Inactive)
REMARK    1  A    between atoms: C6_6  and  O1_9 
ROOT
ATOM      1  C1  <0> d          -0.017   1.389   0.010  0.00  0.00    -0.064 A 
ATOM      2  C2  <0> d           1.156   2.088   0.002  0.00  0.00    -0.051 A 
ATOM      3  C3  <0> d           2.364   1.364  -0.013  0.00  0.00     0.085 A 
ATOM      4  C4  <0> d           2.309  -0.052  -0.020  0.00  0.00     0.087 A 
ATOM      5  C5  <0> d           3.515  -0.777  -0.036  0.00  0.00    -0.020 A 
ATOM      6  C6  <0> d           4.692  -0.077  -0.043  0.00  0.00     0.085 A 
ATOM      7  C7  <0> d           4.670   1.322  -0.035  0.00  0.00     0.035 A 
ATOM      8  N1  <0> d           3.544   1.990  -0.021  0.00  0.00    -0.256 NA
ATOM      9  N2  <0> d           1.128  -0.676  -0.013  0.00  0.00    -0.259 NA
ATOM     10  C8  <0> d           0.002  -0.004   0.002  0.00  0.00     0.003 A 
ATOM     11  H1  <0> d          -0.959   1.916   0.026  0.00  0.00     0.085 H 
ATOM     12  H2  <0> d           1.158   3.168   0.008  0.00  0.00     0.087 H 
ATOM     13  H3  <0> d           3.512  -1.857  -0.041  0.00  0.00     0.091 H 
ATOM     14  H4  <0> d           5.605   1.864  -0.041  0.00  0.00     0.119 H 
ATOM     15  H6  <0> d          -0.933  -0.544   0.008  0.00  0.00     0.114 H 
ENDROOT
BRANCH   6  16
ATOM     16  O1  <0> d           5.878  -0.740  -0.058  0.00  0.00    -0.359 OA
ATOM     17  H5  <0> d           6.213  -0.927  -0.945  0.00  0.00     0.217 HD
ENDBRANCH   6  16
TORSDOF 1
