REMARK  0 active torsions:
REMARK  status: ('A' for Active; 'I' for Inactive)
ROOT
ATOM      1  C1  <0> d           2.790  -2.306  -0.036  0.00  0.00     0.025 A 
ATOM      2  C2  <0> d           3.453  -0.918  -0.035  0.00  0.00     0.036 A 
ATOM      3  N1  <0> d           2.325   0.025  -0.020  0.00  0.00    -0.129 N 
ATOM      4  C3  <0> d           2.312   1.375  -0.014  0.00  0.00     0.344 A 
ATOM      5  O1  <0> d           3.357   1.996  -0.021  0.00  0.00    -0.246 OA
ATOM      6  N2  <0> d           1.135   2.031   0.002  0.00  0.00    -0.258 N 
ATOM      7  H1  <0> d           1.115   3.031   0.008  0.00  0.00     0.175 HD
ATOM      8  C4  <0> d          -0.016   1.331   0.009  0.00  0.00     0.365 A 
ATOM      9  O2  <0> d          -1.082   1.920   0.018  0.00  0.00    -0.244 OA
ATOM     10  N3  <0> d           0.002  -0.004   0.002  0.00  0.00    -0.006 NA
ATOM     11  C5  <0> d           1.152  -0.672  -0.013  0.00  0.00     0.711 A 
ATOM     12  N4  <0> d           1.351  -2.022  -0.021  0.00  0.00    -0.222 N 
ATOM     13  H2  <0> d           3.060  -2.857  -0.937  0.00  0.00     0.067 H 
ATOM     14  H3  <0> d           3.079  -2.867   0.853  0.00  0.00     0.067 H 
ATOM     15  H4  <0> d           4.052  -0.781  -0.936  0.00  0.00     0.068 H 
ATOM     16  H5  <0> d           4.069  -0.790   0.855  0.00  0.00     0.068 H 
ATOM     17  H6  <0> d           0.649  -2.691  -0.018  0.00  0.00     0.177 HD
ENDROOT
TORSDOF 0
