REMARK  5 active torsions:
REMARK  status: ('A' for Active; 'I' for Inactive)
REMARK    1  A    between atoms: C1_1  and  C2_2 
REMARK    2  A    between atoms: C2_2  and  N1_3 
REMARK    3  A    between atoms: C3_4  and  C7_9 
REMARK    4  A    between atoms: C5_6  and  C6_8 
REMARK    5  A    between atoms: C7_9  and  O1_10 
ROOT
ATOM      1  N1  <0> d          -0.698   1.558   1.213  0.00  0.00    -0.272 N 
ATOM      2  C3  <0> d          -1.688   0.915   1.868  0.00  0.00     0.056 A 
ATOM      3  C4  <0> d          -2.048   1.679   2.925  0.00  0.00    -0.032 A 
ATOM      4  C5  <0> d          -1.252   2.829   2.916  0.00  0.00     0.053 A 
ATOM      5  N2  <0> d          -0.439   2.755   1.894  0.00  0.00    -0.177 NA
ATOM      6  H6  <0> d          -2.816   1.443   3.647  0.00  0.00     0.089 H 
ENDROOT
BRANCH   1   7
ATOM      7  C2  <0> d          -0.013   1.086   0.008  0.00  0.00     0.014 C 
ATOM      8  H4  <0> d           0.002  -0.004   0.002  0.00  0.00     0.066 H 
ATOM      9  H5  <0> d           1.010   1.463   0.000  0.00  0.00     0.066 H 
BRANCH   7  10
ATOM     10  C1  <0> d          -0.753   1.593  -1.232  0.00  0.00    -0.059 C 
ATOM     11  H1  <0> d          -0.767   2.683  -1.226  0.00  0.00     0.029 H 
ATOM     12  H2  <0> d          -0.242   1.241  -2.128  0.00  0.00     0.029 H 
ATOM     13  H3  <0> d          -1.775   1.215  -1.224  0.00  0.00     0.029 H 
ENDBRANCH   7  10
ENDBRANCH   1   7
BRANCH   2  14
ATOM     14  C7  <0> d          -2.285  -0.416   1.489  0.00  0.00     0.056 C 
ATOM     15  H10 <0> d          -2.715  -0.350   0.489  0.00  0.00     0.083 H 
ATOM     16  H11 <0> d          -1.507  -1.179   1.500  0.00  0.00     0.083 H 
BRANCH  14  17
ATOM     17  O1  <0> d          -3.307  -0.763   2.425  0.00  0.00    -0.395 OA
ATOM     18  H12 <0> d          -3.736  -1.611   2.242  0.00  0.00     0.209 HD
ENDBRANCH  14  17
ENDBRANCH   2  14
BRANCH   4  19
ATOM     19  C6  <0> d          -1.316   3.955   3.915  0.00  0.00    -0.034 C 
ATOM     20  H7  <0> d          -0.634   3.748   4.740  0.00  0.00     0.035 H 
ATOM     21  H8  <0> d          -1.027   4.888   3.430  0.00  0.00     0.035 H 
ATOM     22  H9  <0> d          -2.332   4.044   4.298  0.00  0.00     0.035 H 
ENDBRANCH   4  19
TORSDOF 5
