REMARK  8 active torsions:
REMARK  status: ('A' for Active; 'I' for Inactive)
REMARK    1  A    between atoms: C1_1  and  C2_2 
REMARK    2  A    between atoms: C2_2  and  O1_3 
REMARK    3  A    between atoms: O1_3  and  C3_4 
REMARK    4  A    between atoms: C3_4  and  N1_5 
REMARK    5  A    between atoms: C4_6  and  C5_7 
REMARK    6  A    between atoms: C5_7  and  O3_9 
REMARK    7  A    between atoms: O3_9  and  C6_10 
REMARK    8  A    between atoms: C6_10  and  C7_11 
ROOT
ATOM      1  C3  <0> d           0.776  -1.801  -1.335  0.00  0.00     0.141 C 
ATOM      2  C4  <0> d           1.403  -2.307  -2.435  0.00  0.00     0.038 C 
ATOM      3  H7  <0> d           1.487  -3.376  -2.564  0.00  0.00     0.099 H 
ENDROOT
BRANCH   1   4
ATOM      4  O1  <0> d           0.671  -0.465  -1.174  0.00  0.00    -0.336 OA
BRANCH   4   5
ATOM      5  C2  <0> d           0.002  -0.004   0.002  0.00  0.00     0.024 C 
ATOM      6  H4  <0> d           0.529  -0.365   0.885  0.00  0.00     0.074 H 
ATOM      7  H5  <0> d          -1.020  -0.381   0.010  0.00  0.00     0.074 H 
BRANCH   5   8
ATOM      8  C1  <0> d          -0.019   1.526   0.010  0.00  0.00    -0.056 C 
ATOM      9  H1  <0> d           1.004   1.903   0.003  0.00  0.00     0.030 H 
ATOM     10  H2  <0> d          -0.546   1.887  -0.873  0.00  0.00     0.030 H 
ATOM     11  H3  <0> d          -0.529   1.877   0.907  0.00  0.00     0.030 H 
ENDBRANCH   5   8
ENDBRANCH   4   5
ENDBRANCH   1   4
BRANCH   1  12
ATOM     12  N1  <0> d           0.254  -2.647  -0.394  0.00  0.00    -0.380 N 
ATOM     13  H6  <0> d          -0.192  -2.286   0.388  0.00  0.00     0.158 HD
ATOM     14  H8  <0> d           0.329  -3.607  -0.510  0.00  0.00     0.158 HD
ENDBRANCH   1  12
BRANCH   2  15
ATOM     15  C5  <0> d           1.938  -1.440  -3.398  0.00  0.00     0.287 C 
ATOM     16  O2  <0> d           1.843  -0.235  -3.253  0.00  0.00    -0.260 OA
BRANCH  15  17
ATOM     17  O3  <0> d           2.558  -1.942  -4.488  0.00  0.00    -0.318 OA
BRANCH  17  18
ATOM     18  C6  <0> d           3.080  -1.001  -5.429  0.00  0.00     0.026 C 
ATOM     19  H9  <0> d           2.268  -0.383  -5.813  0.00  0.00     0.074 H 
ATOM     20  H10 <0> d           3.818  -0.367  -4.937  0.00  0.00     0.074 H 
BRANCH  18  21
ATOM     21  C7  <0> d           3.742  -1.751  -6.587  0.00  0.00    -0.056 C 
ATOM     22  H11 <0> d           4.553  -2.369  -6.203  0.00  0.00     0.030 H 
ATOM     23  H12 <0> d           3.004  -2.385  -7.078  0.00  0.00     0.030 H 
ATOM     24  H13 <0> d           4.139  -1.033  -7.304  0.00  0.00     0.030 H 
ENDBRANCH  18  21
ENDBRANCH  17  18
ENDBRANCH  15  17
ENDBRANCH   2  15
TORSDOF 8
