REMARK  0 active torsions:
REMARK  status: ('A' for Active; 'I' for Inactive)
ROOT
ATOM      1  C1  <0> d           1.235  -0.673  -0.013  0.00  0.00    -0.065 A 
ATOM      2  C2  <0> d           0.002  -0.004   0.002  0.00  0.00    -0.039 A 
ATOM      3  C3  <0> d          -0.016   1.361   0.009  0.00  0.00     0.184 A 
ATOM      4  C4  <0> d           1.202   2.066   0.002  0.00  0.00     0.283 A 
ATOM      5  O1  <0> d           1.201   3.286   0.008  0.00  0.00    -0.265 OA
ATOM      6  N1  <0> d           2.369   1.393  -0.013  0.00  0.00    -0.331 N 
ATOM      7  H1  <0> d           3.321   1.944  -0.018  0.00  0.00     0.168 HD
ATOM      8  C5  <0> d           2.388   0.035  -0.021  0.00  0.00    -0.020 A 
ATOM      9  F1  <0> d          -1.191   2.027   0.019  0.00  0.00    -0.200 F 
ATOM     10  H2  <0> d           1.264  -1.752  -0.019  0.00  0.00     0.085 H 
ATOM     11  H3  <0> d          -0.922  -0.563   0.008  0.00  0.00     0.088 H 
ATOM     12  H4  <0> d           3.334  -0.486  -0.032  0.00  0.00     0.111 H 
ENDROOT
TORSDOF 0
