REMARK  3 active torsions:
REMARK  status: ('A' for Active; 'I' for Inactive)
REMARK    1  A    between atoms: C1_1  and  O1_2 
REMARK    2  A    between atoms: O1_2  and  C2_3 
REMARK    3  A    between atoms: C6_8  and  N2_9 
ROOT
ATOM      1  C2  <0> d          -1.201  -0.638   0.010  0.00  0.00     0.113 A 
ATOM      2  C3  <0> d          -2.377   0.090   0.019  0.00  0.00     0.036 A 
ATOM      3  N1  <0> d          -3.553  -0.511   0.027  0.00  0.00    -0.269 NA
ATOM      4  C4  <0> d          -3.670  -1.822   0.026  0.00  0.00     0.024 A 
ATOM      5  C5  <0> d          -2.538  -2.639   0.017  0.00  0.00     0.091 A 
ATOM      6  C6  <0> d          -1.266  -2.035   0.003  0.00  0.00     0.083 A 
ATOM      7  C7  <0> d          -2.667  -4.065   0.017  0.00  0.00     0.103 C 
ATOM      8  N3  <0> d          -2.770  -5.196   0.017  0.00  0.00    -0.191 NA
ATOM      9  H4  <0> d          -2.332   1.169   0.021  0.00  0.00     0.119 H 
ATOM     10  H5  <0> d          -4.652  -2.271   0.032  0.00  0.00     0.117 H 
ENDROOT
BRANCH   6  11
ATOM     11  N2  <0> d          -0.110  -2.803  -0.011  0.00  0.00    -0.396 N 
ATOM     12  H6  <0> d           0.759  -2.372  -0.017  0.00  0.00     0.156 HD
ATOM     13  H7  <0> d          -0.171  -3.771  -0.016  0.00  0.00     0.156 HD
ENDBRANCH   6  11
BRANCH   1  14
ATOM     14  O1  <0> d           0.002  -0.004   0.002  0.00  0.00    -0.352 OA
BRANCH  14  15
ATOM     15  C1  <0> d          -0.017   1.425   0.010  0.00  0.00     0.011 C 
ATOM     16  H1  <0> d           1.005   1.802   0.002  0.00  0.00     0.067 H 
ATOM     17  H2  <0> d          -0.544   1.786  -0.873  0.00  0.00     0.067 H 
ATOM     18  H3  <0> d          -0.527   1.776   0.907  0.00  0.00     0.067 H 
ENDBRANCH  14  15
ENDBRANCH   1  14
TORSDOF 3
