REMARK  3 active torsions:
REMARK  status: ('A' for Active; 'I' for Inactive)
REMARK    1  A    between atoms: C1_1  and  C2_2 
REMARK    2  A    between atoms: C4_4  and  C9_10 
REMARK    3  A    between atoms: C6_6  and  C8_8 
ROOT
ATOM      1  C2  <0> d           0.002  -0.004   0.002  0.00  0.00    -0.061 A 
ATOM      2  C3  <0> d           0.006  -0.688  -1.199  0.00  0.00    -0.069 A 
ATOM      3  C4  <0> d           0.025  -2.070  -1.208  0.00  0.00    -0.022 A 
ATOM      4  C5  <0> d           0.041  -2.769  -0.013  0.00  0.00     0.128 A 
ATOM      5  C6  <0> d           0.037  -2.083   1.189  0.00  0.00    -0.022 A 
ATOM      6  C7  <0> d           0.023  -0.701   1.196  0.00  0.00    -0.069 A 
ATOM      7  F1  <0> d           0.059  -4.120  -0.021  0.00  0.00    -0.205 F 
ATOM      8  H4  <0> d          -0.007  -0.142  -2.131  0.00  0.00     0.085 H 
ATOM      9  H5  <0> d           0.025  -0.166   2.134  0.00  0.00     0.085 H 
ENDROOT
BRANCH   1  10
ATOM     10  C1  <0> d          -0.018   1.503   0.010  0.00  0.00    -0.051 C 
ATOM     11  H1  <0> d           1.004   1.880   0.003  0.00  0.00     0.033 H 
ATOM     12  H2  <0> d          -0.545   1.864  -0.873  0.00  0.00     0.033 H 
ATOM     13  H3  <0> d          -0.529   1.854   0.907  0.00  0.00     0.033 H 
ENDBRANCH   1  10
BRANCH   5  14
ATOM     14  C8  <0> d           0.053  -2.843   2.491  0.00  0.00    -0.048 C 
ATOM     15  H6  <0> d           1.085  -3.012   2.800  0.00  0.00     0.033 H 
ATOM     16  H7  <0> d          -0.465  -2.264   3.256  0.00  0.00     0.033 H 
ATOM     17  H8  <0> d          -0.448  -3.801   2.358  0.00  0.00     0.033 H 
ENDBRANCH   5  14
BRANCH   3  18
ATOM     18  C9  <0> d           0.029  -2.815  -2.518  0.00  0.00    -0.048 C 
ATOM     19  H9  <0> d           1.057  -2.981  -2.839  0.00  0.00     0.033 H 
ATOM     20  H10 <0> d          -0.471  -3.776  -2.391  0.00  0.00     0.033 H 
ATOM     21  H11 <0> d          -0.497  -2.229  -3.271  0.00  0.00     0.033 H 
ENDBRANCH   3  18
TORSDOF 3
