REMARK  5 active torsions:
REMARK  status: ('A' for Active; 'I' for Inactive)
REMARK    1  A    between atoms: C1_1  and  C2_2 
REMARK    2  A    between atoms: C3_3  and  C4_4 
REMARK    3  A    between atoms: C4_4  and  C5_5 
REMARK    4  A    between atoms: C5_5  and  C6_6 
REMARK    5  A    between atoms: C6_6  and  O1_7 
ROOT
ATOM      1  C4  <0> d          -0.013   1.086   0.008  0.00  0.00    -0.048 C 
ATOM      2  H6  <0> d           0.002  -0.004   0.002  0.00  0.00     0.038 H 
ATOM      3  H7  <0> d           1.010   1.463   0.000  0.00  0.00     0.038 H 
ENDROOT
BRANCH   1   4
ATOM      4  C3  <0> d          -0.718   1.572   1.248  0.00  0.00    -0.107 C 
ATOM      5  C2  <0> d          -1.109   0.714   2.158  0.00  0.00    -0.110 C 
ATOM      6  H4  <0> d          -1.615   1.062   3.046  0.00  0.00     0.075 H 
ATOM      7  H5  <0> d          -0.901   2.627   1.387  0.00  0.00     0.076 H 
BRANCH   5   8
ATOM      8  C1  <0> d          -0.854  -0.758   1.964  0.00  0.00    -0.060 C 
ATOM      9  H1  <0> d          -1.247  -1.310   2.818  0.00  0.00     0.032 H 
ATOM     10  H2  <0> d          -1.349  -1.096   1.054  0.00  0.00     0.032 H 
ATOM     11  H3  <0> d           0.219  -0.933   1.881  0.00  0.00     0.032 H 
ENDBRANCH   5   8
ENDBRANCH   1   4
BRANCH   1  12
ATOM     12  C5  <0> d          -0.753   1.593  -1.232  0.00  0.00    -0.043 C 
ATOM     13  H8  <0> d          -1.775   1.215  -1.224  0.00  0.00     0.036 H 
ATOM     14  H9  <0> d          -0.767   2.683  -1.226  0.00  0.00     0.036 H 
BRANCH  12  15
ATOM     15  C6  <0> d          -0.037   1.099  -2.490  0.00  0.00     0.017 C 
ATOM     16  H10 <0> d           0.986   1.476  -2.498  0.00  0.00     0.073 H 
ATOM     17  H11 <0> d          -0.022   0.009  -2.496  0.00  0.00     0.073 H 
BRANCH  15  18
ATOM     18  O1  <0> d          -0.728   1.573  -3.648  0.00  0.00    -0.401 OA
ATOM     19  H12 <0> d          -0.328   1.297  -4.484  0.00  0.00     0.209 HD
ENDBRANCH  15  18
ENDBRANCH  12  15
ENDBRANCH   1  12
TORSDOF 5
