REMARK  8 active torsions:
REMARK  status: ('A' for Active; 'I' for Inactive)
REMARK    1  A    between atoms: C1_1  and  C2_2 
REMARK    2  A    between atoms: C2_2  and  C3_4 
REMARK    3  A    between atoms: C2_2  and  C5_8 
REMARK    4  A    between atoms: C3_4  and  O2_6 
REMARK    5  A    between atoms: O2_6  and  C4_7 
REMARK    6  A    between atoms: C5_8  and  C6_9 
REMARK    7  A    between atoms: C5_8  and  C7_10 
REMARK    8  A    between atoms: C5_8  and  C8_11 
ROOT
ATOM      1  C2  <0> d           0.657  -2.104  -1.120  0.00  0.00     0.033 C 
ATOM      2  H1  <0> d           1.195  -2.491  -0.254  0.00  0.00     0.056 H 
ENDROOT
BRANCH   1   3
ATOM      3  C1  <0> d          -0.764  -2.670  -1.133  0.00  0.00    -0.064 C 
ATOM      4  H2  <0> d          -1.282  -2.373  -0.221  0.00  0.00     0.028 H 
ATOM      5  H3  <0> d          -1.301  -2.283  -1.999  0.00  0.00     0.028 H 
ATOM      6  H4  <0> d          -0.721  -3.758  -1.189  0.00  0.00     0.028 H 
ENDBRANCH   1   3
BRANCH   1   7
ATOM      7  C3  <0> d           0.598  -0.600  -1.043  0.00  0.00     0.263 C 
ATOM      8  O1  <0> d           1.088   0.070  -1.921  0.00  0.00    -0.265 OA
BRANCH   7   9
ATOM      9  O2  <0> d           0.002  -0.004   0.002  0.00  0.00    -0.326 OA
BRANCH   9  10
ATOM     10  C4  <0> d          -0.018   1.448   0.010  0.00  0.00     0.013 C 
ATOM     11  H5  <0> d           1.005   1.825   0.002  0.00  0.00     0.067 H 
ATOM     12  H6  <0> d          -0.545   1.809  -0.873  0.00  0.00     0.067 H 
ATOM     13  H7  <0> d          -0.528   1.799   0.907  0.00  0.00     0.067 H 
ENDBRANCH   9  10
ENDBRANCH   7   9
ENDBRANCH   1   7
BRANCH   1  14
ATOM     14  C5  <0> d           1.385  -2.521  -2.400  0.00  0.00    -0.039 C 
BRANCH  14  15
ATOM     15  C6  <0> d           2.806  -1.954  -2.386  0.00  0.00    -0.069 C 
ATOM     16  H8  <0> d           3.343  -2.341  -1.520  0.00  0.00     0.028 H 
ATOM     17  H9  <0> d           3.324  -2.251  -3.298  0.00  0.00     0.028 H 
ATOM     18  H10 <0> d           2.763  -0.867  -2.330  0.00  0.00     0.028 H 
ENDBRANCH  14  15
BRANCH  14  19
ATOM     19  C7  <0> d           1.445  -4.047  -2.478  0.00  0.00    -0.069 C 
ATOM     20  H11 <0> d           0.432  -4.451  -2.487  0.00  0.00     0.028 H 
ATOM     21  H12 <0> d           1.963  -4.344  -3.389  0.00  0.00     0.028 H 
ATOM     22  H13 <0> d           1.982  -4.435  -1.612  0.00  0.00     0.028 H 
ENDBRANCH  14  19
BRANCH  14  23
ATOM     23  C8  <0> d           0.631  -1.977  -3.615  0.00  0.00    -0.069 C 
ATOM     24  H14 <0> d           0.588  -0.889  -3.559  0.00  0.00     0.028 H 
ATOM     25  H15 <0> d           1.149  -2.274  -4.527  0.00  0.00     0.028 H 
ATOM     26  H16 <0> d          -0.382  -2.380  -3.624  0.00  0.00     0.028 H 
ENDBRANCH  14  23
ENDBRANCH   1  14
TORSDOF 8
