REMARK  2 active torsions:
REMARK  status: ('A' for Active; 'I' for Inactive)
REMARK    1  A    between atoms: C1_1  and  N4_12 
REMARK    2  A    between atoms: C2_2  and  N3_11 
ROOT
ATOM      1  C1  <0> d          -1.245   1.656   0.017  0.00  0.00     0.139 A 
ATOM      2  C2  <0> d          -1.276   3.024   0.030  0.00  0.00     0.135 A 
ATOM      3  N1  <0> d          -2.490   3.672   0.035  0.00  0.00    -0.293 N 
ATOM      4  H1  <0> d          -2.520   4.672   0.037  0.00  0.00     0.172 HD
ATOM      5  C3  <0> d          -3.637   2.969   0.036  0.00  0.00     0.328 A 
ATOM      6  O1  <0> d          -4.701   3.558   0.044  0.00  0.00    -0.247 OA
ATOM      7  N2  <0> d          -3.625   1.623   0.028  0.00  0.00    -0.273 N 
ATOM      8  H2  <0> d          -4.490   1.121   0.029  0.00  0.00     0.173 HD
ATOM      9  C4  <0> d          -2.460   0.947   0.019  0.00  0.00     0.279 A 
ATOM     10  O2  <0> d          -2.458  -0.273   0.012  0.00  0.00    -0.265 OA
ENDROOT
BRANCH   1  11
ATOM     11  N4  <0> d          -0.011   0.966   0.007  0.00  0.00    -0.392 N 
ATOM     12  H5  <0> d           0.002  -0.004   0.002  0.00  0.00     0.156 HD
ATOM     13  H6  <0> d           0.822   1.462   0.002  0.00  0.00     0.156 HD
ENDBRANCH   1  11
BRANCH   2  14
ATOM     14  N3  <0> d          -0.103   3.745   0.034  0.00  0.00    -0.383 N 
ATOM     15  H3  <0> d           0.750   3.284   0.028  0.00  0.00     0.157 HD
ATOM     16  H4  <0> d          -0.130   4.715   0.044  0.00  0.00     0.157 HD
ENDBRANCH   2  14
TORSDOF 2
