REMARK  2 active torsions:
REMARK  status: ('A' for Active; 'I' for Inactive)
REMARK    1  A    between atoms: C1_1  and  C2_2 
REMARK    2  A    between atoms: C2_2  and  O1_9 
ROOT
ATOM      1  C2  <0> d          -0.729   1.579   1.267  0.00  0.00     0.054 C 
ATOM      2  C3  <0> d          -0.806   3.119   1.226  0.00  0.00    -0.037 C 
ATOM      3  C4  <0> d          -1.911   3.567   2.145  0.00  0.00    -0.062 C 
ATOM      4  C5  <0> d          -1.399   3.915   3.556  0.00  0.00    -0.065 C 
ATOM      5  C6  <0> d          -0.350   2.913   4.075  0.00  0.00    -0.065 C 
ATOM      6  C7  <0> d          -0.709   1.487   3.757  0.00  0.00    -0.062 C 
ATOM      7  C8  <0> d          -0.015   1.090   2.437  0.00  0.00    -0.037 C 
ATOM      8  H4  <0> d           0.141   3.542   1.559  0.00  0.00     0.037 H 
ATOM      9  H5  <0> d          -1.020   3.448   0.209  0.00  0.00     0.037 H 
ATOM     10  H6  <0> d          -2.648   2.768   2.225  0.00  0.00     0.033 H 
ATOM     11  H7  <0> d          -2.391   4.447   1.717  0.00  0.00     0.033 H 
ATOM     12  H8  <0> d          -2.244   3.927   4.244  0.00  0.00     0.033 H 
ATOM     13  H9  <0> d          -0.953   4.910   3.531  0.00  0.00     0.033 H 
ATOM     14  H10 <0> d          -0.263   3.022   5.156  0.00  0.00     0.033 H 
ATOM     15  H11 <0> d           0.613   3.145   3.619  0.00  0.00     0.033 H 
ATOM     16  H12 <0> d          -1.789   1.398   3.644  0.00  0.00     0.033 H 
ATOM     17  H13 <0> d          -0.369   0.833   4.560  0.00  0.00     0.033 H 
ATOM     18  H14 <0> d           0.047   0.004   2.384  0.00  0.00     0.037 H 
ATOM     19  H15 <0> d           0.995   1.501   2.432  0.00  0.00     0.037 H 
ENDROOT
BRANCH   1  20
ATOM     20  C1  <0> d          -0.013   1.086   0.008  0.00  0.00    -0.048 C 
ATOM     21  H1  <0> d           0.002  -0.004   0.002  0.00  0.00     0.031 H 
ATOM     22  H2  <0> d           1.010   1.463   0.000  0.00  0.00     0.031 H 
ATOM     23  H3  <0> d          -0.540   1.447  -0.875  0.00  0.00     0.031 H 
ENDBRANCH   1  20
BRANCH   1  24
ATOM     24  O1  <0> d          -2.057   1.051   1.280  0.00  0.00    -0.390 OA
ATOM     25  H16 <0> d          -2.592   1.314   0.519  0.00  0.00     0.210 HD
ENDBRANCH   1  24
TORSDOF 2
