REMARK  4 active torsions:
REMARK  status: ('A' for Active; 'I' for Inactive)
REMARK    1  A    between atoms: C1_1  and  C2_2 
REMARK    2  A    between atoms: C2_2  and  C3_3 
REMARK    3  A    between atoms: C2_2  and  C4_4 
REMARK    4  A    between atoms: C4_4  and  C5_6 
ROOT
ATOM      1  C4  <0> d          -0.222   5.271   0.032  0.00  0.00     0.181 C 
ATOM      2  O1  <0> d           0.792   5.936   0.026  0.00  0.00    -0.290 OA
ENDROOT
BRANCH   1   3
ATOM      3  C2  <0> d          -1.568   5.948   0.049  0.00  0.00     0.003 C 
ATOM      4  H4  <0> d          -2.207   5.405   0.593  0.00  0.00     0.051 H 
BRANCH   3   5
ATOM      5  C1  <0> d          -1.429   7.342   0.664  0.00  0.00    -0.066 C 
ATOM      6  H1  <0> d          -0.732   7.934   0.071  0.00  0.00     0.028 H 
ATOM      7  H2  <0> d          -2.403   7.832   0.676  0.00  0.00     0.028 H 
ATOM      8  H3  <0> d          -1.055   7.253   1.684  0.00  0.00     0.028 H 
ENDBRANCH   3   5
BRANCH   3   9
ATOM      9  C3  <0> d          -2.094   6.072  -1.383  0.00  0.00    -0.066 C 
ATOM     10  H5  <0> d          -3.067   6.562  -1.371  0.00  0.00     0.028 H 
ATOM     11  H6  <0> d          -1.396   6.664  -1.976  0.00  0.00     0.028 H 
ATOM     12  H7  <0> d          -2.192   5.079  -1.821  0.00  0.00     0.028 H 
ENDBRANCH   3   9
ENDBRANCH   1   3
BRANCH   1  13
ATOM     13  C5  <0> d          -0.137   3.797   0.024  0.00  0.00     0.102 A 
ATOM     14  N1  <0> d          -1.251   3.073   0.031  0.00  0.00    -0.257 NA
ATOM     15  C9  <0> d          -1.219   1.759   0.017  0.00  0.00     0.003 A 
ATOM     16  C8  <0> d          -0.013   1.076   0.008  0.00  0.00    -0.066 A 
ATOM     17  H11 <0> d          -2.145   1.204   0.019  0.00  0.00     0.114 H 
ATOM     18  C7  <0> d           1.175   1.792   0.001  0.00  0.00    -0.079 A 
ATOM     19  H10 <0> d           0.002  -0.004   0.002  0.00  0.00     0.085 H 
ATOM     20  C6  <0> d           1.112   3.176   0.009  0.00  0.00    -0.051 A 
ATOM     21  H9  <0> d           2.127   1.282  -0.011  0.00  0.00     0.083 H 
ATOM     22  H8  <0> d           2.017   3.765   0.003  0.00  0.00     0.087 H 
ENDBRANCH   1  13
TORSDOF 4
