REMARK  1 active torsions:
REMARK  status: ('A' for Active; 'I' for Inactive)
REMARK    1  A    between atoms: C2_2  and  C4_7 
ROOT
ATOM      1  C1  <0> d          -0.013   1.076   0.008  0.00  0.00     0.008 A 
ATOM      2  C2  <0> d          -1.123   1.866   0.017  0.00  0.00     0.013 A 
ATOM      3  C3  <0> d          -0.693   3.205   0.026  0.00  0.00     0.034 A 
ATOM      4  N1  <0> d           0.614   3.213   0.013  0.00  0.00    -0.187 NA
ATOM      5  N2  <0> d           1.066   1.888   0.002  0.00  0.00    -0.289 N 
ATOM      6  H1  <0> d           2.022   1.594  -0.009  0.00  0.00     0.188 HD
ATOM      7  H3  <0> d           0.002  -0.004   0.002  0.00  0.00     0.115 H 
ATOM      8  H4  <0> d          -1.332   4.076   0.037  0.00  0.00     0.118 H 
ENDROOT
BRANCH   2   9
ATOM      9  C4  <0> d          -2.534   1.396   0.019  0.00  0.00     0.013 A 
ATOM     10  C6  <0> d          -2.965   0.057   0.013  0.00  0.00     0.034 A 
ATOM     11  N4  <0> d          -4.272   0.049   0.019  0.00  0.00    -0.187 NA
ATOM     12  H6  <0> d          -2.326  -0.814   0.005  0.00  0.00     0.118 H 
ATOM     13  N3  <0> d          -4.724   1.374   0.029  0.00  0.00    -0.289 N 
ATOM     14  C5  <0> d          -3.645   2.186   0.034  0.00  0.00     0.008 A 
ATOM     15  H2  <0> d          -5.679   1.668   0.031  0.00  0.00     0.188 HD
ATOM     16  H5  <0> d          -3.660   3.266   0.045  0.00  0.00     0.115 H 
ENDBRANCH   2   9
TORSDOF 1
