REMARK  2 active torsions:
REMARK  status: ('A' for Active; 'I' for Inactive)
REMARK    1  A    between atoms: C1_1  and  C2_2 
REMARK       I    between atoms: C2_2  and  N1_4 
REMARK    2  A    between atoms: N1_4  and  C3_5 
ROOT
ATOM      1  C3  <0> d          -0.074  -2.068  -1.226  0.00  0.00     0.052 A 
ATOM      2  C4  <0> d          -0.076  -2.725  -2.454  0.00  0.00    -0.054 A 
ATOM      3  C5  <0> d          -0.146  -4.109  -2.460  0.00  0.00    -0.064 A 
ATOM      4  C6  <0> d          -0.222  -4.786  -1.257  0.00  0.00     0.002 A 
ATOM      5  N2  <0> d          -0.224  -4.133  -0.111  0.00  0.00    -0.271 NA
ATOM      6  C7  <0> d          -0.153  -2.818  -0.061  0.00  0.00     0.027 A 
ATOM      7  H5  <0> d          -0.020  -2.171  -3.379  0.00  0.00     0.087 H 
ATOM      8  H6  <0> d          -0.146  -4.652  -3.393  0.00  0.00     0.085 H 
ATOM      9  H7  <0> d          -0.281  -5.864  -1.255  0.00  0.00     0.114 H 
ATOM     10  H8  <0> d          -0.156  -2.319   0.897  0.00  0.00     0.118 H 
ENDROOT
BRANCH   1  11
ATOM     11  N1  <0> d           0.000  -0.672  -1.169  0.00  0.00    -0.326 N 
ATOM     12  C2  <0> d           0.697   0.005  -2.103  0.00  0.00     0.218 C 
ATOM     13  O1  <0> d           1.338  -0.598  -2.937  0.00  0.00    -0.274 OA
ATOM     14  H4  <0> d          -0.450  -0.191  -0.457  0.00  0.00     0.169 HD
BRANCH  12  15
ATOM     15  C1  <0> d           0.679   1.512  -2.111  0.00  0.00    -0.003 C 
ATOM     16  H1  <0> d          -0.144   1.863  -2.733  0.00  0.00     0.040 H 
ATOM     17  H2  <0> d           0.548   1.879  -1.093  0.00  0.00     0.040 H 
ATOM     18  H3  <0> d           1.622   1.884  -2.513  0.00  0.00     0.040 H 
ENDBRANCH  12  15
ENDBRANCH   1  11
TORSDOF 2
