REMARK  1 active torsions:
REMARK  status: ('A' for Active; 'I' for Inactive)
REMARK    1  A    between atoms: C2_2  and  C4_6 
ROOT
ATOM      1  C4  <0> d           1.871   3.123   0.001  0.00  0.00     0.042 C 
ATOM      2  C5  <0> d           2.059   3.575   1.389  0.00  0.00     0.063 C 
ATOM      3  N2  <0> d           2.204   3.924   2.460  0.00  0.00    -0.197 NA
ATOM      4  H3  <0> d           2.836   3.149  -0.527  0.00  0.00     0.062 H 
ATOM      5  H4  <0> d           1.157   3.788  -0.508  0.00  0.00     0.062 H 
ENDROOT
BRANCH   1   6
ATOM      6  C2  <0> d           1.335   1.715  -0.002  0.00  0.00    -0.001 A 
ATOM      7  C1  <0> d          -0.016   1.298   0.009  0.00  0.00     0.038 A 
ATOM      8  N1  <0> d           0.002  -0.004   0.002  0.00  0.00    -0.141 NA
ATOM      9  H1  <0> d          -0.889   1.933   0.017  0.00  0.00     0.119 H 
ATOM     10  O1  <0> d           1.132  -0.434  -0.011  0.00  0.00    -0.226 OA
ATOM     11  C3  <0> d           2.036   0.556  -0.014  0.00  0.00     0.052 A 
ATOM     12  H2  <0> d           3.111   0.450  -0.025  0.00  0.00     0.127 H 
ENDBRANCH   1   6
TORSDOF 1
