REMARK  6 active torsions:
REMARK  status: ('A' for Active; 'I' for Inactive)
REMARK    1  A    between atoms: C1_1  and  C2_2 
REMARK    2  A    between atoms: C2_2  and  N1_3 
REMARK    3  A    between atoms: C3_4  and  C8_12 
REMARK    4  A    between atoms: C4_5  and  C6_8 
REMARK    5  A    between atoms: C6_8  and  C7_10 
REMARK    6  A    between atoms: C6_8  and  O1_11 
ROOT
ATOM      1  N1  <0> d          -0.698   1.558   1.213  0.00  0.00    -0.274 N 
ATOM      2  C3  <0> d          -1.688   0.915   1.868  0.00  0.00     0.037 A 
ATOM      3  C4  <0> d          -2.048   1.679   2.925  0.00  0.00     0.013 A 
ATOM      4  C5  <0> d          -1.252   2.829   2.916  0.00  0.00     0.032 A 
ATOM      5  N2  <0> d          -0.439   2.755   1.894  0.00  0.00    -0.184 NA
ATOM      6  H7  <0> d          -1.298   3.636   3.632  0.00  0.00     0.118 H 
ENDROOT
BRANCH   3   7
ATOM      7  C6  <0> d          -3.119   1.349   3.933  0.00  0.00     0.060 C 
ATOM      8  H1  <0> d          -3.977   0.871   3.439  0.00  0.00     0.090 H 
BRANCH   7   9
ATOM      9  C7  <0> d          -2.530   0.461   5.030  0.00  0.00    -0.049 C 
ATOM     10  H8  <0> d          -3.311   0.220   5.766  0.00  0.00     0.031 H 
ATOM     11  H9  <0> d          -1.706   0.993   5.530  0.00  0.00     0.031 H 
ATOM     12  H10 <0> d          -2.148  -0.469   4.583  0.00  0.00     0.031 H 
ENDBRANCH   7   9
BRANCH   7  13
ATOM     13  O1  <0> d          -3.615   2.558   4.513  0.00  0.00    -0.391 OA
ATOM     14  H11 <0> d          -4.407   2.517   5.276  0.00  0.00     0.210 HD
ENDBRANCH   7  13
ENDBRANCH   3   7
BRANCH   2  15
ATOM     15  C8  <0> d          -2.285  -0.416   1.489  0.00  0.00    -0.035 C 
ATOM     16  H12 <0> d          -3.071  -0.684   2.209  0.00  0.00     0.035 H 
ATOM     17  H13 <0> d          -1.500  -1.187   1.500  0.00  0.00     0.035 H 
ATOM     18  H14 <0> d          -2.719  -0.350   0.480  0.00  0.00     0.035 H 
ENDBRANCH   2  15
BRANCH   1  19
ATOM     19  C2  <0> d          -0.013   1.086   0.008  0.00  0.00     0.014 C 
ATOM     20  H5  <0> d           0.002  -0.014   0.002  0.00  0.00     0.066 H 
ATOM     21  H6  <0> d           1.019   1.466   0.000  0.00  0.00     0.066 H 
BRANCH  19  22
ATOM     22  C1  <0> d          -0.753   1.593  -1.232  0.00  0.00    -0.059 C 
ATOM     23  H2  <0> d          -0.238   1.238  -2.136  0.00  0.00     0.029 H 
ATOM     24  H3  <0> d          -0.767   2.693  -1.225  0.00  0.00     0.029 H 
ATOM     25  H4  <0> d          -1.785   1.212  -1.224  0.00  0.00     0.029 H 
ENDBRANCH  19  22
ENDBRANCH   1  19
TORSDOF 6
