REMARK  2 active torsions:
REMARK  status: ('A' for Active; 'I' for Inactive)
REMARK    1  A    between atoms: C1_1  and  N1_2 
REMARK    2  A    between atoms: C7_9  and  O1_11 
ROOT
ATOM      1  N1  <0> d           2.472   3.611  -0.003  0.00  0.00    -0.344 N 
ATOM      2  C2  <0> d           3.245   2.492  -0.015  0.00  0.00     0.067 A 
ATOM      3  N2  <0> d           2.494   1.429  -0.014  0.00  0.00    -0.242 NA
ATOM      4  C3  <0> d           1.186   1.794   0.000  0.00  0.00     0.087 A 
ATOM      5  C4  <0> d           1.152   3.198   0.008  0.00  0.00     0.064 A 
ATOM      6  C5  <0> d          -0.066   3.864   0.022  0.00  0.00    -0.052 A 
ATOM      7  C6  <0> d          -1.241   3.144   0.029  0.00  0.00    -0.049 A 
ATOM      8  C7  <0> d          -1.216   1.753   0.017  0.00  0.00     0.068 A 
ATOM      9  C8  <0> d          -0.013   1.076   0.008  0.00  0.00    -0.021 A 
ATOM     10  H4  <0> d           4.325   2.487  -0.025  0.00  0.00     0.143 H 
ATOM     11  H5  <0> d          -0.092   4.943   0.027  0.00  0.00     0.087 H 
ATOM     12  H6  <0> d          -2.188   3.664   0.040  0.00  0.00     0.087 H 
ATOM     13  H7  <0> d           0.002  -0.004   0.002  0.00  0.00     0.091 H 
ENDROOT
BRANCH   1  14
ATOM     14  C1  <0> d           2.949   4.996  -0.001  0.00  0.00    -0.013 C 
ATOM     15  H1  <0> d           3.057   5.344  -1.028  0.00  0.00     0.057 H 
ATOM     16  H2  <0> d           2.230   5.627   0.523  0.00  0.00     0.057 H 
ATOM     17  H3  <0> d           3.913   5.048   0.504  0.00  0.00     0.057 H 
ENDBRANCH   1  14
BRANCH   8  18
ATOM     18  O1  <0> d          -2.383   1.056   0.019  0.00  0.00    -0.361 OA
ATOM     19  H8  <0> d          -2.717   0.849   0.903  0.00  0.00     0.217 HD
ENDBRANCH   8  18
TORSDOF 2
