REMARK  5 active torsions:
REMARK  status: ('A' for Active; 'I' for Inactive)
REMARK    1  A    between atoms: C1_1  and  C2_2 
REMARK    2  A    between atoms: C2_2  and  C3_4 
REMARK    3  A    between atoms: C2_2  and  N1_7 
REMARK    4  A    between atoms: C3_4  and  C4_5 
REMARK    5  A    between atoms: C4_5  and  O1_6 
ROOT
ATOM      1  C2  <0> d          -0.013   1.086   0.008  0.00  0.00     0.032 C 
ATOM      2  H1  <0> d           0.002  -0.004   0.002  0.00  0.00     0.075 H 
ENDROOT
BRANCH   1   3
ATOM      3  C1  <0> d          -0.729   1.579   1.267  0.00  0.00    -0.055 C 
ATOM      4  H2  <0> d          -0.202   1.218   2.150  0.00  0.00     0.030 H 
ATOM      5  H3  <0> d          -0.744   2.669   1.273  0.00  0.00     0.030 H 
ATOM      6  H4  <0> d          -1.751   1.202   1.275  0.00  0.00     0.030 H 
ENDBRANCH   1   3
BRANCH   1   7
ATOM      7  C3  <0> d           1.423   1.615  -0.003  0.00  0.00    -0.025 C 
ATOM      8  H5  <0> d           1.905   1.339  -0.940  0.00  0.00     0.039 H 
ATOM      9  H6  <0> d           1.410   2.701   0.093  0.00  0.00     0.039 H 
BRANCH   7  10
ATOM     10  C4  <0> d           2.199   1.009   1.168  0.00  0.00     0.019 C 
ATOM     11  H7  <0> d           1.716   1.286   2.106  0.00  0.00     0.074 H 
ATOM     12  H8  <0> d           2.211  -0.076   1.073  0.00  0.00     0.074 H 
BRANCH  10  13
ATOM     13  O1  <0> d           3.539   1.504   1.158  0.00  0.00    -0.401 OA
ATOM     14  H9  <0> d           4.091   1.161   1.875  0.00  0.00     0.209 HD
ENDBRANCH  10  13
ENDBRANCH   7  10
ENDBRANCH   1   7
BRANCH   1  15
ATOM     15  N1  <0> d          -0.721   1.571  -1.179  0.00  0.00    -0.277 N 
ATOM     16  N2  <0> d          -0.869   0.882  -2.390  0.00  0.00    -0.185 NA
ATOM     17  C7  <0> d          -1.560   1.635  -3.207  0.00  0.00     0.023 A 
ATOM     18  C6  <0> d          -1.874   2.826  -2.543  0.00  0.00    -0.048 A 
ATOM     19  H12 <0> d          -1.840   1.381  -4.218  0.00  0.00     0.117 H 
ATOM     20  C5  <0> d          -1.352   2.758  -1.297  0.00  0.00     0.000 A 
ATOM     21  H11 <0> d          -2.438   3.651  -2.952  0.00  0.00     0.087 H 
ATOM     22  H10 <0> d          -1.425   3.519  -0.534  0.00  0.00     0.114 H 
ENDBRANCH   1  15
TORSDOF 5
