REMARK  3 active torsions:
REMARK  status: ('A' for Active; 'I' for Inactive)
REMARK    1  A    between atoms: C1_1  and  C2_2 
REMARK       I    between atoms: C2_2  and  N1_4 
REMARK    2  A    between atoms: N1_4  and  C3_5 
REMARK    3  A    between atoms: C7_9  and  N3_11 
ROOT
ATOM      1  C3  <0> d           0.002  -0.004   0.004  0.00  0.00     0.132 A 
ATOM      2  C4  <0> d           1.206  -0.697  -0.009  0.00  0.00    -0.038 A 
ATOM      3  C5  <0> d           2.396   0.013  -0.015  0.00  0.00    -0.076 A 
ATOM      4  C6  <0> d           2.342   1.397  -0.007  0.00  0.00    -0.039 A 
ATOM      5  C7  <0> d           1.104   2.028   0.006  0.00  0.00     0.123 A 
ATOM      6  N2  <0> d          -0.016   1.320   0.011  0.00  0.00    -0.214 NA
ATOM      7  H5  <0> d           1.214  -1.777  -0.015  0.00  0.00     0.089 H 
ATOM      8  H6  <0> d           3.345  -0.502  -0.025  0.00  0.00     0.083 H 
ATOM      9  H7  <0> d           3.252   1.979  -0.012  0.00  0.00     0.089 H 
ENDROOT
BRANCH   1  10
ATOM     10  N1  <0> d          -1.200  -0.710   0.010  0.00  0.00    -0.312 N 
ATOM     11  C2  <0> d          -2.369  -0.049   0.126  0.00  0.00     0.219 C 
ATOM     12  O1  <0> d          -2.382   1.163   0.132  0.00  0.00    -0.274 OA
ATOM     13  H4  <0> d          -1.195  -1.677  -0.070  0.00  0.00     0.170 HD
BRANCH  11  14
ATOM     14  C1  <0> d          -3.660  -0.817   0.247  0.00  0.00    -0.002 C 
ATOM     15  H1  <0> d          -3.625  -1.448   1.135  0.00  0.00     0.040 H 
ATOM     16  H2  <0> d          -4.492  -0.118   0.331  0.00  0.00     0.040 H 
ATOM     17  H3  <0> d          -3.796  -1.441  -0.636  0.00  0.00     0.040 H 
ENDBRANCH  11  14
ENDBRANCH   1  10
BRANCH   5  18
ATOM     18  N3  <0> d           1.040   3.416   0.014  0.00  0.00    -0.384 N 
ATOM     19  H8  <0> d           0.178   3.862   0.023  0.00  0.00     0.157 HD
ATOM     20  H9  <0> d           1.856   3.940   0.010  0.00  0.00     0.157 HD
ENDBRANCH   5  18
TORSDOF 3
