REMARK  2 active torsions:
REMARK  status: ('A' for Active; 'I' for Inactive)
REMARK    1  A    between atoms: C1_1  and  C2_2 
REMARK    2  A    between atoms: C5_6  and  C8_11 
ROOT
ATOM      1  C2  <0> d          -1.365  -0.827   2.513  0.00  0.00    -0.051 C 
ATOM      2  H1  <0> d          -1.354  -1.916   2.357  0.00  0.00     0.040 H 
ATOM      3  C3  <0> d          -2.096  -0.153   1.351  0.00  0.00    -0.061 C 
ATOM      4  C4  <0> d          -1.434  -0.538   0.022  0.00  0.00    -0.055 C 
ATOM      5  C5  <0> d           0.002  -0.004   0.002  0.00  0.00     0.000 C 
ATOM      6  H2  <0> d           0.527  -0.355  -0.898  0.00  0.00     0.051 H 
ATOM      7  C6  <0> d           0.725  -0.509   1.231  0.00  0.00     0.131 C 
ATOM      8  O1  <0> d           1.794  -1.062   1.137  0.00  0.00    -0.298 OA
ATOM      9  C7  <0> d           0.074  -0.304   2.581  0.00  0.00    -0.006 C 
ATOM     10  H6  <0> d          -3.147  -0.479   1.341  0.00  0.00     0.033 H 
ATOM     11  H7  <0> d          -2.053   0.939   1.475  0.00  0.00     0.033 H 
ATOM     12  H8  <0> d          -1.422  -1.634  -0.077  0.00  0.00     0.034 H 
ATOM     13  H9  <0> d          -2.003  -0.101  -0.811  0.00  0.00     0.034 H 
ATOM     14  H10 <0> d           0.063   0.767   2.833  0.00  0.00     0.044 H 
ATOM     15  H11 <0> d           0.629  -0.857   3.353  0.00  0.00     0.044 H 
ENDROOT
BRANCH   1  16
ATOM     16  C1  <0> d          -2.086  -0.509   3.824  0.00  0.00    -0.073 C 
ATOM     17  H3  <0> d          -3.119  -0.885   3.775  0.00  0.00     0.028 H 
ATOM     18  H4  <0> d          -2.099   0.580   3.980  0.00  0.00     0.028 H 
ATOM     19  H5  <0> d          -1.559  -0.993   4.659  0.00  0.00     0.028 H 
ENDBRANCH   1  16
BRANCH   5  20
ATOM     20  C8  <0> d          -0.019   1.526   0.010  0.00  0.00    -0.066 C 
ATOM     21  H12 <0> d           1.013   1.907  -0.004  0.00  0.00     0.028 H 
ATOM     22  H13 <0> d          -0.528   1.881   0.919  0.00  0.00     0.028 H 
ATOM     23  H14 <0> d          -0.557   1.890  -0.877  0.00  0.00     0.028 H 
ENDBRANCH   5  20
TORSDOF 2
