REMARK  1 active torsions:
REMARK  status: ('A' for Active; 'I' for Inactive)
REMARK    1  A    between atoms: C1_1  and  C2_2 
ROOT
ATOM      1  C2  <0> d           3.725  -0.548   1.674  0.00  0.00    -0.059 A 
ATOM      2  C3  <0> d           2.885  -1.646   1.677  0.00  0.00    -0.074 A 
ATOM      3  C4  <0> d           1.617  -1.553   1.135  0.00  0.00    -0.047 A 
ATOM      4  C5  <0> d           1.183  -0.356   0.589  0.00  0.00     0.105 A 
ATOM      5  C6  <0> d           2.028   0.751   0.586  0.00  0.00     0.105 A 
ATOM      6  C7  <0> d           3.298   0.650   1.131  0.00  0.00    -0.042 A 
ATOM      7  O1  <0> d           1.376   1.797  -0.001  0.00  0.00    -0.323 OA
ATOM      8  C8  <0> d          -0.018   1.436   0.010  0.00  0.00     0.115 C 
ATOM      9  O2  <0> d           0.002  -0.004   0.002  0.00  0.00    -0.323 OA
ATOM     10  H4  <0> d           3.222  -2.580   2.103  0.00  0.00     0.084 H 
ATOM     11  H5  <0> d           0.964  -2.413   1.139  0.00  0.00     0.087 H 
ATOM     12  H6  <0> d           3.956   1.507   1.131  0.00  0.00     0.088 H 
ATOM     13  H7  <0> d          -0.519   1.817  -0.880  0.00  0.00     0.118 H 
ATOM     14  H8  <0> d          -0.502   1.807   0.913  0.00  0.00     0.118 H 
ENDROOT
BRANCH   1  15
ATOM     15  C1  <0> d           5.107  -0.655   2.265  0.00  0.00    -0.051 C 
ATOM     16  H1  <0> d           5.809  -0.966   1.492  0.00  0.00     0.033 H 
ATOM     17  H2  <0> d           5.408   0.314   2.663  0.00  0.00     0.033 H 
ATOM     18  H3  <0> d           5.102  -1.392   3.069  0.00  0.00     0.033 H 
ENDBRANCH   1  15
TORSDOF 1
