REMARK  3 active torsions:
REMARK  status: ('A' for Active; 'I' for Inactive)
REMARK    1  A    between atoms: C1_1  and  C2_2 
REMARK    2  A    between atoms: C2_2  and  C3_3 
REMARK    3  A    between atoms: C8_9  and  O1_11 
ROOT
ATOM      1  C3  <0> d           0.011   1.072   2.506  0.00  0.00    -0.029 C 
ATOM      2  H1  <0> d           1.057   1.375   2.454  0.00  0.00     0.043 H 
ATOM      3  C4  <0> d          -0.075  -0.454   2.563  0.00  0.00    -0.059 C 
ATOM      4  C5  <0> d           0.664  -0.961   3.803  0.00  0.00    -0.065 C 
ATOM      5  C6  <0> d           0.023  -0.366   5.058  0.00  0.00    -0.063 C 
ATOM      6  C7  <0> d           0.110   1.160   5.001  0.00  0.00    -0.041 C 
ATOM      7  C8  <0> d          -0.630   1.667   3.762  0.00  0.00     0.039 C 
ATOM      8  H2  <0> d          -0.568   2.754   3.721  0.00  0.00     0.083 H 
ATOM      9  H8  <0> d          -1.121  -0.757   2.615  0.00  0.00     0.033 H 
ATOM     10  H9  <0> d           0.381  -0.878   1.669  0.00  0.00     0.033 H 
ATOM     11  H10 <0> d           0.603  -2.048   3.844  0.00  0.00     0.033 H 
ATOM     12  H11 <0> d           1.710  -0.658   3.751  0.00  0.00     0.033 H 
ATOM     13  H12 <0> d          -1.023  -0.669   5.110  0.00  0.00     0.033 H 
ATOM     14  H13 <0> d           0.550  -0.728   5.941  0.00  0.00     0.033 H 
ATOM     15  H14 <0> d          -0.347   1.584   5.896  0.00  0.00     0.036 H 
ATOM     16  H15 <0> d           1.156   1.463   4.949  0.00  0.00     0.036 H 
ENDROOT
BRANCH   1  17
ATOM     17  C2  <0> d          -0.729   1.579   1.267  0.00  0.00    -0.063 C 
ATOM     18  H6  <0> d          -0.744   2.669   1.273  0.00  0.00     0.033 H 
ATOM     19  H7  <0> d          -1.751   1.202   1.275  0.00  0.00     0.033 H 
BRANCH  17  20
ATOM     20  C1  <0> d          -0.013   1.086   0.008  0.00  0.00    -0.076 C 
ATOM     21  H3  <0> d           0.002  -0.004   0.002  0.00  0.00     0.027 H 
ATOM     22  H4  <0> d           1.010   1.463   0.000  0.00  0.00     0.027 H 
ATOM     23  H5  <0> d          -0.540   1.447  -0.875  0.00  0.00     0.027 H 
ENDBRANCH  17  20
ENDBRANCH   1  17
BRANCH   7  24
ATOM     24  O1  <0> d          -2.001   1.270   3.830  0.00  0.00    -0.395 OA
ATOM     25  H16 <0> d          -2.472   1.611   4.603  0.00  0.00     0.210 HD
ENDBRANCH   7  24
TORSDOF 3
