REMARK  2 active torsions:
REMARK  status: ('A' for Active; 'I' for Inactive)
REMARK    1  A    between atoms: C3_3  and  C7_8 
REMARK    2  A    between atoms: C5_5  and  N1_7 
ROOT
ATOM      1  C7  <0> d          -0.064   5.352   0.029  0.00  0.00     0.038 C 
ATOM      2  C8  <0> d          -0.081   5.849  -1.357  0.00  0.00     0.063 C 
ATOM      3  N2  <0> d          -0.094   6.233  -2.426  0.00  0.00    -0.197 NA
ATOM      4  H7  <0> d          -0.952   5.704   0.552  0.00  0.00     0.062 H 
ATOM      5  H8  <0> d           0.828   5.721   0.536  0.00  0.00     0.062 H 
ENDROOT
BRANCH   1   6
ATOM      6  C3  <0> d          -0.049   3.845   0.021  0.00  0.00    -0.043 A 
ATOM      7  C2  <0> d           1.155   3.166   0.007  0.00  0.00    -0.076 A 
ATOM      8  C1  <0> d           1.173   1.783   0.000  0.00  0.00    -0.080 A 
ATOM      9  H2  <0> d           2.084   3.717   0.001  0.00  0.00     0.084 H 
ATOM     10  C6  <0> d          -0.013   1.076   0.008  0.00  0.00    -0.058 A 
ATOM     11  H1  <0> d           2.116   1.256  -0.011  0.00  0.00     0.083 H 
ATOM     12  C5  <0> d          -1.225   1.755   0.017  0.00  0.00     0.026 A 
ATOM     13  H4  <0> d           0.002  -0.004   0.002  0.00  0.00     0.086 H 
ATOM     14  C4  <0> d          -1.239   3.144   0.029  0.00  0.00    -0.051 A 
ATOM     15  H3  <0> d          -2.179   3.675   0.041  0.00  0.00     0.087 H 
BRANCH  12  16
ATOM     16  N1  <0> d          -2.426   1.042   0.020  0.00  0.00    -0.399 N 
ATOM     17  H5  <0> d          -2.415   0.072   0.015  0.00  0.00     0.156 HD
ATOM     18  H6  <0> d          -3.272   1.518   0.026  0.00  0.00     0.156 HD
ENDBRANCH  12  16
ENDBRANCH   1   6
TORSDOF 2
