REMARK  2 active torsions:
REMARK  status: ('A' for Active; 'I' for Inactive)
REMARK    1  A    between atoms: N1_5  and  C5_7 
REMARK    2  A    between atoms: C5_7  and  C6_8 
ROOT
ATOM      1  C6  <0> d          -3.892   1.452  -2.252  0.00  0.00     0.029 C 
ATOM      2  C7  <0> d          -4.908   2.023  -3.151  0.00  0.00     0.060 C 
ATOM      3  N2  <0> d          -5.691   2.464  -3.845  0.00  0.00    -0.197 NA
ATOM      4  H9  <0> d          -3.263   0.757  -2.809  0.00  0.00     0.057 H 
ATOM      5  H10 <0> d          -4.385   0.922  -1.437  0.00  0.00     0.057 H 
ENDROOT
BRANCH   1   6
ATOM      6  C5  <0> d          -3.027   2.577  -1.680  0.00  0.00     0.009 C 
ATOM      7  H7  <0> d          -3.656   3.272  -1.123  0.00  0.00     0.065 H 
ATOM      8  H8  <0> d          -2.534   3.107  -2.495  0.00  0.00     0.065 H 
BRANCH   6   9
ATOM      9  N1  <0> d          -2.016   2.009  -0.784  0.00  0.00    -0.351 N 
ATOM     10  C3  <0> d          -0.793   1.611  -1.176  0.00  0.00     0.219 C 
ATOM     11  C2  <0> d          -0.013   1.086   0.008  0.00  0.00     0.011 C 
ATOM     12  O1  <0> d          -0.377   1.665  -2.314  0.00  0.00    -0.273 OA
ATOM     13  C1  <0> d          -0.787   1.610   1.239  0.00  0.00    -0.042 C 
ATOM     14  H3  <0> d           0.002  -0.004   0.002  0.00  0.00     0.047 H 
ATOM     15  H4  <0> d           1.003   1.480   0.000  0.00  0.00     0.047 H 
ATOM     16  C4  <0> d          -2.209   1.800   0.655  0.00  0.00    -0.002 C 
ATOM     17  H1  <0> d          -0.789   0.872   2.042  0.00  0.00     0.036 H 
ATOM     18  H2  <0> d          -0.376   2.559   1.584  0.00  0.00     0.036 H 
ATOM     19  H5  <0> d          -2.686   2.672   1.103  0.00  0.00     0.064 H 
ATOM     20  H6  <0> d          -2.812   0.909   0.830  0.00  0.00     0.064 H 
ENDBRANCH   6   9
ENDBRANCH   1   6
TORSDOF 2
