REMARK  7 active torsions:
REMARK  status: ('A' for Active; 'I' for Inactive)
REMARK    1  A    between atoms: C1_1  and  C2_2 
REMARK    2  A    between atoms: C2_2  and  C3_3 
REMARK    3  A    between atoms: C3_3  and  O1_4 
REMARK    4  A    between atoms: O1_4  and  C4_5 
REMARK    5  A    between atoms: C4_5  and  C5_7 
REMARK    6  A    between atoms: C4_5  and  C7_9 
REMARK    7  A    between atoms: C5_7  and  C6_8 
REMARK       I    between atoms: C7_9  and  N1_11 
ROOT
ATOM      1  C4  <0> d          -0.060   0.960   2.518  0.00  0.00     0.114 C 
ATOM      2  H1  <0> d           0.047  -0.049   2.119  0.00  0.00     0.098 H 
ENDROOT
BRANCH   1   3
ATOM      3  O1  <0> d           1.232   1.548   2.679  0.00  0.00    -0.377 OA
BRANCH   3   4
ATOM      4  C3  <0> d           2.260   0.910   1.919  0.00  0.00     0.020 C 
ATOM      5  H7  <0> d           2.392  -0.113   2.274  0.00  0.00     0.074 H 
ATOM      6  H8  <0> d           1.978   0.896   0.867  0.00  0.00     0.074 H 
BRANCH   4   7
ATOM      7  C2  <0> d           3.571   1.681   2.087  0.00  0.00    -0.049 C 
ATOM      8  H5  <0> d           3.439   2.703   1.732  0.00  0.00     0.035 H 
ATOM      9  H6  <0> d           3.853   1.695   3.139  0.00  0.00     0.035 H 
BRANCH   7  10
ATOM     10  C1  <0> d           4.672   0.998   1.273  0.00  0.00    -0.075 C 
ATOM     11  H2  <0> d           5.606   1.547   1.392  0.00  0.00     0.027 H 
ATOM     12  H3  <0> d           4.804  -0.025   1.627  0.00  0.00     0.027 H 
ATOM     13  H4  <0> d           4.390   0.984   0.220  0.00  0.00     0.027 H 
ENDBRANCH   7  10
ENDBRANCH   4   7
ENDBRANCH   3   4
ENDBRANCH   1   3
BRANCH   1  14
ATOM     14  C5  <0> d          -0.889   1.806   1.549  0.00  0.00    -0.036 C 
ATOM     15  H9  <0> d          -0.912   2.838   1.897  0.00  0.00     0.036 H 
ATOM     16  H10 <0> d          -1.905   1.415   1.503  0.00  0.00     0.036 H 
BRANCH  14  17
ATOM     17  C6  <0> d          -0.258   1.751   0.156  0.00  0.00    -0.074 C 
ATOM     18  H11 <0> d          -0.163   0.712  -0.159  0.00  0.00     0.027 H 
ATOM     19  H12 <0> d           0.729   2.213   0.186  0.00  0.00     0.027 H 
ATOM     20  H13 <0> d          -0.889   2.289  -0.550  0.00  0.00     0.027 H 
ENDBRANCH  14  17
ENDBRANCH   1  14
BRANCH   1  21
ATOM     21  C7  <0> d          -0.756   0.900   3.854  0.00  0.00     0.244 C 
ATOM     22  O2  <0> d          -0.238   1.401   4.829  0.00  0.00    -0.271 OA
ATOM     23  N1  <0> d          -1.952   0.290   3.964  0.00  0.00    -0.368 N 
ATOM     24  H14 <0> d          -2.366  -0.111   3.183  0.00  0.00     0.159 HD
ATOM     25  H15 <0> d          -2.400   0.251   4.824  0.00  0.00     0.159 HD
ENDBRANCH   1  21
TORSDOF 7
