REMARK  2 active torsions:
REMARK  status: ('A' for Active; 'I' for Inactive)
REMARK    1  A    between atoms: C1_1  and  C2_2 
REMARK    2  A    between atoms: C9_9  and  N3_12 
ROOT
ATOM      1  C2  <0> d          -2.418   3.878   0.044  0.00  0.00     0.064 A 
ATOM      2  C3  <0> d          -1.225   3.131   0.030  0.00  0.00     0.004 A 
ATOM      3  C4  <0> d          -1.208   1.730   0.017  0.00  0.00    -0.070 A 
ATOM      4  C5  <0> d          -0.013   1.076   0.008  0.00  0.00    -0.082 A 
ATOM      5  C6  <0> d           1.191   1.778   0.000  0.00  0.00    -0.082 A 
ATOM      6  C7  <0> d           1.210   3.141   0.006  0.00  0.00    -0.068 A 
ATOM      7  C8  <0> d           0.001   3.845   0.021  0.00  0.00     0.023 A 
ATOM      8  C9  <0> d          -0.062   5.257   0.028  0.00  0.00     0.154 A 
ATOM      9  N1  <0> d          -1.248   5.840   0.042  0.00  0.00    -0.131 NA
ATOM     10  N2  <0> d          -2.350   5.189   0.049  0.00  0.00    -0.152 NA
ATOM     11  H4  <0> d          -2.134   1.174   0.019  0.00  0.00     0.084 H 
ATOM     12  H5  <0> d           0.002  -0.004   0.002  0.00  0.00     0.083 H 
ATOM     13  H6  <0> d           2.123   1.233  -0.011  0.00  0.00     0.083 H 
ATOM     14  H7  <0> d           2.150   3.673   0.000  0.00  0.00     0.085 H 
ENDROOT
BRANCH   1  15
ATOM     15  C1  <0> d          -3.755   3.182   0.054  0.00  0.00    -0.033 C 
ATOM     16  H1  <0> d          -4.067   3.010   1.084  0.00  0.00     0.035 H 
ATOM     17  H2  <0> d          -4.493   3.806  -0.450  0.00  0.00     0.035 H 
ATOM     18  H3  <0> d          -3.671   2.227  -0.465  0.00  0.00     0.035 H 
ENDBRANCH   1  15
BRANCH   8  19
ATOM     19  N3  <0> d           1.097   6.015   0.021  0.00  0.00    -0.382 N 
ATOM     20  H8  <0> d           1.963   5.578   0.011  0.00  0.00     0.157 HD
ATOM     21  H9  <0> d           1.043   6.984   0.025  0.00  0.00     0.157 HD
ENDBRANCH   8  19
TORSDOF 2
