REMARK  3 active torsions:
REMARK  status: ('A' for Active; 'I' for Inactive)
REMARK    1  A    between atoms: C1_1  and  C2_2 
REMARK    2  A    between atoms: C7_7  and  C11_12 
REMARK    3  A    between atoms: N1_8  and  C10_11 
ROOT
ATOM      1  C2  <0> d          -4.381   2.043   0.814  0.00  0.00    -0.060 A 
ATOM      2  C3  <0> d          -4.623   2.471   2.112  0.00  0.00    -0.076 A 
ATOM      3  C4  <0> d          -3.601   2.563   3.015  0.00  0.00    -0.070 A 
ATOM      4  C5  <0> d          -2.300   2.238   2.624  0.00  0.00    -0.007 A 
ATOM      5  C6  <0> d          -1.003   2.237   3.305  0.00  0.00    -0.049 A 
ATOM      6  C7  <0> d          -0.091   1.822   2.411  0.00  0.00     0.008 A 
ATOM      7  N1  <0> d          -0.698   1.558   1.213  0.00  0.00    -0.354 N 
ATOM      8  C8  <0> d          -2.049   1.808   1.308  0.00  0.00     0.045 A 
ATOM      9  C9  <0> d          -3.106   1.713   0.409  0.00  0.00    -0.051 A 
ATOM     10  H4  <0> d          -5.628   2.727   2.414  0.00  0.00     0.084 H 
ATOM     11  H5  <0> d          -3.796   2.898   4.023  0.00  0.00     0.084 H 
ATOM     12  H6  <0> d          -0.815   2.517   4.331  0.00  0.00     0.087 H 
ATOM     13  H7  <0> d          -2.928   1.382  -0.603  0.00  0.00     0.087 H 
ENDROOT
BRANCH   1  14
ATOM     14  C1  <0> d          -5.524   1.939  -0.162  0.00  0.00    -0.051 C 
ATOM     15  H1  <0> d          -5.959   0.942  -0.107  0.00  0.00     0.033 H 
ATOM     16  H2  <0> d          -6.283   2.681   0.087  0.00  0.00     0.033 H 
ATOM     17  H3  <0> d          -5.157   2.120  -1.172  0.00  0.00     0.033 H 
ENDBRANCH   1  14
BRANCH   7  18
ATOM     18  C10 <0> d          -0.013   1.086   0.008  0.00  0.00    -0.014 C 
ATOM     19  H8  <0> d           0.002  -0.004   0.002  0.00  0.00     0.057 H 
ATOM     20  H9  <0> d           1.010   1.463   0.000  0.00  0.00     0.057 H 
ATOM     21  H10 <0> d          -0.540   1.447  -0.875  0.00  0.00     0.057 H 
ENDBRANCH   7  18
BRANCH   6  22
ATOM     22  C11 <0> d           1.383   1.670   2.686  0.00  0.00    -0.037 C 
ATOM     23  H11 <0> d           1.893   2.606   2.458  0.00  0.00     0.035 H 
ATOM     24  H12 <0> d           1.532   1.420   3.736  0.00  0.00     0.035 H 
ATOM     25  H13 <0> d           1.788   0.874   2.061  0.00  0.00     0.035 H 
ENDBRANCH   6  22
TORSDOF 3
