REMARK  4 active torsions:
REMARK  status: ('A' for Active; 'I' for Inactive)
REMARK    1  A    between atoms: C1_1  and  O1_2 
REMARK    2  A    between atoms: O1_2  and  C2_3 
REMARK    3  A    between atoms: C3_5  and  N5_10 
REMARK    4  A    between atoms: C4_7  and  N4_9 
ROOT
ATOM      1  C2  <0> d           1.124   2.005   0.002  0.00  0.00     0.302 A 
ATOM      2  N1  <0> d          -0.016   1.326   0.009  0.00  0.00    -0.018 NA
ATOM      3  C3  <0> d           0.002  -0.004   0.002  0.00  0.00     0.739 A 
ATOM      4  N2  <0> d           1.162  -0.652  -0.013  0.00  0.00     0.130 NA
ATOM      5  C4  <0> d           2.303   0.029  -0.020  0.00  0.00     0.739 A 
ATOM      6  N3  <0> d           2.283   1.359  -0.012  0.00  0.00    -0.018 NA
ENDROOT
BRANCH   1   7
ATOM      7  O1  <0> d           1.105   3.358   0.009  0.00  0.00    -0.323 OA
BRANCH   7   8
ATOM      8  C1  <0> d           2.369   4.025   0.001  0.00  0.00     0.013 C 
ATOM      9  H1  <0> d           2.938   3.736   0.884  0.00  0.00     0.067 H 
ATOM     10  H2  <0> d           2.921   3.745  -0.896  0.00  0.00     0.067 H 
ATOM     11  H3  <0> d           2.210   5.104   0.008  0.00  0.00     0.067 H 
ENDBRANCH   7   8
ENDBRANCH   1   7
BRANCH   5  12
ATOM     12  N4  <0> d           3.509  -0.643  -0.034  0.00  0.00    -0.230 N 
ATOM     13  H4  <0> d           3.523  -1.613  -0.040  0.00  0.00     0.174 HD
ATOM     14  H5  <0> d           4.341  -0.146  -0.040  0.00  0.00     0.174 HD
ENDBRANCH   5  12
BRANCH   3  15
ATOM     15  N5  <0> d          -1.183  -0.711   0.009  0.00  0.00    -0.230 N 
ATOM     16  H6  <0> d          -2.030  -0.237   0.019  0.00  0.00     0.174 HD
ATOM     17  H7  <0> d          -1.170  -1.680   0.004  0.00  0.00     0.174 HD
ENDBRANCH   3  15
TORSDOF 4
