REMARK  2 active torsions:
REMARK  status: ('A' for Active; 'I' for Inactive)
REMARK    1  A    between atoms: C1_1  and  N1_2 
REMARK    2  A    between atoms: C6_10  and  N5_11 
ROOT
ATOM      1  N1  <0> d           3.608  -0.489  -0.035  0.00  0.00    -0.329 N 
ATOM      2  C2  <0> d           4.387   0.630  -0.036  0.00  0.00     0.068 A 
ATOM      3  N2  <0> d           3.638   1.694  -0.024  0.00  0.00    -0.237 NA
ATOM      4  C3  <0> d           2.334   1.327  -0.013  0.00  0.00     0.144 A 
ATOM      5  C4  <0> d           2.299  -0.078  -0.020  0.00  0.00     0.164 A 
ATOM      6  N3  <0> d           1.122  -0.696  -0.012  0.00  0.00    -0.222 NA
ATOM      7  C5  <0> d           0.002  -0.004   0.002  0.00  0.00     0.090 A 
ATOM      8  N4  <0> d          -0.016   1.316   0.009  0.00  0.00    -0.228 NA
ATOM      9  C6  <0> d           1.112   2.020   0.002  0.00  0.00     0.135 A 
ATOM     10  H4  <0> d           5.467   0.633  -0.046  0.00  0.00     0.143 H 
ATOM     11  H5  <0> d          -0.938  -0.537   0.008  0.00  0.00     0.146 H 
ENDROOT
BRANCH   1  12
ATOM     12  C1  <0> d           4.082  -1.875  -0.047  0.00  0.00    -0.012 C 
ATOM     13  H1  <0> d           4.190  -2.213  -1.077  0.00  0.00     0.057 H 
ATOM     14  H2  <0> d           5.047  -1.933   0.458  0.00  0.00     0.057 H 
ATOM     15  H3  <0> d           3.362  -2.509   0.471  0.00  0.00     0.057 H 
ENDBRANCH   1  12
BRANCH   9  16
ATOM     16  N5  <0> d           1.083   3.404   0.011  0.00  0.00    -0.285 NA
ATOM     17  H6  <0> d           0.597   3.732  -0.799  0.00  0.00     0.125 HD
ATOM     18  H7  <0> d           1.913   3.906   0.005  0.00  0.00     0.125 HD
ENDBRANCH   9  16
TORSDOF 2
