REMARK  3 active torsions:
REMARK  status: ('A' for Active; 'I' for Inactive)
REMARK    1  A    between atoms: C2_2  and  C5_8 
REMARK    2  A    between atoms: C3_3  and  N2_7 
REMARK    3  A    between atoms: C5_8  and  N3_9 
ROOT
ATOM      1  C1  <0> d          -0.016   1.345   0.009  0.00  0.00    -0.013 A 
ATOM      2  C2  <0> d           0.002  -0.004   0.002  0.00  0.00     0.012 A 
ATOM      3  C3  <0> d          -1.339  -0.447   0.013  0.00  0.00     0.050 A 
ATOM      4  C4  <0> d          -2.126   0.652   0.027  0.00  0.00     0.002 A 
ATOM      5  N1  <0> d          -1.315   1.756   0.030  0.00  0.00    -0.372 N 
ATOM      6  H1  <0> d          -1.616   2.678   0.040  0.00  0.00     0.164 HD
ATOM      7  H2  <0> d           0.851   1.988   0.005  0.00  0.00     0.112 H 
ATOM      8  H3  <0> d          -3.206   0.659   0.038  0.00  0.00     0.114 H 
ENDROOT
BRANCH   2   9
ATOM      9  C5  <0> d           1.229  -0.878  -0.016  0.00  0.00     0.136 C 
ATOM     10  H6  <0> d           2.089  -0.305   0.330  0.00  0.00     0.086 H 
ATOM     11  H7  <0> d           1.075  -1.734   0.642  0.00  0.00     0.086 H 
BRANCH   9  12
ATOM     12  N3  <0> d           1.474  -1.351  -1.385  0.00  0.00     0.082 N 
ATOM     13  H8  <0> d           1.557  -0.575  -2.026  0.00  0.00     0.313 HD
ATOM     14  H9  <0> d           2.293  -1.940  -1.423  0.00  0.00     0.313 HD
ENDBRANCH   9  12
ENDBRANCH   2   9
BRANCH   3  15
ATOM     15  N2  <0> d          -1.775  -1.786   0.010  0.00  0.00    -0.397 N 
ATOM     16  H4  <0> d          -1.126  -2.507  -0.001  0.00  0.00     0.156 HD
ATOM     17  H5  <0> d          -2.724  -1.987   0.019  0.00  0.00     0.156 HD
ENDBRANCH   3  15
TORSDOF 3
