REMARK  2 active torsions:
REMARK  status: ('A' for Active; 'I' for Inactive)
REMARK    1  A    between atoms: C1_1  and  C2_2 
REMARK    2  A    between atoms: C5_9  and  N6_11 
ROOT
ATOM      1  C2  <0> d           0.671  -2.635  -0.017  0.00  0.00     0.053 A 
ATOM      2  C3  <0> d           1.673  -1.712  -0.022  0.00  0.00    -0.010 A 
ATOM      3  C4  <0> d           1.331  -0.347  -0.013  0.00  0.00     0.196 A 
ATOM      4  N1  <0> d           2.015   0.784  -0.013  0.00  0.00    -0.108 NA
ATOM      5  N2  <0> d           1.212   1.789   0.000  0.00  0.00    -0.022 NA
ATOM      6  N3  <0> d          -0.017   1.395   0.010  0.00  0.00    -0.024 NA
ATOM      7  N4  <0> d           0.002  -0.004   0.002  0.00  0.00    -0.022 N 
ATOM      8  C5  <0> d          -0.947  -0.979   0.006  0.00  0.00     0.724 A 
ATOM      9  N5  <0> d          -0.606  -2.250  -0.003  0.00  0.00    -0.068 NA
ATOM     10  H4  <0> d           2.708  -2.022  -0.034  0.00  0.00     0.092 H 
ENDROOT
BRANCH   1  11
ATOM     11  C1  <0> d           1.008  -4.103  -0.027  0.00  0.00    -0.035 C 
ATOM     12  H1  <0> d           1.099  -4.462   0.998  0.00  0.00     0.035 H 
ATOM     13  H2  <0> d           0.217  -4.654  -0.536  0.00  0.00     0.035 H 
ATOM     14  H3  <0> d           1.952  -4.256  -0.550  0.00  0.00     0.035 H 
ENDBRANCH   1  11
BRANCH   8  15
ATOM     15  N6  <0> d          -2.277  -0.633   0.020  0.00  0.00    -0.231 N 
ATOM     16  H5  <0> d          -2.535   0.302   0.028  0.00  0.00     0.174 HD
ATOM     17  H6  <0> d          -2.958  -1.324   0.023  0.00  0.00     0.174 HD
ENDBRANCH   8  15
TORSDOF 2
