REMARK  3 active torsions:
REMARK  status: ('A' for Active; 'I' for Inactive)
REMARK    1  A    between atoms: C3_4  and  N3_9 
REMARK    2  A    between atoms: C4_6  and  C5_7 
REMARK    3  A    between atoms: C5_7  and  O1_8 
ROOT
ATOM      1  C1  <0> d          -0.108   3.650   0.017  0.00  0.00    -0.039 A 
ATOM      2  C2  <0> d          -0.192   5.034   0.031  0.00  0.00     0.023 A 
ATOM      3  N1  <0> d           0.922   5.747   0.024  0.00  0.00    -0.075 NA
ATOM      4  C3  <0> d           2.107   5.154   0.010  0.00  0.00     0.720 A 
ATOM      5  N2  <0> d           2.221   3.834   0.001  0.00  0.00    -0.066 NA
ATOM      6  C4  <0> d           1.147   3.062   0.008  0.00  0.00     0.078 A 
ATOM      7  H1  <0> d          -1.001   3.043   0.018  0.00  0.00     0.088 H 
ATOM      8  H2  <0> d          -1.155   5.523   0.042  0.00  0.00     0.115 H 
ENDROOT
BRANCH   6   9
ATOM      9  C5  <0> d           1.286   1.562  -0.002  0.00  0.00     0.057 C 
ATOM     10  H3  <0> d           1.828   1.250  -0.907  0.00  0.00     0.083 H 
ATOM     11  H4  <0> d           1.845   1.240   0.889  0.00  0.00     0.083 H 
BRANCH   9  12
ATOM     12  O1  <0> d          -0.011   0.963   0.007  0.00  0.00    -0.395 OA
ATOM     13  H5  <0> d          -0.111  -0.133   0.002  0.00  0.00     0.209 HD
ENDBRANCH   9  12
ENDBRANCH   6   9
BRANCH   4  14
ATOM     14  N3  <0> d           3.251   5.932   0.003  0.00  0.00    -0.231 N 
ATOM     15  H6  <0> d           4.242   5.453  -0.009  0.00  0.00     0.174 HD
ATOM     16  H7  <0> d           3.171   7.029   0.009  0.00  0.00     0.174 HD
ENDBRANCH   4  14
TORSDOF 3
