REMARK  5 active torsions:
REMARK  status: ('A' for Active; 'I' for Inactive)
REMARK    1  A    between atoms: C1_1  and  C2_2 
REMARK    2  A    between atoms: C2_2  and  O1_3 
REMARK    3  A    between atoms: O1_3  and  C3_4 
REMARK    4  A    between atoms: C3_4  and  C4_6 
REMARK    5  A    between atoms: C5_7  and  N3_12 
ROOT
ATOM      1  C4  <0> d          -0.017   1.384   0.010  0.00  0.00     0.176 A 
ATOM      2  C5  <0> d           0.002  -0.004   0.002  0.00  0.00     0.135 A 
ATOM      3  N1  <0> d           1.315  -0.370  -0.013  0.00  0.00    -0.335 N 
ATOM      4  H1  <0> d           1.667  -1.306  -0.021  0.00  0.00     0.168 HD
ATOM      5  C6  <0> d           2.063   0.771  -0.013  0.00  0.00     0.066 A 
ATOM      6  N2  <0> d           1.278   1.805  -0.001  0.00  0.00    -0.234 NA
ATOM      7  H7  <0> d           3.143   0.808  -0.023  0.00  0.00     0.143 H 
ENDROOT
BRANCH   1   8
ATOM      8  C3  <0> d          -1.206   2.236   0.020  0.00  0.00     0.316 C 
ATOM      9  O2  <0> d          -2.314   1.734   0.023  0.00  0.00    -0.257 OA
BRANCH   8  10
ATOM     10  O1  <0> d          -1.074   3.579   0.027  0.00  0.00    -0.317 OA
BRANCH  10  11
ATOM     11  C2  <0> d          -2.278   4.349   0.037  0.00  0.00     0.026 C 
ATOM     12  H5  <0> d          -2.865   4.117  -0.851  0.00  0.00     0.074 H 
ATOM     13  H6  <0> d          -2.856   4.107   0.929  0.00  0.00     0.074 H 
BRANCH  11  14
ATOM     14  C1  <0> d          -1.930   5.839   0.043  0.00  0.00    -0.056 C 
ATOM     15  H2  <0> d          -1.351   6.081  -0.848  0.00  0.00     0.030 H 
ATOM     16  H3  <0> d          -2.848   6.426   0.051  0.00  0.00     0.030 H 
ATOM     17  H4  <0> d          -1.342   6.071   0.932  0.00  0.00     0.030 H 
ENDBRANCH  11  14
ENDBRANCH  10  11
ENDBRANCH   8  10
ENDBRANCH   1   8
BRANCH   2  18
ATOM     18  N3  <0> d          -1.091  -0.846   0.008  0.00  0.00    -0.383 N 
ATOM     19  H8  <0> d          -1.988  -0.476   0.018  0.00  0.00     0.157 HD
ATOM     20  H9  <0> d          -0.963  -1.807   0.002  0.00  0.00     0.157 HD
ENDBRANCH   2  18
TORSDOF 5
