REMARK  2 active torsions:
REMARK  status: ('A' for Active; 'I' for Inactive)
REMARK    1  A    between atoms: C1_1  and  C2_2 
REMARK    2  A    between atoms: C6_6  and  C8_8 
ROOT
ATOM      1  C2  <0> d           0.002  -0.004   0.002  0.00  0.00    -0.061 A 
ATOM      2  C3  <0> d           0.006  -0.688  -1.201  0.00  0.00    -0.077 A 
ATOM      3  C4  <0> d           0.024  -2.071  -1.217  0.00  0.00    -0.082 A 
ATOM      4  C5  <0> d           0.040  -2.778  -0.033  0.00  0.00    -0.070 A 
ATOM      5  C6  <0> d           0.036  -2.094   1.184  0.00  0.00    -0.000 A 
ATOM      6  C7  <0> d           0.023  -0.699   1.194  0.00  0.00    -0.065 A 
ATOM      7  H4  <0> d          -0.006  -0.139  -2.131  0.00  0.00     0.084 H 
ATOM      8  H5  <0> d           0.027  -2.599  -2.160  0.00  0.00     0.083 H 
ATOM      9  H6  <0> d           0.054  -3.858  -0.047  0.00  0.00     0.084 H 
ATOM     10  H7  <0> d           0.024  -0.164   2.132  0.00  0.00     0.085 H 
ENDROOT
BRANCH   5  11
ATOM     11  C8  <0> d           0.052  -2.845   2.457  0.00  0.00     0.104 A 
ATOM     12  O1  <0> d           0.051  -2.320   3.702  0.00  0.00    -0.302 OA
ATOM     13  C10 <0> d           0.067  -3.337   4.574  0.00  0.00     0.103 A 
ATOM     14  N1  <0> d           0.085  -4.462   3.915  0.00  0.00    -0.246 NA
ATOM     15  H9  <0> d           0.068  -3.241   5.650  0.00  0.00     0.155 H 
ATOM     16  C9  <0> d           0.077  -4.195   2.600  0.00  0.00     0.037 A 
ATOM     17  H8  <0> d           0.087  -4.922   1.802  0.00  0.00     0.119 H 
ENDBRANCH   5  11
BRANCH   1  18
ATOM     18  C1  <0> d          -0.018   1.503   0.010  0.00  0.00    -0.051 C 
ATOM     19  H1  <0> d           1.004   1.880   0.003  0.00  0.00     0.033 H 
ATOM     20  H2  <0> d          -0.545   1.864  -0.873  0.00  0.00     0.033 H 
ATOM     21  H3  <0> d          -0.529   1.854   0.907  0.00  0.00     0.033 H 
ENDBRANCH   1  18
TORSDOF 2
