REMARK  0 active torsions:
REMARK  status: ('A' for Active; 'I' for Inactive)
ROOT
ATOM      1  C1  <0> d          -0.577   3.932   2.175  0.00  0.00    -0.057 A 
ATOM      2  C2  <0> d          -1.452   3.475   3.150  0.00  0.00     0.002 A 
ATOM      3  N1  <0> d          -1.889   2.230   3.139  0.00  0.00    -0.272 NA
ATOM      4  C3  <0> d          -1.520   1.364   2.208  0.00  0.00     0.011 A 
ATOM      5  C4  <0> d          -0.651   1.736   1.230  0.00  0.00     0.001 A 
ATOM      6  C5  <0> d          -0.175   3.059   1.198  0.00  0.00    -0.014 A 
ATOM      7  C6  <0> d           0.735   3.116  -0.022  0.00  0.00     0.082 C 
ATOM      8  H1  <0> d           1.452   3.937  -0.042  0.00  0.00     0.097 H 
ATOM      9  C7  <0> d          -0.204   2.997  -1.229  0.00  0.00    -0.072 C 
ATOM     10  C8  <0> d          -0.661   1.754  -1.210  0.00  0.00    -0.072 C 
ATOM     11  C9  <0> d          -0.013   1.086   0.008  0.00  0.00     0.083 C 
ATOM     12  H2  <0> d           0.002  -0.004   0.002  0.00  0.00     0.097 H 
ATOM     13  O1  <0> d           1.299   1.756  -0.001  0.00  0.00    -0.363 OA
ATOM     14  H3  <0> d          -0.221   4.952   2.186  0.00  0.00     0.086 H 
ATOM     15  H4  <0> d          -1.780   4.147   3.929  0.00  0.00     0.114 H 
ATOM     16  H5  <0> d          -1.898   0.353   2.231  0.00  0.00     0.115 H 
ATOM     17  H6  <0> d          -0.443   3.767  -1.947  0.00  0.00     0.081 H 
ATOM     18  H7  <0> d          -1.350   1.304  -1.910  0.00  0.00     0.081 H 
ENDROOT
TORSDOF 0
