REMARK  2 active torsions:
REMARK  status: ('A' for Active; 'I' for Inactive)
REMARK    1  A    between atoms: C1_1  and  N1_2 
REMARK       I    between atoms: N1_2  and  C2_3 
REMARK    2  A    between atoms: C2_3  and  C3_5 
ROOT
ATOM      1  C3  <0> d          -1.330   1.944   0.019  0.00  0.00     0.088 C 
ATOM      2  C4  <0> d          -2.435   0.973   0.019  0.00  0.00     0.068 C 
ATOM      3  N2  <0> d          -3.289   0.223   0.019  0.00  0.00    -0.197 NA
ATOM      4  H5  <0> d          -1.392   2.565   0.913  0.00  0.00     0.069 H 
ATOM      5  H6  <0> d          -1.400   2.575  -0.867  0.00  0.00     0.069 H 
ENDROOT
BRANCH   1   6
ATOM      6  C2  <0> d          -0.014   1.209   0.009  0.00  0.00     0.230 C 
ATOM      7  N1  <0> d           1.143   1.898   0.001  0.00  0.00    -0.365 N 
ATOM      8  H4  <0> d           1.130   2.868   0.007  0.00  0.00     0.161 HD
ATOM      9  O1  <0> d           0.002  -0.004   0.002  0.00  0.00    -0.273 OA
BRANCH   7  10
ATOM     10  C1  <0> d           2.422   1.183  -0.015  0.00  0.00    -0.018 C 
ATOM     11  H1  <0> d           2.480   0.562  -0.909  0.00  0.00     0.056 H 
ATOM     12  H2  <0> d           3.241   1.903  -0.019  0.00  0.00     0.056 H 
ATOM     13  H3  <0> d           2.497   0.553   0.871  0.00  0.00     0.056 H 
ENDBRANCH   7  10
ENDBRANCH   1   6
TORSDOF 2
