REMARK  4 active torsions:
REMARK  status: ('A' for Active; 'I' for Inactive)
REMARK    1  A    between atoms: C1_1  and  C2_2 
REMARK    2  A    between atoms: C2_2  and  C3_3 
REMARK    3  A    between atoms: C3_3  and  C4_4 
REMARK    4  A    between atoms: C4_4  and  C5_6 
ROOT
ATOM      1  C4  <0> d          -0.013   1.086   0.008  0.00  0.00     0.027 C 
ATOM      2  H1  <0> d           0.002  -0.004   0.002  0.00  0.00     0.062 H 
ATOM      3  C6  <0> d          -0.702   1.560   1.219  0.00  0.00     0.063 C 
ATOM      4  N1  <0> d          -1.233   1.927   2.154  0.00  0.00    -0.197 NA
ENDROOT
BRANCH   1   5
ATOM      5  C3  <0> d           1.423   1.615  -0.003  0.00  0.00    -0.051 C 
ATOM      6  H7  <0> d           1.408   2.702  -0.086  0.00  0.00     0.034 H 
ATOM      7  H8  <0> d           1.923   1.329   0.922  0.00  0.00     0.034 H 
BRANCH   5   8
ATOM      8  C2  <0> d           2.176   1.022  -1.195  0.00  0.00    -0.067 C 
ATOM      9  H5  <0> d           2.191  -0.065  -1.111  0.00  0.00     0.032 H 
ATOM     10  H6  <0> d           1.676   1.309  -2.120  0.00  0.00     0.032 H 
BRANCH   8  11
ATOM     11  C1  <0> d           3.612   1.552  -1.206  0.00  0.00    -0.076 C 
ATOM     12  H2  <0> d           3.597   2.638  -1.289  0.00  0.00     0.027 H 
ATOM     13  H3  <0> d           4.112   1.265  -0.281  0.00  0.00     0.027 H 
ATOM     14  H4  <0> d           4.148   1.129  -2.055  0.00  0.00     0.027 H 
ENDBRANCH   8  11
ENDBRANCH   5   8
ENDBRANCH   1   5
BRANCH   1  15
ATOM     15  C5  <0> d          -0.753   1.593  -1.232  0.00  0.00    -0.061 C 
ATOM     16  H9  <0> d          -0.767   2.683  -1.226  0.00  0.00     0.029 H 
ATOM     17  H10 <0> d          -0.242   1.241  -2.128  0.00  0.00     0.029 H 
ATOM     18  H11 <0> d          -1.775   1.215  -1.224  0.00  0.00     0.029 H 
ENDBRANCH   1  15
TORSDOF 4
