REMARK  2 active torsions:
REMARK  status: ('A' for Active; 'I' for Inactive)
REMARK    1  A    between atoms: C1_1  and  C2_2 
REMARK    2  A    between atoms: C4_4  and  C6_11 
ROOT
ATOM      1  C2  <0> d           0.002  -0.004   0.002  0.00  0.00     0.051 A 
ATOM      2  C3  <0> d          -1.204  -0.717   0.004  0.00  0.00    -0.035 A 
ATOM      3  C4  <0> d          -1.173  -2.074  -0.004  0.00  0.00     0.054 A 
ATOM      4  N1  <0> d           0.032  -2.704  -0.013  0.00  0.00    -0.043 N 
ATOM      5  C5  <0> d           1.192  -1.978  -0.014  0.00  0.00     0.771 A 
ATOM      6  N2  <0> d           1.150  -0.641  -0.012  0.00  0.00    -0.064 NA
ATOM      7  N3  <0> d           2.185  -2.857  -0.024  0.00  0.00     0.067 NA
ATOM      8  N4  <0> d           1.721  -4.055  -0.028  0.00  0.00    -0.007 NA
ATOM      9  N5  <0> d           0.431  -4.047  -0.022  0.00  0.00    -0.025 NA
ATOM     10  H4  <0> d          -2.149  -0.193   0.012  0.00  0.00     0.089 H 
ENDROOT
BRANCH   1  11
ATOM     11  C1  <0> d          -0.018   1.503   0.010  0.00  0.00    -0.035 C 
ATOM     12  H1  <0> d           1.004   1.880   0.003  0.00  0.00     0.035 H 
ATOM     13  H2  <0> d          -0.545   1.864  -0.873  0.00  0.00     0.035 H 
ATOM     14  H3  <0> d          -0.529   1.854   0.907  0.00  0.00     0.035 H 
ENDBRANCH   1  11
BRANCH   3  15
ATOM     15  C6  <0> d          -2.453  -2.870  -0.001  0.00  0.00    -0.035 C 
ATOM     16  H5  <0> d          -3.304  -2.189   0.007  0.00  0.00     0.035 H 
ATOM     17  H6  <0> d          -2.495  -3.493  -0.894  0.00  0.00     0.035 H 
ATOM     18  H7  <0> d          -2.486  -3.503   0.885  0.00  0.00     0.035 H 
ENDBRANCH   3  15
TORSDOF 2
