REMARK  2 active torsions:
REMARK  status: ('A' for Active; 'I' for Inactive)
REMARK    1  A    between atoms: C1_1  and  C2_2 
REMARK    2  A    between atoms: C2_2  and  C3_4 
ROOT
ATOM      1  C3  <0> d          -1.212  -0.727   0.010  0.00  0.00     0.077 A 
ATOM      2  C4  <0> d          -2.487  -0.188   0.019  0.00  0.00    -0.052 A 
ATOM      3  C5  <0> d          -3.382  -1.260   0.024  0.00  0.00    -0.066 A 
ATOM      4  C6  <0> d          -2.658  -2.407   0.018  0.00  0.00    -0.022 A 
ATOM      5  N1  <0> d          -1.345  -2.100   0.004  0.00  0.00    -0.363 N 
ATOM      6  H1  <0> d          -0.615  -2.738  -0.007  0.00  0.00     0.165 HD
ATOM      7  H5  <0> d          -2.742   0.861   0.022  0.00  0.00     0.087 H 
ATOM      8  H6  <0> d          -4.459  -1.188   0.031  0.00  0.00     0.085 H 
ATOM      9  H7  <0> d          -3.068  -3.407   0.021  0.00  0.00     0.111 H 
ENDROOT
BRANCH   1  10
ATOM     10  C2  <0> d           0.002  -0.004   0.002  0.00  0.00     0.172 C 
ATOM     11  O1  <0> d           1.062  -0.597  -0.011  0.00  0.00    -0.291 OA
BRANCH  10  12
ATOM     12  C1  <0> d          -0.018   1.503   0.010  0.00  0.00    -0.015 C 
ATOM     13  H2  <0> d           1.004   1.880   0.003  0.00  0.00     0.038 H 
ATOM     14  H3  <0> d          -0.545   1.864  -0.873  0.00  0.00     0.038 H 
ATOM     15  H4  <0> d          -0.529   1.854   0.907  0.00  0.00     0.038 H 
ENDBRANCH  10  12
ENDBRANCH   1  10
TORSDOF 2
