REMARK  4 active torsions:
REMARK  status: ('A' for Active; 'I' for Inactive)
REMARK    1  A    between atoms: C1_1  and  C2_2 
REMARK    2  A    between atoms: C5_6  and  C6_8 
REMARK    3  A    between atoms: C6_8  and  O2_10 
REMARK    4  A    between atoms: O2_10  and  C7_11 
ROOT
ATOM      1  C2  <0> d           0.002  -0.004   0.002  0.00  0.00     0.122 A 
ATOM      2  N1  <0> d           0.005  -0.638  -1.155  0.00  0.00    -0.246 NA
ATOM      3  C3  <0> d           0.023  -1.958  -1.208  0.00  0.00     0.007 A 
ATOM      4  C4  <0> d           0.038  -2.683  -0.024  0.00  0.00    -0.032 A 
ATOM      5  C5  <0> d           0.035  -1.980   1.181  0.00  0.00     0.135 A 
ATOM      6  N2  <0> d           0.022  -0.649   1.149  0.00  0.00    -0.228 NA
ATOM      7  H4  <0> d           0.025  -2.467  -2.161  0.00  0.00     0.114 H 
ATOM      8  H5  <0> d           0.053  -3.763  -0.035  0.00  0.00     0.089 H 
ENDROOT
BRANCH   5   9
ATOM      9  C6  <0> d           0.051  -2.703   2.476  0.00  0.00     0.311 C 
ATOM     10  O1  <0> d           0.067  -3.916   2.494  0.00  0.00    -0.258 OA
BRANCH   9  11
ATOM     11  O2  <0> d           0.047  -2.013   3.632  0.00  0.00    -0.321 OA
BRANCH  11  12
ATOM     12  C7  <0> d           0.063  -2.773   4.842  0.00  0.00     0.013 C 
ATOM     13  H6  <0> d           0.058  -2.097   5.697  0.00  0.00     0.067 H 
ATOM     14  H7  <0> d          -0.818  -3.414   4.880  0.00  0.00     0.067 H 
ATOM     15  H8  <0> d           0.962  -3.389   4.872  0.00  0.00     0.067 H 
ENDBRANCH  11  12
ENDBRANCH   9  11
ENDBRANCH   5   9
BRANCH   1  16
ATOM     16  C1  <0> d          -0.018   1.503   0.010  0.00  0.00    -0.019 C 
ATOM     17  H1  <0> d           1.004   1.880   0.003  0.00  0.00     0.037 H 
ATOM     18  H2  <0> d          -0.545   1.864  -0.873  0.00  0.00     0.037 H 
ATOM     19  H3  <0> d          -0.529   1.854   0.907  0.00  0.00     0.037 H 
ENDBRANCH   1  16
TORSDOF 4
