REMARK  4 active torsions:
REMARK  status: ('A' for Active; 'I' for Inactive)
REMARK    1  A    between atoms: N2_4  and  C4_7 
REMARK    2  A    between atoms: C3_5  and  N3_6 
REMARK    3  A    between atoms: C4_7  and  C5_8 
REMARK    4  A    between atoms: C5_8  and  O1_9 
ROOT
ATOM      1  C1  <0> d          -1.301   2.777   2.930  0.00  0.00    -0.021 A 
ATOM      2  C2  <0> d          -2.084   1.619   2.918  0.00  0.00     0.025 A 
ATOM      3  N1  <0> d          -1.725   0.890   1.893  0.00  0.00    -0.183 NA
ATOM      4  N2  <0> d          -0.698   1.558   1.213  0.00  0.00    -0.253 N 
ATOM      5  C3  <0> d          -0.448   2.714   1.870  0.00  0.00     0.118 A 
ATOM      6  H1  <0> d          -1.358   3.577   3.653  0.00  0.00     0.091 H 
ATOM      7  H2  <0> d          -2.854   1.370   3.633  0.00  0.00     0.117 H 
ENDROOT
BRANCH   4   8
ATOM      8  C4  <0> d          -0.013   1.086   0.008  0.00  0.00     0.038 C 
ATOM      9  H5  <0> d           0.002  -0.004   0.002  0.00  0.00     0.070 H 
ATOM     10  H6  <0> d           1.010   1.463   0.000  0.00  0.00     0.070 H 
BRANCH   8  11
ATOM     11  C5  <0> d          -0.753   1.593  -1.232  0.00  0.00     0.033 C 
ATOM     12  H7  <0> d          -1.775   1.215  -1.224  0.00  0.00     0.076 H 
ATOM     13  H8  <0> d          -0.767   2.683  -1.226  0.00  0.00     0.076 H 
BRANCH  11  14
ATOM     14  O1  <0> d          -0.084   1.132  -2.407  0.00  0.00    -0.399 OA
ATOM     15  H9  <0> d          -0.499   1.416  -3.233  0.00  0.00     0.209 HD
ENDBRANCH  11  14
ENDBRANCH   8  11
ENDBRANCH   4   8
BRANCH   5  16
ATOM     16  N3  <0> d           0.506   3.667   1.524  0.00  0.00    -0.384 N 
ATOM     17  H3  <0> d           1.067   3.530   0.744  0.00  0.00     0.157 HD
ATOM     18  H4  <0> d           0.609   4.467   2.062  0.00  0.00     0.157 HD
ENDBRANCH   5  16
TORSDOF 4
