REMARK  6 active torsions:
REMARK  status: ('A' for Active; 'I' for Inactive)
REMARK    1  A    between atoms: C1_1  and  C2_2 
REMARK    2  A    between atoms: C2_2  and  C3_3 
REMARK    3  A    between atoms: C2_2  and  C4_4 
REMARK    4  A    between atoms: C4_4  and  C5_5 
REMARK    5  A    between atoms: C5_5  and  N1_6 
REMARK       I    between atoms: N1_6  and  C6_7 
REMARK    6  A    between atoms: C6_7  and  C7_9 
ROOT
ATOM      1  C4  <0> d          -0.729   1.579   1.267  0.00  0.00    -0.048 C 
ATOM      2  H8  <0> d          -0.666   2.666   1.318  0.00  0.00     0.035 H 
ATOM      3  H9  <0> d          -1.776   1.277   1.232  0.00  0.00     0.035 H 
ENDROOT
BRANCH   1   4
ATOM      4  C2  <0> d          -0.013   1.086   0.008  0.00  0.00    -0.060 C 
ATOM      5  H4  <0> d           0.002  -0.004   0.002  0.00  0.00     0.038 H 
BRANCH   4   6
ATOM      6  C1  <0> d           1.423   1.615  -0.003  0.00  0.00    -0.073 C 
ATOM      7  H1  <0> d           1.408   2.705   0.003  0.00  0.00     0.028 H 
ATOM      8  H2  <0> d           1.950   1.254   0.880  0.00  0.00     0.028 H 
ATOM      9  H3  <0> d           1.933   1.264  -0.900  0.00  0.00     0.028 H 
ENDBRANCH   4   6
BRANCH   4  10
ATOM     10  C3  <0> d          -0.753   1.593  -1.232  0.00  0.00    -0.073 C 
ATOM     11  H5  <0> d          -0.242   1.241  -2.128  0.00  0.00     0.028 H 
ATOM     12  H6  <0> d          -1.775   1.215  -1.224  0.00  0.00     0.028 H 
ATOM     13  H7  <0> d          -0.767   2.683  -1.226  0.00  0.00     0.028 H 
ENDBRANCH   4  10
ENDBRANCH   1   4
BRANCH   1  14
ATOM     14  C5  <0> d          -0.064   0.971   2.503  0.00  0.00    -0.004 C 
ATOM     15  H10 <0> d          -0.126  -0.116   2.452  0.00  0.00     0.064 H 
ATOM     16  H11 <0> d           0.983   1.274   2.539  0.00  0.00     0.064 H 
BRANCH  14  17
ATOM     17  N1  <0> d          -0.750   1.444   3.709  0.00  0.00    -0.361 N 
ATOM     18  C6  <0> d          -0.334   1.036   4.924  0.00  0.00     0.213 C 
ATOM     19  O1  <0> d           0.608   0.278   5.020  0.00  0.00    -0.274 OA
ATOM     20  H12 <0> d          -1.503   2.050   3.632  0.00  0.00     0.162 HD
BRANCH  18  21
ATOM     21  C7  <0> d          -1.039   1.522   6.164  0.00  0.00    -0.003 C 
ATOM     22  H13 <0> d          -1.853   2.190   5.881  0.00  0.00     0.040 H 
ATOM     23  H14 <0> d          -1.442   0.669   6.711  0.00  0.00     0.040 H 
ATOM     24  H15 <0> d          -0.333   2.059   6.797  0.00  0.00     0.040 H 
ENDBRANCH  18  21
ENDBRANCH  14  17
ENDBRANCH   1  14
TORSDOF 6
