REMARK  2 active torsions:
REMARK  status: ('A' for Active; 'I' for Inactive)
REMARK    1  A    between atoms: C3_3  and  C5_7 
REMARK    2  A    between atoms: C5_7  and  O2_8 
ROOT
ATOM      1  C1  <0> d           1.553   2.402   1.333  0.00  0.00    -0.043 C 
ATOM      2  C2  <0> d           1.429   1.629  -0.003  0.00  0.00    -0.037 C 
ATOM      3  C3  <0> d          -0.013   1.086   0.008  0.00  0.00     0.059 C 
ATOM      4  H1  <0> d           0.002  -0.004   0.002  0.00  0.00     0.086 H 
ATOM      5  O1  <0> d          -0.639   1.560   1.212  0.00  0.00    -0.384 OA
ATOM      6  C4  <0> d           0.413   1.778   2.177  0.00  0.00     0.020 C 
ATOM      7  H2  <0> d           2.523   2.224   1.797  0.00  0.00     0.036 H 
ATOM      8  H3  <0> d           1.386   3.469   1.182  0.00  0.00     0.036 H 
ATOM      9  H4  <0> d           2.146   0.809  -0.037  0.00  0.00     0.036 H 
ATOM     10  H5  <0> d           1.577   2.302  -0.848  0.00  0.00     0.036 H 
ATOM     11  H6  <0> d           0.734   0.833   2.615  0.00  0.00     0.074 H 
ATOM     12  H7  <0> d           0.087   2.470   2.953  0.00  0.00     0.074 H 
ENDROOT
BRANCH   3  13
ATOM     13  C5  <0> d          -0.773   1.602  -1.215  0.00  0.00     0.041 C 
ATOM     14  H8  <0> d          -0.871   2.686  -1.151  0.00  0.00     0.077 H 
ATOM     15  H9  <0> d          -0.225   1.341  -2.121  0.00  0.00     0.077 H 
BRANCH  13  16
ATOM     16  O2  <0> d          -2.071   1.007  -1.256  0.00  0.00    -0.398 OA
ATOM     17  H10 <0> d          -2.610   1.290  -2.007  0.00  0.00     0.209 HD
ENDBRANCH  13  16
ENDBRANCH   3  13
TORSDOF 2
