REMARK  4 active torsions:
REMARK  status: ('A' for Active; 'I' for Inactive)
REMARK    1  A    between atoms: C1_1  and  C2_2 
REMARK    2  A    between atoms: C2_2  and  C3_3 
REMARK    3  A    between atoms: C6_6  and  C7_8 
REMARK    4  A    between atoms: C7_8  and  C8_10 
ROOT
ATOM      1  C3  <0> d           0.000   1.080   2.488  0.00  0.00    -0.017 A 
ATOM      2  C4  <0> d           1.013   1.679   3.171  0.00  0.00    -0.069 A 
ATOM      3  C5  <0> d           1.544   1.053   4.268  0.00  0.00    -0.062 A 
ATOM      4  C6  <0> d           1.000  -0.180   4.616  0.00  0.00     0.050 A 
ATOM      5  S1  <0> d          -0.254  -0.393   3.365  0.00  0.00    -0.091 SA
ATOM      6  H6  <0> d           1.394   2.638   2.852  0.00  0.00     0.085 H 
ATOM      7  H7  <0> d           2.348   1.496   4.836  0.00  0.00     0.085 H 
ENDROOT
BRANCH   1   8
ATOM      8  C2  <0> d          -0.729   1.579   1.267  0.00  0.00    -0.038 C 
ATOM      9  H4  <0> d          -0.744   2.669   1.273  0.00  0.00     0.040 H 
ATOM     10  H5  <0> d          -1.751   1.202   1.275  0.00  0.00     0.040 H 
BRANCH   8  11
ATOM     11  C1  <0> d          -0.013   1.086   0.008  0.00  0.00    -0.072 C 
ATOM     12  H1  <0> d           0.002  -0.004   0.002  0.00  0.00     0.028 H 
ATOM     13  H2  <0> d           1.010   1.463   0.000  0.00  0.00     0.028 H 
ATOM     14  H3  <0> d          -0.540   1.447  -0.875  0.00  0.00     0.028 H 
ENDBRANCH   8  11
ENDBRANCH   1   8
BRANCH   4  15
ATOM     15  C7  <0> d           1.348  -1.036   5.684  0.00  0.00     0.162 C 
ATOM     16  O1  <0> d           2.236  -0.721   6.451  0.00  0.00    -0.292 OA
BRANCH  15  17
ATOM     17  C8  <0> d           0.616  -2.340   5.873  0.00  0.00    -0.016 C 
ATOM     18  H8  <0> d          -0.078  -2.439   5.160  0.00  0.00     0.038 H 
ATOM     19  H9  <0> d           1.324  -3.166   5.810  0.00  0.00     0.038 H 
ATOM     20  H10 <0> d           0.135  -2.348   6.852  0.00  0.00     0.038 H 
ENDBRANCH  15  17
ENDBRANCH   4  15
TORSDOF 4
