REMARK  4 active torsions:
REMARK  status: ('A' for Active; 'I' for Inactive)
REMARK    1  A    between atoms: C1_1  and  C2_2 
REMARK    2  A    between atoms: C2_2  and  C9_10 
REMARK    3  A    between atoms: C6_6  and  C7_8 
REMARK    4  A    between atoms: C6_6  and  C8_9 
ROOT
ATOM      1  C9  <0> d          -1.339  -0.623  -0.159  0.00  0.00    -0.079 C 
ATOM      2  C10 <0> d          -2.440  -1.031  -0.154  0.00  0.00    -0.151 C 
ATOM      3  H16 <0> d          -3.425  -1.396  -0.149  0.00  0.00     0.166 H 
ENDROOT
BRANCH   1   4
ATOM      4  C2  <0> d           0.041  -0.112  -0.166  0.00  0.00     0.120 C 
ATOM      5  O1  <0> d           0.696  -0.490   1.046  0.00  0.00    -0.358 OA
ATOM      6  C6  <0> d           0.749  -1.902   1.264  0.00  0.00     0.056 C 
ATOM      7  C5  <0> d           1.534  -2.563   0.129  0.00  0.00    -0.037 C 
ATOM      8  C4  <0> d           0.868  -2.224  -1.208  0.00  0.00    -0.059 C 
ATOM      9  H8  <0> d           1.538  -3.644   0.270  0.00  0.00     0.037 H 
ATOM     10  H9  <0> d           2.559  -2.191   0.130  0.00  0.00     0.037 H 
ATOM     11  C3  <0> d           0.798  -0.701  -1.359  0.00  0.00    -0.026 C 
ATOM     12  H6  <0> d          -0.140  -2.639  -1.229  0.00  0.00     0.033 H 
ATOM     13  H7  <0> d           1.454  -2.645  -2.025  0.00  0.00     0.033 H 
ATOM     14  H4  <0> d           0.276  -0.450  -2.282  0.00  0.00     0.038 H 
ATOM     15  H5  <0> d           1.808  -0.291  -1.388  0.00  0.00     0.038 H 
BRANCH   4  16
ATOM     16  C1  <0> d           0.019   1.414  -0.279  0.00  0.00    -0.037 C 
ATOM     17  H1  <0> d           1.041   1.793  -0.284  0.00  0.00     0.033 H 
ATOM     18  H2  <0> d          -0.480   1.703  -1.204  0.00  0.00     0.033 H 
ATOM     19  H3  <0> d          -0.519   1.833   0.571  0.00  0.00     0.033 H 
ENDBRANCH   4  16
BRANCH   6  20
ATOM     20  C7  <0> d           1.442  -2.186   2.598  0.00  0.00    -0.048 C 
ATOM     21  H10 <0> d           2.455  -1.783   2.574  0.00  0.00     0.031 H 
ATOM     22  H11 <0> d           0.883  -1.716   3.406  0.00  0.00     0.031 H 
ATOM     23  H12 <0> d           1.484  -3.263   2.764  0.00  0.00     0.031 H 
ENDBRANCH   6  20
BRANCH   6  24
ATOM     24  C8  <0> d          -0.673  -2.467   1.298  0.00  0.00    -0.048 C 
ATOM     25  H13 <0> d          -0.668  -3.433   1.803  0.00  0.00     0.031 H 
ATOM     26  H14 <0> d          -1.325  -1.778   1.835  0.00  0.00     0.031 H 
ATOM     27  H15 <0> d          -1.038  -2.592   0.278  0.00  0.00     0.031 H 
ENDBRANCH   6  24
ENDBRANCH   1   4
TORSDOF 4
