REMARK  1 active torsions:
REMARK  status: ('A' for Active; 'I' for Inactive)
REMARK    1  A    between atoms: C1_1  and  C2_2 
ROOT
ATOM      1  C2  <0> d          -0.785   3.122  -1.226  0.00  0.00    -0.003 C 
ATOM      2  H1  <0> d           0.150   3.671  -1.122  0.00  0.00     0.047 H 
ATOM      3  C3  <0> d          -1.649   3.345   0.017  0.00  0.00    -0.057 C 
ATOM      4  C4  <0> d          -0.903   2.842   1.254  0.00  0.00    -0.064 C 
ATOM      5  C5  <0> d          -0.611   1.348   1.102  0.00  0.00    -0.060 C 
ATOM      6  C6  <0> d           0.255   1.121  -0.140  0.00  0.00    -0.012 C 
ATOM      7  C7  <0> d          -0.487   1.629  -1.377  0.00  0.00     0.167 C 
ATOM      8  O1  <0> d          -1.721   0.908  -1.524  0.00  0.00    -0.353 OA
ATOM      9  C8  <0> d          -1.896   0.762  -2.954  0.00  0.00     0.043 C 
ATOM     10  C9  <0> d          -0.435   0.562  -3.431  0.00  0.00     0.043 C 
ATOM     11  O2  <0> d           0.317   1.414  -2.544  0.00  0.00    -0.353 OA
ATOM     12  H5  <0> d          -1.859   4.409   0.127  0.00  0.00     0.033 H 
ATOM     13  H6  <0> d          -2.587   2.799  -0.089  0.00  0.00     0.033 H 
ATOM     14  H7  <0> d           0.035   3.387   1.358  0.00  0.00     0.033 H 
ATOM     15  H8  <0> d          -1.517   3.003   2.139  0.00  0.00     0.033 H 
ATOM     16  H9  <0> d          -1.549   0.803   0.995  0.00  0.00     0.033 H 
ATOM     17  H10 <0> d          -0.081   0.990   1.984  0.00  0.00     0.033 H 
ATOM     18  H11 <0> d           0.460   0.056  -0.250  0.00  0.00     0.041 H 
ATOM     19  H12 <0> d           1.195   1.663  -0.031  0.00  0.00     0.041 H 
ATOM     20  H13 <0> d          -2.328   1.663  -3.388  0.00  0.00     0.077 H 
ATOM     21  H14 <0> d          -2.505  -0.112  -3.186  0.00  0.00     0.077 H 
ATOM     22  H15 <0> d          -0.320   0.886  -4.465  0.00  0.00     0.077 H 
ATOM     23  H16 <0> d          -0.129  -0.478  -3.318  0.00  0.00     0.077 H 
ENDROOT
BRANCH   1  24
ATOM     24  C1  <0> d          -1.534   3.620  -2.464  0.00  0.00    -0.068 C 
ATOM     25  H2  <0> d          -2.523   3.164  -2.498  0.00  0.00     0.028 H 
ATOM     26  H3  <0> d          -1.634   4.704  -2.416  0.00  0.00     0.028 H 
ATOM     27  H4  <0> d          -0.977   3.346  -3.360  0.00  0.00     0.028 H 
ENDBRANCH   1  24
TORSDOF 1
