REMARK  3 active torsions:
REMARK  status: ('A' for Active; 'I' for Inactive)
REMARK    1  A    between atoms: C4_4  and  C7_7 
REMARK    2  A    between atoms: C7_7  and  C8_9 
REMARK    3  A    between atoms: C7_7  and  N2_12 
REMARK       I    between atoms: C8_9  and  N1_11 
ROOT
ATOM      1  C1  <0> d          -2.249   3.271  -3.936  0.00  0.00    -0.083 A 
ATOM      2  C2  <0> d          -1.710   4.154  -3.019  0.00  0.00    -0.082 A 
ATOM      3  C3  <0> d          -1.412   3.724  -1.739  0.00  0.00    -0.074 A 
ATOM      4  C4  <0> d          -1.654   2.412  -1.376  0.00  0.00    -0.016 A 
ATOM      5  C5  <0> d          -2.189   1.529  -2.295  0.00  0.00    -0.074 A 
ATOM      6  C6  <0> d          -2.491   1.959  -3.573  0.00  0.00    -0.082 A 
ATOM      7  H2  <0> d          -2.483   3.607  -4.936  0.00  0.00     0.083 H 
ATOM      8  H3  <0> d          -1.521   5.179  -3.302  0.00  0.00     0.083 H 
ATOM      9  H4  <0> d          -0.990   4.413  -1.023  0.00  0.00     0.084 H 
ATOM     10  H5  <0> d          -2.374   0.503  -2.013  0.00  0.00     0.084 H 
ATOM     11  H6  <0> d          -2.913   1.270  -4.290  0.00  0.00     0.083 H 
ENDROOT
BRANCH   4  12
ATOM     12  C7  <0> d          -1.330   1.944   0.019  0.00  0.00     0.231 C 
ATOM     13  H1  <0> d          -1.278   2.803   0.704  0.00  0.00     0.111 H 
BRANCH  12  14
ATOM     14  C8  <0> d          -0.014   1.209   0.009  0.00  0.00     0.253 C 
ATOM     15  O1  <0> d           0.002  -0.004   0.002  0.00  0.00    -0.271 OA
ATOM     16  N1  <0> d           1.143   1.898   0.001  0.00  0.00    -0.368 N 
ATOM     17  H7  <0> d           2.103   1.361  -0.006  0.00  0.00     0.159 HD
ATOM     18  H8  <0> d           1.129   2.998   0.003  0.00  0.00     0.159 HD
ENDBRANCH  12  14
BRANCH  12  19
ATOM     19  N2  <0> d          -2.390   1.045   0.493  0.00  0.00     0.096 N 
ATOM     20  H9  <0> d          -2.153   0.703   1.511  0.00  0.00     0.314 HD
ATOM     21  H10 <0> d          -3.350   1.582   0.500  0.00  0.00     0.314 HD
ENDBRANCH  12  19
ENDBRANCH   4  12
TORSDOF 3
