REMARK  2 active torsions:
REMARK  status: ('A' for Active; 'I' for Inactive)
REMARK    1  A    between atoms: C1_1  and  O1_2 
REMARK    2  A    between atoms: O1_2  and  C2_3 
ROOT
ATOM      1  C2  <0> d           1.096   3.839   0.012  0.00  0.00     0.087 A 
ATOM      2  C3  <0> d           1.165   2.450   0.004  0.00  0.00    -0.027 A 
ATOM      3  C4  <0> d          -0.021   1.732   0.012  0.00  0.00     0.054 A 
ATOM      4  C5  <0> d          -1.224   2.416   0.021  0.00  0.00     0.023 A 
ATOM      5  N1  <0> d          -1.253   3.734   0.033  0.00  0.00    -0.269 NA
ATOM      6  C6  <0> d          -0.148   4.452   0.026  0.00  0.00     0.034 A 
ATOM      7 Cl1  <0> d           0.002  -0.004   0.002  0.00  0.00    -0.083 Cl
ATOM      8  H4  <0> d           2.118   1.943  -0.007  0.00  0.00     0.090 H 
ATOM      9  H5  <0> d          -2.152   1.863   0.022  0.00  0.00     0.117 H 
ATOM     10  H6  <0> d          -0.212   5.531   0.032  0.00  0.00     0.119 H 
ENDROOT
BRANCH   1  11
ATOM     11  O1  <0> d           2.232   4.585   0.004  0.00  0.00    -0.354 OA
BRANCH  11  12
ATOM     12  C1  <0> d           2.076   6.005   0.013  0.00  0.00     0.010 C 
ATOM     13  H1  <0> d           3.067   6.483   0.006  0.00  0.00     0.066 H 
ATOM     14  H2  <0> d           1.529   6.309   0.918  0.00  0.00     0.066 H 
ATOM     15  H3  <0> d           1.512   6.317  -0.878  0.00  0.00     0.066 H 
ENDBRANCH  11  12
ENDBRANCH   1  11
TORSDOF 2
