REMARK  1 active torsions:
REMARK  status: ('A' for Active; 'I' for Inactive)
REMARK    1  A    between atoms: C1_1  and  C2_2 
ROOT
ATOM      1  C2  <0> d           2.379   0.100  -0.020  0.00  0.00     0.101 A 
ATOM      2  C3  <0> d           1.181  -0.662  -0.013  0.00  0.00     0.285 A 
ATOM      3  O1  <0> d           1.217  -1.881  -0.019  0.00  0.00    -0.265 OA
ATOM      4  N1  <0> d           0.002  -0.004   0.002  0.00  0.00    -0.241 N 
ATOM      5  H1  <0> d          -0.857  -0.516   0.007  0.00  0.00     0.192 HD
ATOM      6  N2  <0> d          -0.015   1.283   0.009  0.00  0.00    -0.165 NA
ATOM      7  C4  <0> d           1.083   1.987   0.002  0.00  0.00     0.106 A 
ATOM      8  N3  <0> d           2.284   1.410  -0.012  0.00  0.00    -0.239 NA
ATOM      9  H5  <0> d           1.018   3.065   0.008  0.00  0.00     0.149 H 
ENDROOT
BRANCH   1  10
ATOM     10  C1  <0> d           3.726  -0.577  -0.037  0.00  0.00    -0.030 C 
ATOM     11  H2  <0> d           4.040  -0.734  -1.069  0.00  0.00     0.035 H 
ATOM     12  H3  <0> d           4.455   0.053   0.473  0.00  0.00     0.035 H 
ATOM     13  H4  <0> d           3.656  -1.538   0.472  0.00  0.00     0.035 H 
ENDBRANCH   1  10
TORSDOF 1
