REMARK  1 active torsions:
REMARK  status: ('A' for Active; 'I' for Inactive)
REMARK    1  A    between atoms: C2_2  and  C6_8 
ROOT
ATOM      1  C1  <0> d           1.164   2.448   0.004  0.00  0.00    -0.043 A 
ATOM      2  C2  <0> d           1.094   3.846   0.012  0.00  0.00     0.059 A 
ATOM      3  C3  <0> d          -0.161   4.459   0.028  0.00  0.00     0.018 A 
ATOM      4  N1  <0> d          -1.260   3.734   0.034  0.00  0.00    -0.270 NA
ATOM      5  C4  <0> d          -1.226   2.415   0.021  0.00  0.00     0.023 A 
ATOM      6  C5  <0> d          -0.021   1.732   0.012  0.00  0.00     0.052 A 
ATOM      7 Cl1  <0> d           0.002  -0.004   0.002  0.00  0.00    -0.083 Cl
ATOM      8  H1  <0> d           2.117   1.941  -0.007  0.00  0.00     0.087 H 
ATOM      9  H2  <0> d          -0.230   5.537   0.034  0.00  0.00     0.116 H 
ATOM     10  H3  <0> d          -2.152   1.860   0.022  0.00  0.00     0.117 H 
ENDROOT
BRANCH   2  11
ATOM     11  C6  <0> d           2.326   4.660   0.004  0.00  0.00     0.210 C 
ATOM     12  O1  <0> d           3.413   4.117  -0.009  0.00  0.00    -0.644 OA
ATOM     13  O2  <0> d           2.246   6.005   0.013  0.00  0.00    -0.644 OA
ENDBRANCH   2  11
TORSDOF 1
