REMARK  7 active torsions:
REMARK  status: ('A' for Active; 'I' for Inactive)
REMARK    1  A    between atoms: C1_1  and  C2_2 
REMARK    2  A    between atoms: C2_2  and  N1_3 
REMARK    3  A    between atoms: N1_3  and  C3_4 
REMARK    4  A    between atoms: N1_3  and  C5_6 
REMARK    5  A    between atoms: C3_4  and  C4_5 
REMARK    6  A    between atoms: C5_6  and  C6_8 
REMARK    7  A    between atoms: C5_6  and  O1_9 
ROOT
ATOM      1  N1  <0> d          -0.527   1.711   1.297  0.00  0.00     0.115 N 
ENDROOT
BRANCH   1   2
ATOM      2  C2  <0> d          -0.050   1.097   0.051  0.00  0.00     0.113 C 
ATOM      3  H5  <0> d          -0.558   1.555  -0.797  0.00  0.00     0.079 H 
ATOM      4  H6  <0> d          -0.262   0.028   0.068  0.00  0.00     0.079 H 
BRANCH   2   5
ATOM      5  C1  <0> d           1.459   1.315  -0.080  0.00  0.00    -0.051 C 
ATOM      6  H2  <0> d           1.820   0.821  -0.982  0.00  0.00     0.029 H 
ATOM      7  H3  <0> d           1.668   2.383  -0.142  0.00  0.00     0.029 H 
ATOM      8  H4  <0> d           1.964   0.896   0.790  0.00  0.00     0.029 H 
ENDBRANCH   2   5
ENDBRANCH   1   2
BRANCH   1   9
ATOM      9  C3  <0> d          -0.387   3.173   1.251  0.00  0.00     0.113 C 
ATOM     10  H7  <0> d          -0.500   3.581   2.255  0.00  0.00     0.079 H 
ATOM     11  H8  <0> d           0.598   3.432   0.862  0.00  0.00     0.079 H 
BRANCH   9  12
ATOM     12  C4  <0> d          -1.466   3.759   0.338  0.00  0.00    -0.051 C 
ATOM     13  H9  <0> d          -1.427   4.848   0.382  0.00  0.00     0.029 H 
ATOM     14  H10 <0> d          -1.292   3.431  -0.687  0.00  0.00     0.029 H 
ATOM     15  H11 <0> d          -2.447   3.417   0.668  0.00  0.00     0.029 H 
ENDBRANCH   9  12
ENDBRANCH   1   9
BRANCH   1  16
ATOM     16  C5  <0> d           0.174   1.152   2.461  0.00  0.00     0.220 C 
ATOM     17  H1  <0> d           1.230   1.417   2.411  0.00  0.00     0.132 H 
BRANCH  16  18
ATOM     18  C6  <0> d          -0.434   1.723   3.744  0.00  0.00    -0.026 C 
ATOM     19  H12 <0> d          -1.490   1.459   3.795  0.00  0.00     0.033 H 
ATOM     20  H13 <0> d           0.086   1.308   4.608  0.00  0.00     0.033 H 
ATOM     21  H14 <0> d          -0.330   2.808   3.744  0.00  0.00     0.033 H 
ENDBRANCH  16  18
BRANCH  16  22
ATOM     22  O1  <0> d           0.038  -0.270   2.461  0.00  0.00    -0.368 OA
ATOM     23  H15 <0> d          -0.878  -0.578   2.505  0.00  0.00     0.212 HD
ENDBRANCH  16  22
ENDBRANCH   1  16
TORSDOF 7
