REMARK  4 active torsions:
REMARK  status: ('A' for Active; 'I' for Inactive)
REMARK    1  A    between atoms: C1_1  and  C2_2 
REMARK    2  A    between atoms: C2_2  and  C3_3 
REMARK    3  A    between atoms: C3_3  and  C4_4 
REMARK    4  A    between atoms: C4_4  and  C5_5 
ROOT
ATOM      1  C3  <0> d          -0.018   1.468   0.010  0.00  0.00     0.136 C 
ATOM      2  C6  <0> d           0.002  -0.004   0.002  0.00  0.00     0.084 C 
ATOM      3  N1  <0> d           0.018  -1.140  -0.004  0.00  0.00    -0.195 NA
ATOM      4  C7  <0> d           1.363   1.977  -0.000  0.00  0.00     0.084 C 
ATOM      5  N2  <0> d           2.429   2.370  -0.008  0.00  0.00    -0.195 NA
ENDROOT
BRANCH   1   6
ATOM      6  C2  <0> d          -0.758   1.975  -1.229  0.00  0.00    -0.037 C 
ATOM      7  H4  <0> d          -1.780   1.597  -1.222  0.00  0.00     0.036 H 
ATOM      8  H5  <0> d          -0.773   3.064  -1.223  0.00  0.00     0.036 H 
BRANCH   6   9
ATOM      9  C1  <0> d          -0.042   1.481  -2.488  0.00  0.00    -0.074 C 
ATOM     10  H1  <0> d           0.981   1.859  -2.496  0.00  0.00     0.027 H 
ATOM     11  H2  <0> d          -0.027   0.391  -2.494  0.00  0.00     0.027 H 
ATOM     12  H3  <0> d          -0.569   1.842  -3.371  0.00  0.00     0.027 H 
ENDBRANCH   6   9
ENDBRANCH   1   6
BRANCH   1  13
ATOM     13  C4  <0> d          -0.734   1.961   1.269  0.00  0.00    -0.037 C 
ATOM     14  H6  <0> d          -0.749   3.051   1.275  0.00  0.00     0.036 H 
ATOM     15  H7  <0> d          -1.757   1.584   1.277  0.00  0.00     0.036 H 
BRANCH  13  16
ATOM     16  C5  <0> d           0.006   1.454   2.508  0.00  0.00    -0.074 C 
ATOM     17  H8  <0> d           1.029   1.832   2.501  0.00  0.00     0.027 H 
ATOM     18  H9  <0> d          -0.504   1.806   3.405  0.00  0.00     0.027 H 
ATOM     19  H10 <0> d           0.021   0.364   2.502  0.00  0.00     0.027 H 
ENDBRANCH  13  16
ENDBRANCH   1  13
TORSDOF 4
