REMARK  2 active torsions:
REMARK  status: ('A' for Active; 'I' for Inactive)
REMARK    1  A    between atoms: C5_6  and  C6_7 
REMARK    2  A    between atoms: C6_7  and  C7_8 
ROOT
ATOM      1  C7  <0> d          -2.983   4.158  -1.391  0.00  0.00     0.018 C 
ATOM      2  C8  <0> d          -4.251   4.905  -1.376  0.00  0.00     0.059 C 
ATOM      3  N2  <0> d          -5.230   5.481  -1.365  0.00  0.00    -0.197 NA
ATOM      4  H7  <0> d          -2.223   4.744  -1.909  0.00  0.00     0.055 H 
ATOM      5  H8  <0> d          -3.125   3.209  -1.909  0.00  0.00     0.055 H 
ENDROOT
BRANCH   1   6
ATOM      6  C6  <0> d          -2.530   3.893   0.046  0.00  0.00    -0.030 C 
ATOM      7  H5  <0> d          -3.289   3.308   0.564  0.00  0.00     0.041 H 
ATOM      8  H6  <0> d          -2.387   4.842   0.563  0.00  0.00     0.041 H 
BRANCH   6   9
ATOM      9  C5  <0> d          -1.231   3.129   0.030  0.00  0.00    -0.054 A 
ATOM     10  C1  <0> d          -1.223   1.742   0.017  0.00  0.00    -0.060 A 
ATOM     11  C2  <0> d          -0.013   1.076   0.008  0.00  0.00     0.002 A 
ATOM     12  H1  <0> d          -2.151   1.190   0.018  0.00  0.00     0.086 H 
ATOM     13  N1  <0> d           1.125   1.743   0.001  0.00  0.00    -0.273 NA
ATOM     14  H2  <0> d           0.002  -0.004   0.002  0.00  0.00     0.114 H 
ATOM     15  C3  <0> d           1.155   3.061   0.007  0.00  0.00     0.002 A 
ATOM     16  C4  <0> d          -0.015   3.796   0.022  0.00  0.00    -0.060 A 
ATOM     17  H3  <0> d           2.107   3.573   0.001  0.00  0.00     0.114 H 
ATOM     18  H4  <0> d           0.016   4.875   0.027  0.00  0.00     0.086 H 
ENDBRANCH   6   9
ENDBRANCH   1   6
TORSDOF 2
