REMARK  1 active torsions:
REMARK  status: ('A' for Active; 'I' for Inactive)
REMARK    1  A    between atoms: C3_3  and  N1_9 
ROOT
ATOM      1  C1  <0> d           0.002  -0.004   0.002  0.00  0.00    -0.079 A 
ATOM      2  C2  <0> d           1.207  -0.681  -0.013  0.00  0.00    -0.055 A 
ATOM      3  C3  <0> d           2.400   0.027  -0.020  0.00  0.00     0.066 A 
ATOM      4  C4  <0> d           2.380   1.418  -0.013  0.00  0.00     0.164 A 
ATOM      5  C5  <0> d           1.171   2.090   0.002  0.00  0.00     0.074 A 
ATOM      6  C6  <0> d          -0.017   1.378   0.010  0.00  0.00    -0.059 A 
ATOM      7 Cl1  <0> d           1.142   3.825   0.012  0.00  0.00    -0.081 Cl
ATOM      8  F1  <0> d           3.539   2.111  -0.020  0.00  0.00    -0.202 F 
ATOM      9  H1  <0> d          -0.926  -0.556   0.008  0.00  0.00     0.083 H 
ATOM     10  H2  <0> d           1.219  -1.761  -0.019  0.00  0.00     0.087 H 
ATOM     11  H3  <0> d          -0.960   1.904   0.017  0.00  0.00     0.086 H 
ENDROOT
BRANCH   3  12
ATOM     12  N1  <0> d           3.620  -0.656  -0.035  0.00  0.00    -0.397 N 
ATOM     13  H4  <0> d           3.633  -1.626  -0.040  0.00  0.00     0.156 HD
ATOM     14  H5  <0> d           4.454  -0.160  -0.040  0.00  0.00     0.156 HD
ENDBRANCH   3  12
TORSDOF 1
