REMARK  3 active torsions:
REMARK  status: ('A' for Active; 'I' for Inactive)
REMARK    1  A    between atoms: C1_1  and  C2_2 
REMARK    2  A    between atoms: C3_3  and  C6_9 
REMARK    3  A    between atoms: C4_6  and  C5_7 
ROOT
ATOM      1  C2  <0> d          -2.098   1.839   1.384  0.00  0.00     0.007 A 
ATOM      2  C3  <0> d          -0.718   1.572   1.248  0.00  0.00     0.067 A 
ATOM      3  N1  <0> d          -0.174   1.833   2.401  0.00  0.00    -0.132 NA
ATOM      4  O1  <0> d          -0.988   2.207   3.212  0.00  0.00    -0.206 OA
ATOM      5  C4  <0> d          -2.227   2.245   2.685  0.00  0.00     0.185 A 
ENDROOT
BRANCH   1   6
ATOM      6  C1  <0> d          -3.178   1.706   0.341  0.00  0.00    -0.046 C 
ATOM      7  H1  <0> d          -3.598   0.701   0.379  0.00  0.00     0.033 H 
ATOM      8  H2  <0> d          -3.964   2.436   0.536  0.00  0.00     0.033 H 
ATOM      9  H3  <0> d          -2.753   1.885  -0.647  0.00  0.00     0.033 H 
ENDBRANCH   1   6
BRANCH   5  10
ATOM     10  C5  <0> d          -3.468   2.650   3.368  0.00  0.00     0.237 C 
ATOM     11  O2  <0> d          -4.524   2.637   2.768  0.00  0.00    -0.642 OA
ATOM     12  O3  <0> d          -3.432   3.033   4.660  0.00  0.00    -0.642 OA
ENDBRANCH   5  10
BRANCH   2  13
ATOM     13  C6  <0> d          -0.013   1.086   0.008  0.00  0.00    -0.033 C 
ATOM     14  H4  <0> d           0.002  -0.004   0.002  0.00  0.00     0.035 H 
ATOM     15  H5  <0> d           1.010   1.463   0.000  0.00  0.00     0.035 H 
ATOM     16  H6  <0> d          -0.540   1.447  -0.875  0.00  0.00     0.035 H 
ENDBRANCH   2  13
TORSDOF 3
