REMARK  2 active torsions:
REMARK  status: ('A' for Active; 'I' for Inactive)
REMARK    1  A    between atoms: C2_2  and  C5_8 
REMARK    2  A    between atoms: C4_5  and  N3_7 
ROOT
ATOM      1  C1  <0> d          -2.340   3.647   0.033  0.00  0.00     0.039 A 
ATOM      2  C2  <0> d          -3.555   2.948   0.035  0.00  0.00     0.076 A 
ATOM      3  C3  <0> d          -3.515   1.547   0.027  0.00  0.00     0.039 A 
ATOM      4  N1  <0> d          -2.343   0.941   0.018  0.00  0.00    -0.074 NA
ATOM      5  C4  <0> d          -1.215   1.639   0.017  0.00  0.00     0.719 A 
ATOM      6  N2  <0> d          -1.210   2.966   0.029  0.00  0.00    -0.074 NA
ATOM      7  H1  <0> d          -2.329   4.727   0.038  0.00  0.00     0.117 H 
ATOM      8  H2  <0> d          -4.429   0.973   0.029  0.00  0.00     0.117 H 
ENDROOT
BRANCH   2   9
ATOM      9  C5  <0> d          -4.842   3.668   0.045  0.00  0.00     0.212 C 
ATOM     10  O1  <0> d          -5.886   3.046   0.047  0.00  0.00    -0.644 OA
ATOM     11  O2  <0> d          -4.860   5.015   0.053  0.00  0.00    -0.644 OA
ENDBRANCH   2   9
BRANCH   5  12
ATOM     12  N3  <0> d          -0.011   0.966   0.007  0.00  0.00    -0.231 N 
ATOM     13  H3  <0> d           0.002  -0.004   0.002  0.00  0.00     0.174 HD
ATOM     14  H4  <0> d           0.822   1.462   0.002  0.00  0.00     0.174 HD
ENDBRANCH   5  12
TORSDOF 2
