REMARK  3 active torsions:
REMARK  status: ('A' for Active; 'I' for Inactive)
REMARK    1  A    between atoms: C1_1  and  C2_2 
REMARK    2  A    between atoms: C5_8  and  C6_9 
REMARK    3  A    between atoms: C5_8  and  O3_10 
ROOT
ATOM      1  C2  <0> d          -2.172   1.988  -0.599  0.00  0.00     0.058 C 
ATOM      2  H1  <0> d          -2.965   1.404  -1.065  0.00  0.00     0.059 H 
ATOM      3  C3  <0> d          -2.047   1.634   0.869  0.00  0.00     0.265 C 
ATOM      4  O1  <0> d          -2.964   1.437   1.631  0.00  0.00    -0.265 OA
ATOM      5  O2  <0> d          -0.736   1.577   1.177  0.00  0.00    -0.318 OA
ATOM      6  C4  <0> d          -0.013   1.086   0.008  0.00  0.00     0.058 C 
ATOM      7  C5  <0> d          -0.801   1.618  -1.208  0.00  0.00     0.088 C 
ATOM      8  H5  <0> d           0.002  -0.004   0.002  0.00  0.00     0.080 H 
ATOM      9  H6  <0> d           1.004   1.478   0.000  0.00  0.00     0.080 H 
ENDROOT
BRANCH   7  10
ATOM     10  C6  <0> d          -0.954   0.529  -2.272  0.00  0.00    -0.045 C 
ATOM     11  H7  <0> d          -1.468  -0.330  -1.841  0.00  0.00     0.031 H 
ATOM     12  H8  <0> d          -1.535   0.918  -3.108  0.00  0.00     0.031 H 
ATOM     13  H9  <0> d           0.031   0.225  -2.624  0.00  0.00     0.031 H 
ENDBRANCH   7  10
BRANCH   7  14
ATOM     14  O3  <0> d          -0.164   2.773  -1.757  0.00  0.00    -0.387 OA
ATOM     15  H10 <0> d           0.731   2.610  -2.084  0.00  0.00     0.210 HD
ENDBRANCH   7  14
BRANCH   1  16
ATOM     16  C1  <0> d          -2.444   3.485  -0.768  0.00  0.00    -0.061 C 
ATOM     17  H2  <0> d          -2.447   3.736  -1.829  0.00  0.00     0.028 H 
ATOM     18  H3  <0> d          -3.413   3.729  -0.334  0.00  0.00     0.028 H 
ATOM     19  H4  <0> d          -1.665   4.055  -0.262  0.00  0.00     0.028 H 
ENDBRANCH   1  16
TORSDOF 3
