REMARK  3 active torsions:
REMARK  status: ('A' for Active; 'I' for Inactive)
REMARK    1  A    between atoms: C1_1  and  C2_2 
REMARK    2  A    between atoms: C5_6  and  C8_11 
REMARK    3  A    between atoms: C8_11  and  C10_13 
ROOT
ATOM      1  C2  <0> d           0.002  -0.004   0.002  0.00  0.00     0.016 C 
ATOM      2  H1  <0> d          -0.936  -0.350   0.004  0.00  0.00     0.057 H 
ATOM      3  C3  <0> d           0.719  -0.491  -1.226  0.00  0.00    -0.095 C 
ATOM      4  C4  <0> d           1.664  -1.372  -1.213  0.00  0.00    -0.098 C 
ATOM      5  C5  <0> d           2.223  -2.039   0.005  0.00  0.00    -0.011 C 
ATOM      6  H2  <0> d           3.163  -1.559   0.277  0.00  0.00     0.053 H 
ATOM      7  C6  <0> d           1.246  -1.935   1.179  0.00  0.00     0.001 C 
ATOM      8  C7  <0> d           0.734  -0.508   1.228  0.00  0.00     0.135 C 
ATOM      9  O1  <0> d           0.902   0.192   2.197  0.00  0.00    -0.297 OA
ATOM     10  H6  <0> d           0.426  -0.079  -2.180  0.00  0.00     0.077 H 
ATOM     11  H7  <0> d           2.088  -1.652  -2.166  0.00  0.00     0.077 H 
ATOM     12  H8  <0> d           1.719  -2.167   2.028  0.00  0.00     0.045 H 
ATOM     13  H9  <0> d           0.412  -2.622   1.028  0.00  0.00     0.045 H 
ENDROOT
BRANCH   5  14
ATOM     14  C8  <0> d           2.480  -3.493  -0.299  0.00  0.00    -0.085 C 
ATOM     15  C9  <0> d           3.696  -3.973  -0.224  0.00  0.00    -0.119 C 
ATOM     16  H10 <0> d           3.880  -5.014  -0.442  0.00  0.00     0.067 H 
ATOM     17  H11 <0> d           4.515  -3.327   0.057  0.00  0.00     0.067 H 
BRANCH  14  18
ATOM     18  C10 <0> d           1.337  -4.394  -0.691  0.00  0.00    -0.055 C 
ATOM     19  H12 <0> d           0.869  -4.013  -1.599  0.00  0.00     0.033 H 
ATOM     20  H13 <0> d           1.713  -5.401  -0.871  0.00  0.00     0.033 H 
ATOM     21  H14 <0> d           0.602  -4.419   0.114  0.00  0.00     0.033 H 
ENDBRANCH  14  18
ENDBRANCH   5  14
BRANCH   1  22
ATOM     22  C1  <0> d          -0.019   1.526   0.010  0.00  0.00    -0.063 C 
ATOM     23  H3  <0> d           1.004   1.903   0.003  0.00  0.00     0.028 H 
ATOM     24  H4  <0> d          -0.546   1.887  -0.873  0.00  0.00     0.028 H 
ATOM     25  H5  <0> d          -0.529   1.877   0.907  0.00  0.00     0.028 H 
ENDBRANCH   1  22
TORSDOF 3
