REMARK  4 active torsions:
REMARK  status: ('A' for Active; 'I' for Inactive)
REMARK    1  A    between atoms: C1_1  and  C2_2 
REMARK    2  A    between atoms: C2_2  and  C3_4 
REMARK    3  A    between atoms: C2_2  and  C6_10 
REMARK    4  A    between atoms: C3_4  and  N1_5 
ROOT
ATOM      1  C3  <0> d           3.513   0.787  -0.027  0.00  0.00     0.030 C 
ATOM      2  H5  <0> d           3.881   0.369  -0.964  0.00  0.00     0.068 H 
ATOM      3  H6  <0> d           3.844   1.822   0.064  0.00  0.00     0.068 H 
ENDROOT
BRANCH   1   4
ATOM      4  C2  <0> d           4.061  -0.029   1.145  0.00  0.00     0.044 C 
ATOM      5  H1  <0> d           3.658  -1.041   1.103  0.00  0.00     0.058 H 
BRANCH   4   6
ATOM      6  C1  <0> d           3.647   0.629   2.463  0.00  0.00    -0.062 C 
ATOM      7  H2  <0> d           4.049   1.641   2.505  0.00  0.00     0.028 H 
ATOM      8  H3  <0> d           2.559   0.668   2.523  0.00  0.00     0.028 H 
ATOM      9  H4  <0> d           4.037   0.048   3.298  0.00  0.00     0.028 H 
ENDBRANCH   4   6
BRANCH   4  10
ATOM     10  C6  <0> d           5.564  -0.082   1.061  0.00  0.00     0.178 C 
ATOM     11  O1  <0> d           6.139   0.475   0.156  0.00  0.00    -0.648 OA
ATOM     12  O2  <0> d           6.266  -0.749   1.991  0.00  0.00    -0.648 OA
ENDBRANCH   4  10
ENDBRANCH   1   4
BRANCH   1  13
ATOM     13  N1  <0> d           2.049   0.739  -0.013  0.00  0.00    -0.261 N 
ATOM     14  N3  <0> d           1.244  -0.412  -0.012  0.00  0.00    -0.165 NA
ATOM     15  C5  <0> d           0.002  -0.004   0.002  0.00  0.00     0.107 A 
ATOM     16  N2  <0> d          -0.016   1.328   0.009  0.00  0.00    -0.234 NA
ATOM     17  H8  <0> d          -0.868  -0.643   0.007  0.00  0.00     0.149 H 
ATOM     18  C4  <0> d           1.209   1.789   0.000  0.00  0.00     0.084 A 
ATOM     19  H7  <0> d           1.494   2.830   0.003  0.00  0.00     0.146 H 
ENDBRANCH   1  13
TORSDOF 4
