REMARK  2 active torsions:
REMARK  status: ('A' for Active; 'I' for Inactive)
REMARK    1  A    between atoms: C1_1  and  S1_2 
REMARK    2  A    between atoms: S1_2  and  C2_5 
ROOT
ATOM      1  C2  <0> d          -1.157   3.160   0.030  0.00  0.00     0.172 A 
ATOM      2  C3  <0> d          -1.212   1.775   0.017  0.00  0.00    -0.041 A 
ATOM      3  C4  <0> d          -0.013   1.076   0.008  0.00  0.00    -0.061 A 
ATOM      4  C5  <0> d           1.165   1.806   0.001  0.00  0.00     0.024 A 
ATOM      5  N1  <0> d           1.121   3.125   0.008  0.00  0.00    -0.162 NA
ATOM      6  N2  <0> d           0.012   3.771   0.022  0.00  0.00    -0.139 NA
ATOM      7  H4  <0> d          -2.159   1.256   0.019  0.00  0.00     0.088 H 
ATOM      8  H5  <0> d           0.002  -0.004   0.002  0.00  0.00     0.085 H 
ATOM      9  H6  <0> d           2.118   1.297  -0.011  0.00  0.00     0.117 H 
ENDROOT
BRANCH   1  10
ATOM     10  S1  <0> d          -2.646   4.103   0.049  0.00  0.00     0.191 S 
ATOM     11  O1  <0> d          -3.607   3.251   0.656  0.00  0.00    -0.221 OA
ATOM     12  O2  <0> d          -2.286   5.337   0.655  0.00  0.00    -0.221 OA
BRANCH  10  13
ATOM     13  C1  <0> d          -3.056   4.361  -1.699  0.00  0.00     0.021 C 
ATOM     14  H1  <0> d          -3.196   3.396  -2.186  0.00  0.00     0.049 H 
ATOM     15  H2  <0> d          -3.975   4.943  -1.775  0.00  0.00     0.049 H 
ATOM     16  H3  <0> d          -2.244   4.900  -2.187  0.00  0.00     0.049 H 
ENDBRANCH  10  13
ENDBRANCH   1  10
TORSDOF 2
