REMARK  3 active torsions:
REMARK  status: ('A' for Active; 'I' for Inactive)
REMARK    1  A    between atoms: C4_4  and  C7_7 
REMARK    2  A    between atoms: C7_7  and  C8_9 
REMARK    3  A    between atoms: C8_9  and  C9_10 
ROOT
ATOM      1  C1  <0> d          -0.017   1.380   0.010  0.00  0.00    -0.083 A 
ATOM      2  C2  <0> d           1.168   2.095   0.002  0.00  0.00    -0.082 A 
ATOM      3  C3  <0> d           2.377   1.433  -0.013  0.00  0.00    -0.070 A 
ATOM      4  C4  <0> d           2.405   0.035  -0.021  0.00  0.00     0.010 A 
ATOM      5  C5  <0> d           1.203  -0.681  -0.013  0.00  0.00    -0.070 A 
ATOM      6  C6  <0> d           0.002  -0.004   0.002  0.00  0.00    -0.082 A 
ATOM      7  H1  <0> d          -0.961   1.904   0.026  0.00  0.00     0.083 H 
ATOM      8  H2  <0> d           1.145   3.175   0.008  0.00  0.00     0.083 H 
ATOM      9  H3  <0> d           3.301   1.993  -0.020  0.00  0.00     0.085 H 
ATOM     10  H4  <0> d           1.216  -1.761  -0.019  0.00  0.00     0.085 H 
ATOM     11  H5  <0> d          -0.927  -0.555   0.008  0.00  0.00     0.083 H 
ENDROOT
BRANCH   4  12
ATOM     12  C7  <0> d           3.691  -0.679  -0.038  0.00  0.00     0.161 C 
ATOM     13  O1  <0> d           4.731  -0.056  -0.045  0.00  0.00    -0.292 OA
BRANCH  12  14
ATOM     14  C8  <0> d           3.716  -2.186  -0.046  0.00  0.00     0.019 C 
ATOM     15  H6  <0> d           3.218  -2.563   0.847  0.00  0.00     0.048 H 
ATOM     16  H7  <0> d           3.200  -2.553  -0.933  0.00  0.00     0.048 H 
BRANCH  14  17
ATOM     17  C9  <0> d           5.167  -2.672  -0.064  0.00  0.00     0.065 C 
ATOM     18  F1  <0> d           5.190  -4.071  -0.072  0.00  0.00    -0.255 F 
ATOM     19  H8  <0> d           5.666  -2.296  -0.957  0.00  0.00     0.082 H 
ATOM     20  H9  <0> d           5.684  -2.305   0.823  0.00  0.00     0.082 H 
ENDBRANCH  14  17
ENDBRANCH  12  14
ENDBRANCH   4  12
TORSDOF 3
