REMARK  2 active torsions:
REMARK  status: ('A' for Active; 'I' for Inactive)
REMARK    1  A    between atoms: C6_7  and  C7_10 
REMARK    2  A    between atoms: C7_10  and  O3_11 
ROOT
ATOM      1  C1  <0> d          -0.019   1.535   0.011  0.00  0.00    -0.056 C 
ATOM      2  C2  <0> d           1.519   1.481  -0.004  0.00  0.00    -0.013 C 
ATOM      3  C3  <0> d           1.393   0.095   0.633  0.00  0.00     0.164 C 
ATOM      4  C4  <0> d           0.002  -0.004   0.002  0.00  0.00    -0.013 C 
ATOM      5  O1  <0> d           2.342  -0.877   0.168  0.00  0.00    -0.352 OA
ATOM      6  C5  <0> d           2.192  -1.964   1.117  0.00  0.00     0.049 C 
ATOM      7  C6  <0> d           1.913  -1.229   2.447  0.00  0.00     0.083 C 
ATOM      8  H1  <0> d           2.832  -1.131   3.025  0.00  0.00     0.090 H 
ATOM      9  O2  <0> d           1.423   0.070   2.062  0.00  0.00    -0.346 OA
ATOM     10  H2  <0> d          -0.431   1.961   0.925  0.00  0.00     0.033 H 
ATOM     11  H3  <0> d          -0.449   1.970  -0.891  0.00  0.00     0.033 H 
ATOM     12  H4  <0> d           1.946   1.464  -1.007  0.00  0.00     0.041 H 
ATOM     13  H5  <0> d           1.989   2.219   0.645  0.00  0.00     0.041 H 
ATOM     14  H6  <0> d          -0.744  -0.455   0.657  0.00  0.00     0.041 H 
ATOM     15  H7  <0> d           0.005  -0.436  -0.999  0.00  0.00     0.041 H 
ATOM     16  H8  <0> d           1.351  -2.600   0.844  0.00  0.00     0.078 H 
ATOM     17  H9  <0> d           3.112  -2.546   1.184  0.00  0.00     0.078 H 
ENDROOT
BRANCH   7  18
ATOM     18  C7  <0> d           0.854  -1.980   3.256  0.00  0.00     0.043 C 
ATOM     19  H10 <0> d          -0.095  -1.961   2.720  0.00  0.00     0.078 H 
ATOM     20  H11 <0> d           1.171  -3.013   3.398  0.00  0.00     0.078 H 
BRANCH  18  21
ATOM     21  O3  <0> d           0.694  -1.352   4.530  0.00  0.00    -0.398 OA
ATOM     22  H12 <0> d           0.036  -1.776   5.098  0.00  0.00     0.209 HD
ENDBRANCH  18  21
ENDBRANCH   7  18
TORSDOF 2
