REMARK  2 active torsions:
REMARK  status: ('A' for Active; 'I' for Inactive)
REMARK    1  A    between atoms: C1_1  and  C2_2 
REMARK    2  A    between atoms: C4_4  and  C8_11 
ROOT
ATOM      1  C2  <0> d          -0.718   1.572   1.248  0.00  0.00     0.035 A 
ATOM      2  C3  <0> d          -2.103   1.791   1.223  0.00  0.00    -0.036 A 
ATOM      3  C4  <0> d          -2.730   2.223   2.344  0.00  0.00     0.036 A 
ATOM      4  N1  <0> d          -1.994   2.446   3.473  0.00  0.00    -0.220 N 
ATOM      5  C5  <0> d          -0.641   2.225   3.458  0.00  0.00     0.152 A 
ATOM      6  N2  <0> d          -0.033   1.793   2.345  0.00  0.00    -0.234 NA
ATOM      7  C6  <0> d          -0.169   2.532   4.728  0.00  0.00    -0.018 A 
ATOM      8  C7  <0> d          -1.252   2.935   5.493  0.00  0.00     0.026 A 
ATOM      9  N3  <0> d          -2.339   2.886   4.755  0.00  0.00    -0.178 NA
ATOM     10  H4  <0> d          -2.666   1.614   0.318  0.00  0.00     0.089 H 
ATOM     11  H5  <0> d           0.857   2.467   5.059  0.00  0.00     0.091 H 
ATOM     12  H6  <0> d          -1.210   3.239   6.528  0.00  0.00     0.117 H 
ENDROOT
BRANCH   1  13
ATOM     13  C1  <0> d          -0.013   1.086   0.008  0.00  0.00    -0.035 C 
ATOM     14  H1  <0> d          -0.744   0.958  -0.804  0.00  0.00     0.035 H 
ATOM     15  H2  <0> d           0.475   0.122   0.217  0.00  0.00     0.035 H 
ATOM     16  H3  <0> d           0.746   1.822  -0.295  0.00  0.00     0.035 H 
ENDBRANCH   1  13
BRANCH   3  17
ATOM     17  C8  <0> d          -4.218   2.461   2.343  0.00  0.00    -0.035 C 
ATOM     18  H7  <0> d          -4.535   2.806   3.339  0.00  0.00     0.035 H 
ATOM     19  H8  <0> d          -4.739   1.524   2.097  0.00  0.00     0.035 H 
ATOM     20  H9  <0> d          -4.467   3.226   1.593  0.00  0.00     0.035 H 
ENDBRANCH   3  17
TORSDOF 2
