REMARK  5 active torsions:
REMARK  status: ('A' for Active; 'I' for Inactive)
REMARK    1  A    between atoms: C1_1  and  O1_2 
REMARK    2  A    between atoms: O1_2  and  C2_3 
REMARK    3  A    between atoms: C2_3  and  C3_5 
REMARK    4  A    between atoms: N1_8  and  C6_10 
REMARK    5  A    between atoms: C6_10  and  O3_11 
ROOT
ATOM      1  C3  <0> d           1.102   1.948   0.002  0.00  0.00     0.153 A 
ATOM      2  C4  <0> d          -0.013   1.076   0.008  0.00  0.00    -0.031 A 
ATOM      3  C5  <0> d          -1.101   1.880   0.017  0.00  0.00     0.003 A 
ATOM      4  N1  <0> d          -0.656   3.155   0.025  0.00  0.00    -0.257 N 
ATOM      5  N2  <0> d           0.628   3.178   0.013  0.00  0.00    -0.165 NA
ATOM      6  H4  <0> d           0.002  -0.004   0.002  0.00  0.00     0.089 H 
ATOM      7  H5  <0> d          -2.133   1.562   0.019  0.00  0.00     0.114 H 
ENDROOT
BRANCH   1   8
ATOM      8  C2  <0> d           2.525   1.555  -0.013  0.00  0.00     0.313 C 
ATOM      9  O2  <0> d           2.830   0.379  -0.022  0.00  0.00    -0.257 OA
BRANCH   8  10
ATOM     10  O1  <0> d           3.485   2.500  -0.017  0.00  0.00    -0.321 OA
BRANCH  10  11
ATOM     11  C1  <0> d           4.862   2.041  -0.033  0.00  0.00     0.013 C 
ATOM     12  H1  <0> d           5.036   1.443  -0.927  0.00  0.00     0.067 H 
ATOM     13  H2  <0> d           5.532   2.900  -0.034  0.00  0.00     0.067 H 
ATOM     14  H3  <0> d           5.053   1.434   0.853  0.00  0.00     0.067 H 
ENDBRANCH  10  11
ENDBRANCH   8  10
ENDBRANCH   1   8
BRANCH   4  15
ATOM     15  C6  <0> d          -1.515   4.342   0.038  0.00  0.00     0.096 C 
ATOM     16  H6  <0> d          -1.304   4.933   0.929  0.00  0.00     0.109 H 
ATOM     17  H7  <0> d          -1.320   4.942  -0.851  0.00  0.00     0.109 H 
BRANCH  15  18
ATOM     18  O3  <0> d          -2.886   3.938   0.048  0.00  0.00    -0.380 OA
ATOM     19  H8  <0> d          -3.513   4.674   0.058  0.00  0.00     0.211 HD
ENDBRANCH  15  18
ENDBRANCH   4  15
TORSDOF 5
