REMARK  2 active torsions:
REMARK  status: ('A' for Active; 'I' for Inactive)
REMARK    1  A    between atoms: C1_1  and  C2_2 
REMARK    2  A    between atoms: C6_7  and  C8_11 
ROOT
ATOM      1  C2  <0> d           0.002  -0.004   0.002  0.00  0.00     0.001 C 
ATOM      2  H1  <0> d          -0.936  -0.350   0.001  0.00  0.00     0.051 H 
ATOM      3  C3  <0> d           0.743  -0.516   1.242  0.00  0.00    -0.056 C 
ATOM      4  C4  <0> d           0.884  -2.036   1.159  0.00  0.00    -0.064 C 
ATOM      5  C5  <0> d           1.749  -2.411  -0.046  0.00  0.00    -0.056 C 
ATOM      6  C6  <0> d           1.047  -1.971  -1.334  0.00  0.00     0.001 C 
ATOM      7  H2  <0> d           0.203  -2.495  -1.450  0.00  0.00     0.051 H 
ATOM      8  C7  <0> d           0.730  -0.496  -1.230  0.00  0.00     0.134 C 
ATOM      9  O1  <0> d           1.050   0.270  -2.107  0.00  0.00    -0.297 OA
ATOM     10  H6  <0> d           1.732  -0.060   1.288  0.00  0.00     0.034 H 
ATOM     11  H7  <0> d           0.179  -0.251   2.137  0.00  0.00     0.034 H 
ATOM     12  H8  <0> d           1.352  -2.408   2.070  0.00  0.00     0.033 H 
ATOM     13  H9  <0> d          -0.103  -2.486   1.050  0.00  0.00     0.033 H 
ATOM     14  H10 <0> d           2.715  -1.911   0.031  0.00  0.00     0.034 H 
ATOM     15  H11 <0> d           1.899  -3.491  -0.064  0.00  0.00     0.034 H 
ENDROOT
BRANCH   1  16
ATOM     16  C1  <0> d          -0.019   1.526   0.010  0.00  0.00    -0.066 C 
ATOM     17  H3  <0> d           1.004   1.903   0.003  0.00  0.00     0.028 H 
ATOM     18  H4  <0> d          -0.546   1.887  -0.873  0.00  0.00     0.028 H 
ATOM     19  H5  <0> d          -0.529   1.877   0.907  0.00  0.00     0.028 H 
ENDBRANCH   1  16
BRANCH   6  20
ATOM     20  C8  <0> d           1.968  -2.215  -2.531  0.00  0.00    -0.066 C 
ATOM     21  H12 <0> d           2.208  -3.276  -2.594  0.00  0.00     0.028 H 
ATOM     22  H13 <0> d           1.466  -1.901  -3.446  0.00  0.00     0.028 H 
ATOM     23  H14 <0> d           2.887  -1.641  -2.405  0.00  0.00     0.028 H 
ENDBRANCH   6  20
TORSDOF 2
