REMARK  0 active torsions:
REMARK  status: ('A' for Active; 'I' for Inactive)
ROOT
ATOM      1  C1  <0> d           2.407   0.036  -0.021  0.00  0.00    -0.082 A 
ATOM      2  C2  <0> d           1.210  -0.669  -0.013  0.00  0.00    -0.081 A 
ATOM      3  C3  <0> d           0.002  -0.004   0.002  0.00  0.00    -0.054 A 
ATOM      4  C4  <0> d          -0.017   1.384   0.010  0.00  0.00     0.073 A 
ATOM      5  C5  <0> d           1.199   2.098   0.002  0.00  0.00     0.008 A 
ATOM      6  C6  <0> d           2.413   1.402  -0.014  0.00  0.00    -0.070 A 
ATOM      7  C7  <0> d           1.154   3.515   0.009  0.00  0.00    -0.006 A 
ATOM      8  N1  <0> d          -0.010   4.121   0.023  0.00  0.00    -0.316 N 
ATOM      9  C8  <0> d          -1.163   3.442   0.031  0.00  0.00     0.346 A 
ATOM     10  O1  <0> d          -2.212   4.061   0.044  0.00  0.00    -0.245 OA
ATOM     11  N2  <0> d          -1.200   2.095   0.019  0.00  0.00    -0.194 NA
ATOM     12  H1  <0> d           3.344  -0.502  -0.033  0.00  0.00     0.083 H 
ATOM     13  H2  <0> d           1.226  -1.749  -0.019  0.00  0.00     0.083 H 
ATOM     14  H3  <0> d          -0.924  -0.560   0.007  0.00  0.00     0.087 H 
ATOM     15  H4  <0> d           3.348   1.941  -0.021  0.00  0.00     0.085 H 
ATOM     16  H5  <0> d           2.068   4.090   0.003  0.00  0.00     0.112 H 
ATOM     17  H6  <0> d          -0.058   5.220   0.029  0.00  0.00     0.170 HD
ENDROOT
TORSDOF 0
