REMARK  2 active torsions:
REMARK  status: ('A' for Active; 'I' for Inactive)
REMARK    1  A    between atoms: C1_1  and  O1_2 
REMARK    2  A    between atoms: O1_2  and  C2_3 
ROOT
ATOM      1  C2  <0> d           3.004   2.367  -1.209  0.00  0.00     0.166 A 
ATOM      2  C3  <0> d           3.694   2.675  -0.044  0.00  0.00    -0.032 A 
ATOM      3  C4  <0> d           3.113   2.395   1.181  0.00  0.00    -0.075 A 
ATOM      4  C5  <0> d           1.853   1.818   1.200  0.00  0.00    -0.029 A 
ATOM      5  C6  <0> d           1.221   1.532  -0.001  0.00  0.00     0.202 A 
ATOM      6  N1  <0> d           1.804   1.812  -1.156  0.00  0.00    -0.198 NA
ATOM      7  O2  <0> d          -0.011   0.963   0.007  0.00  0.00    -0.170 OA
ATOM      8  H4  <0> d           4.673   3.129  -0.094  0.00  0.00     0.090 H 
ATOM      9  H5  <0> d           3.628   2.625   2.102  0.00  0.00     0.083 H 
ATOM     10  H6  <0> d           1.370   1.591   2.139  0.00  0.00     0.090 H 
ENDROOT
BRANCH   1  11
ATOM     11  O1  <0> d           3.566   2.638  -2.414  0.00  0.00    -0.339 OA
BRANCH  11  12
ATOM     12  C1  <0> d           2.806   2.298  -3.575  0.00  0.00     0.012 C 
ATOM     13  H1  <0> d           3.373   2.569  -4.477  0.00  0.00     0.067 H 
ATOM     14  H2  <0> d           1.853   2.847  -3.563  0.00  0.00     0.067 H 
ATOM     15  H3  <0> d           2.606   1.216  -3.578  0.00  0.00     0.067 H 
ENDBRANCH  11  12
ENDBRANCH   1  11
TORSDOF 2
