REMARK  2 active torsions:
REMARK  status: ('A' for Active; 'I' for Inactive)
REMARK    1  A    between atoms: C1_1  and  N1_2 
REMARK    2  A    between atoms: N1_2  and  C2_3 
ROOT
ATOM      1  C2  <0> d           1.531   5.230   0.016  0.00  0.00     0.702 A 
ATOM      2  N2  <0> d           2.143   4.007   0.004  0.00  0.00    -0.171 N 
ATOM      3  H1  <0> d           3.128   3.839  -0.006  0.00  0.00     0.186 HD
ATOM      4  C3  <0> d           1.153   3.051   0.007  0.00  0.00     0.175 A 
ATOM      5  C4  <0> d          -0.069   3.754   0.023  0.00  0.00     0.139 A 
ATOM      6  N3  <0> d           0.230   5.077   0.028  0.00  0.00    -0.060 NA
ATOM      7  C5  <0> d          -1.253   3.017   0.030  0.00  0.00     0.036 A 
ATOM      8  N4  <0> d          -1.177   1.696   0.017  0.00  0.00    -0.252 NA
ATOM      9  C6  <0> d          -0.013   1.076   0.008  0.00  0.00     0.088 A 
ATOM     10  N5  <0> d           1.133   1.727   0.001  0.00  0.00    -0.221 NA
ATOM     11  H6  <0> d          -2.212   3.515   0.042  0.00  0.00     0.118 H 
ATOM     12  H7  <0> d           0.002  -0.004   0.002  0.00  0.00     0.146 H 
ENDROOT
BRANCH   1  13
ATOM     13  N1  <0> d           2.186   6.443   0.017  0.00  0.00    -0.229 N 
ATOM     14  H5  <0> d           1.677   7.269   0.026  0.00  0.00     0.177 HD
BRANCH  13  15
ATOM     15  C1  <0> d           3.650   6.485   0.003  0.00  0.00    -0.005 C 
ATOM     16  H2  <0> d           4.037   5.977   0.887  0.00  0.00     0.057 H 
ATOM     17  H3  <0> d           4.020   5.987  -0.893  0.00  0.00     0.057 H 
ATOM     18  H4  <0> d           3.984   7.523   0.006  0.00  0.00     0.057 H 
ENDBRANCH  13  15
ENDBRANCH   1  13
TORSDOF 2
