REMARK  3 active torsions:
REMARK  status: ('A' for Active; 'I' for Inactive)
REMARK    1  A    between atoms: C3_3  and  C6_8 
REMARK    2  A    between atoms: C5_6  and  O1_7 
REMARK    3  A    between atoms: C6_8  and  O2_9 
ROOT
ATOM      1  C1  <0> d           1.852   1.835  -1.205  0.00  0.00    -0.048 A 
ATOM      2  C2  <0> d           3.110   2.415  -1.163  0.00  0.00    -0.054 A 
ATOM      3  C3  <0> d           3.694   2.672   0.063  0.00  0.00     0.057 A 
ATOM      4  N1  <0> d           3.070   2.374   1.186  0.00  0.00    -0.261 NA
ATOM      5  C4  <0> d           1.871   1.826   1.190  0.00  0.00     0.034 A 
ATOM      6  C5  <0> d           1.223   1.532  -0.001  0.00  0.00     0.083 A 
ATOM      7  H1  <0> d           1.372   1.623  -2.148  0.00  0.00     0.087 H 
ATOM      8  H2  <0> d           3.628   2.662  -2.077  0.00  0.00     0.086 H 
ATOM      9  H3  <0> d           1.389   1.600   2.130  0.00  0.00     0.119 H 
ENDROOT
BRANCH   3  10
ATOM     10  C6  <0> d           5.061   3.303   0.117  0.00  0.00     0.056 C 
ATOM     11  H5  <0> d           5.003   4.251   0.652  0.00  0.00     0.083 H 
ATOM     12  H6  <0> d           5.749   2.635   0.636  0.00  0.00     0.083 H 
BRANCH  10  13
ATOM     13  O2  <0> d           5.532   3.533  -1.212  0.00  0.00    -0.395 OA
ATOM     14  H7  <0> d           6.410   3.939  -1.253  0.00  0.00     0.209 HD
ENDBRANCH  10  13
ENDBRANCH   3  10
BRANCH   6  15
ATOM     15  O1  <0> d          -0.011   0.963   0.007  0.00  0.00    -0.359 OA
ATOM     16  H4  <0> d           0.002  -0.004   0.002  0.00  0.00     0.217 HD
ENDBRANCH   6  15
TORSDOF 3
