REMARK  6 active torsions:
REMARK  status: ('A' for Active; 'I' for Inactive)
REMARK    1  A    between atoms: C1_1  and  C2_2 
REMARK    2  A    between atoms: C2_2  and  C3_3 
REMARK    3  A    between atoms: C3_3  and  C4_5 
REMARK    4  A    between atoms: C3_3  and  C5_6 
REMARK    5  A    between atoms: C5_6  and  O2_8 
REMARK    6  A    between atoms: O2_8  and  C6_9 
ROOT
ATOM      1  C3  <0> d          -1.244  -2.135   0.003  0.00  0.00     0.026 C 
ATOM      2  H1  <0> d          -0.753  -2.514  -0.894  0.00  0.00     0.054 H 
ENDROOT
BRANCH   1   3
ATOM      3  C2  <0> d          -2.705  -2.589   0.014  0.00  0.00    -0.057 C 
ATOM      4  H5  <0> d          -3.172  -2.287   0.952  0.00  0.00     0.033 H 
ATOM      5  H6  <0> d          -3.235  -2.130  -0.820  0.00  0.00     0.033 H 
BRANCH   3   6
ATOM      6  C1  <0> d          -2.767  -4.112  -0.119  0.00  0.00    -0.076 C 
ATOM      7  H2  <0> d          -3.808  -4.435  -0.111  0.00  0.00     0.027 H 
ATOM      8  H3  <0> d          -2.300  -4.414  -1.057  0.00  0.00     0.027 H 
ATOM      9  H4  <0> d          -2.237  -4.572   0.715  0.00  0.00     0.027 H 
ENDBRANCH   3   6
ENDBRANCH   1   3
BRANCH   1  10
ATOM     10  C4  <0> d          -0.531  -2.680   1.242  0.00  0.00    -0.064 C 
ATOM     11  H7  <0> d          -1.022  -2.302   2.139  0.00  0.00     0.028 H 
ATOM     12  H8  <0> d          -0.573  -3.769   1.237  0.00  0.00     0.028 H 
ATOM     13  H9  <0> d           0.510  -2.357   1.234  0.00  0.00     0.028 H 
ENDBRANCH   1  10
BRANCH   1  14
ATOM     14  C5  <0> d          -1.185  -0.630   0.010  0.00  0.00     0.262 C 
ATOM     15  O1  <0> d          -2.208   0.015   0.023  0.00  0.00    -0.265 OA
BRANCH  14  16
ATOM     16  O2  <0> d           0.002  -0.004   0.002  0.00  0.00    -0.326 OA
BRANCH  16  17
ATOM     17  C6  <0> d          -0.018   1.448   0.010  0.00  0.00     0.013 C 
ATOM     18  H10 <0> d           1.005   1.825   0.002  0.00  0.00     0.067 H 
ATOM     19  H11 <0> d          -0.545   1.809  -0.873  0.00  0.00     0.067 H 
ATOM     20  H12 <0> d          -0.528   1.799   0.907  0.00  0.00     0.067 H 
ENDBRANCH  16  17
ENDBRANCH  14  16
ENDBRANCH   1  14
TORSDOF 6
