REMARK  0 active torsions:
REMARK  status: ('A' for Active; 'I' for Inactive)
ROOT
ATOM      1  C1  <0> d           3.346   3.247  -0.013  0.00  0.00    -0.065 A 
ATOM      2  C2  <0> d           2.529   2.130  -0.010  0.00  0.00    -0.066 A 
ATOM      3  C3  <0> d           1.150   2.326   0.004  0.00  0.00     0.032 A 
ATOM      4  C4  <0> d          -0.017   1.428   0.010  0.00  0.00     0.074 A 
ATOM      5  C5  <0> d          -1.119   2.229   0.019  0.00  0.00    -0.000 A 
ATOM      6  N1  <0> d          -0.738   3.533   0.027  0.00  0.00    -0.349 N 
ATOM      7  H1  <0> d          -1.348   4.287   0.037  0.00  0.00     0.167 HD
ATOM      8  C6  <0> d           0.635   3.634   0.015  0.00  0.00     0.139 A 
ATOM      9  N2  <0> d           1.465   4.669   0.013  0.00  0.00    -0.242 NA
ATOM     10  C7  <0> d           2.771   4.508  -0.001  0.00  0.00     0.004 A 
ATOM     11  C8  <0> d           0.002  -0.004   0.002  0.00  0.00     0.102 C 
ATOM     12  N3  <0> d           0.018  -1.140  -0.004  0.00  0.00    -0.191 NA
ATOM     13  H2  <0> d           4.420   3.137  -0.024  0.00  0.00     0.085 H 
ATOM     14  H3  <0> d           2.949   1.135  -0.020  0.00  0.00     0.085 H 
ATOM     15  H4  <0> d          -2.142   1.881   0.021  0.00  0.00     0.113 H 
ATOM     16  H5  <0> d           3.410   5.378  -0.002  0.00  0.00     0.114 H 
ENDROOT
TORSDOF 0
