REMARK  5 active torsions:
REMARK  status: ('A' for Active; 'I' for Inactive)
REMARK    1  A    between atoms: C1_1  and  C2_2 
REMARK    2  A    between atoms: C2_2  and  O1_3 
REMARK    3  A    between atoms: O1_3  and  C3_4 
REMARK    4  A    between atoms: C3_4  and  C4_6 
REMARK    5  A    between atoms: C4_6  and  C5_7 
ROOT
ATOM      1  C4  <0> d           1.468  -2.353  -2.550  0.00  0.00     0.057 C 
ATOM      2  H7  <0> d           0.950  -2.020  -3.449  0.00  0.00     0.057 H 
ATOM      3  H8  <0> d           2.500  -2.003  -2.574  0.00  0.00     0.057 H 
ENDROOT
BRANCH   1   4
ATOM      4  C3  <0> d           0.775  -1.794  -1.334  0.00  0.00     0.264 C 
ATOM      5  O2  <0> d           0.314  -2.540  -0.504  0.00  0.00    -0.265 OA
BRANCH   4   6
ATOM      6  O1  <0> d           0.671  -0.465  -1.174  0.00  0.00    -0.322 OA
BRANCH   6   7
ATOM      7  C2  <0> d           0.002  -0.004   0.002  0.00  0.00     0.025 C 
ATOM      8  H5  <0> d           0.529  -0.365   0.885  0.00  0.00     0.074 H 
ATOM      9  H6  <0> d          -1.020  -0.381   0.010  0.00  0.00     0.074 H 
BRANCH   7  10
ATOM     10  C1  <0> d          -0.019   1.526   0.010  0.00  0.00    -0.056 C 
ATOM     11  H2  <0> d           1.004   1.903   0.003  0.00  0.00     0.030 H 
ATOM     12  H3  <0> d          -0.546   1.887  -0.873  0.00  0.00     0.030 H 
ATOM     13  H4  <0> d          -0.529   1.877   0.907  0.00  0.00     0.030 H 
ENDBRANCH   7  10
ENDBRANCH   6   7
ENDBRANCH   4   6
ENDBRANCH   1   4
BRANCH   1  14
ATOM     14  C5  <0> d           1.450  -3.859  -2.489  0.00  0.00     0.065 A 
ATOM     15  N2  <0> d           1.898  -4.593  -1.503  0.00  0.00    -0.179 NA
ATOM     16  N1  <0> d           1.695  -5.939  -1.832  0.00  0.00    -0.289 N 
ATOM     17  C7  <0> d           1.119  -5.987  -3.052  0.00  0.00    -0.002 A 
ATOM     18  H1  <0> d           1.931  -6.703  -1.283  0.00  0.00     0.188 HD
ATOM     19  C6  <0> d           0.956  -4.714  -3.481  0.00  0.00    -0.041 A 
ATOM     20  H10 <0> d           0.838  -6.880  -3.589  0.00  0.00     0.113 H 
ATOM     21  H9  <0> d           0.521  -4.411  -4.422  0.00  0.00     0.088 H 
ENDBRANCH   1  14
TORSDOF 5
