REMARK  4 active torsions:
REMARK  status: ('A' for Active; 'I' for Inactive)
REMARK    1  A    between atoms: C1_1  and  C2_2 
REMARK    2  A    between atoms: C5_5  and  N1_9 
REMARK    3  A    between atoms: C6_6  and  C8_8 
REMARK    4  A    between atoms: N1_9  and  C9_10 
ROOT
ATOM      1  C2  <0> d           2.396   0.031  -0.021  0.00  0.00    -0.061 A 
ATOM      2  C3  <0> d           1.208  -0.676  -0.013  0.00  0.00    -0.075 A 
ATOM      3  C4  <0> d           0.002  -0.004   0.002  0.00  0.00    -0.057 A 
ATOM      4  C5  <0> d          -0.017   1.385   0.010  0.00  0.00     0.033 A 
ATOM      5  C6  <0> d           1.178   2.093   0.002  0.00  0.00    -0.035 A 
ATOM      6  C7  <0> d           2.381   1.414  -0.013  0.00  0.00    -0.069 A 
ATOM      7  H4  <0> d           1.223  -1.756  -0.019  0.00  0.00     0.084 H 
ATOM      8  H5  <0> d          -0.925  -0.557   0.007  0.00  0.00     0.086 H 
ATOM      9  H6  <0> d           3.311   1.963  -0.019  0.00  0.00     0.085 H 
ENDROOT
BRANCH   4  10
ATOM     10  N1  <0> d          -1.235   2.069   0.019  0.00  0.00    -0.394 N 
ATOM     11  H10 <0> d          -1.248   3.168   0.025  0.00  0.00     0.159 HD
BRANCH  10  12
ATOM     12  C9  <0> d          -2.494   1.321   0.021  0.00  0.00    -0.021 C 
ATOM     13  H11 <0> d          -3.339   2.025   0.029  0.00  0.00     0.056 H 
ATOM     14  H12 <0> d          -2.541   0.682   0.916  0.00  0.00     0.056 H 
ATOM     15  H13 <0> d          -2.549   0.692  -0.880  0.00  0.00     0.056 H 
ENDBRANCH  10  12
ENDBRANCH   4  10
BRANCH   5  16
ATOM     16  C8  <0> d           1.163   3.600   0.010  0.00  0.00    -0.049 C 
ATOM     17  H7  <0> d           2.196   3.977   0.002  0.00  0.00     0.033 H 
ATOM     18  H8  <0> d           0.649   3.956   0.915  0.00  0.00     0.033 H 
ATOM     19  H9  <0> d           0.632   3.966  -0.881  0.00  0.00     0.033 H 
ENDBRANCH   5  16
BRANCH   1  20
ATOM     20  C1  <0> d           3.710  -0.706  -0.038  0.00  0.00    -0.051 C 
ATOM     21  H1  <0> d           3.523  -1.790  -0.042  0.00  0.00     0.033 H 
ATOM     22  H2  <0> d           4.293  -0.438   0.856  0.00  0.00     0.033 H 
ATOM     23  H3  <0> d           4.275  -0.428  -0.940  0.00  0.00     0.033 H 
ENDBRANCH   1  20
TORSDOF 4
