REMARK  2 active torsions:
REMARK  status: ('A' for Active; 'I' for Inactive)
REMARK    1  A    between atoms: C1_1  and  C2_2 
REMARK    2  A    between atoms: C9_9  and  N2_12 
ROOT
ATOM      1  C2  <0> d           0.002  -0.004   0.002  0.00  0.00     0.031 A 
ATOM      2  C3  <0> d           0.005  -0.676  -1.219  0.00  0.00    -0.059 A 
ATOM      3  C4  <0> d           0.024  -2.041  -1.245  0.00  0.00    -0.069 A 
ATOM      4  C5  <0> d           0.040  -2.729  -0.016  0.00  0.00    -0.005 A 
ATOM      5  C6  <0> d           0.060  -4.133   0.034  0.00  0.00    -0.071 A 
ATOM      6  C7  <0> d           0.076  -4.769   1.237  0.00  0.00    -0.080 A 
ATOM      7  C8  <0> d           0.071  -4.049   2.429  0.00  0.00    -0.055 A 
ATOM      8  C9  <0> d           0.051  -2.672   2.421  0.00  0.00     0.055 A 
ATOM      9  C10 <0> d           0.035  -1.983   1.187  0.00  0.00     0.093 A 
ATOM     10  N1  <0> d           0.022  -0.648   1.143  0.00  0.00    -0.251 NA
ATOM     11  H4  <0> d          -0.007  -0.118  -2.143  0.00  0.00     0.086 H 
ATOM     12  H5  <0> d           0.027  -2.578  -2.182  0.00  0.00     0.085 H 
ATOM     13  H6  <0> d           0.064  -4.706  -0.881  0.00  0.00     0.084 H 
ATOM     14  H7  <0> d           0.091  -5.849   1.268  0.00  0.00     0.083 H 
ATOM     15  H8  <0> d           0.083  -4.577   3.371  0.00  0.00     0.087 H 
ENDROOT
BRANCH   1  16
ATOM     16  C1  <0> d          -0.018   1.503   0.010  0.00  0.00    -0.035 C 
ATOM     17  H1  <0> d           1.004   1.880   0.003  0.00  0.00     0.035 H 
ATOM     18  H2  <0> d          -0.545   1.864  -0.873  0.00  0.00     0.035 H 
ATOM     19  H3  <0> d          -0.529   1.854   0.907  0.00  0.00     0.035 H 
ENDBRANCH   1  16
BRANCH   8  20
ATOM     20  N2  <0> d           0.045  -1.962   3.621  0.00  0.00    -0.397 N 
ATOM     21  H9  <0> d           0.056  -2.439   4.466  0.00  0.00     0.156 HD
ATOM     22  H10 <0> d           0.031  -0.993   3.611  0.00  0.00     0.156 HD
ENDBRANCH   8  20
TORSDOF 2
