REMARK  3 active torsions:
REMARK  status: ('A' for Active; 'I' for Inactive)
REMARK    1  A    between atoms: C4_4  and  O1_7 
REMARK    2  A    between atoms: O1_7  and  C7_8 
REMARK    3  A    between atoms: C7_8  and  C8_9 
ROOT
ATOM      1  C8  <0> d          -0.753   1.593  -1.232  0.00  0.00     0.034 C 
ATOM      2  C9  <0> d          -0.064   1.118  -2.443  0.00  0.00     0.061 C 
ATOM      3  N1  <0> d           0.468   0.752  -3.377  0.00  0.00    -0.197 NA
ATOM      4  H14 <0> d          -1.775   1.215  -1.224  0.00  0.00     0.058 H 
ATOM      5  H15 <0> d          -0.767   2.683  -1.226  0.00  0.00     0.058 H 
ENDROOT
BRANCH   1   6
ATOM      6  C7  <0> d          -0.013   1.086   0.008  0.00  0.00     0.031 C 
ATOM      7  H12 <0> d           0.002  -0.004   0.002  0.00  0.00     0.075 H 
ATOM      8  H13 <0> d           1.010   1.463   0.000  0.00  0.00     0.075 H 
BRANCH   6   9
ATOM      9  O1  <0> d          -0.682   1.547   1.184  0.00  0.00    -0.385 OA
BRANCH   9  10
ATOM     10  C4  <0> d          -0.068   1.127   2.404  0.00  0.00     0.038 C 
ATOM     11  C3  <0> d          -0.319   2.176   3.489  0.00  0.00    -0.041 C 
ATOM     12  C2  <0> d           0.338   1.726   4.795  0.00  0.00    -0.063 C 
ATOM     13  H5  <0> d           0.106   3.130   3.178  0.00  0.00     0.036 H 
ATOM     14  H6  <0> d          -1.393   2.290   3.642  0.00  0.00     0.036 H 
ATOM     15  C1  <0> d          -0.260   0.387   5.232  0.00  0.00    -0.065 C 
ATOM     16  H3  <0> d           1.411   1.612   4.642  0.00  0.00     0.033 H 
ATOM     17  H4  <0> d           0.158   2.473   5.568  0.00  0.00     0.033 H 
ATOM     18  C6  <0> d          -0.009  -0.662   4.147  0.00  0.00    -0.063 C 
ATOM     19  H1  <0> d           0.208   0.067   6.163  0.00  0.00     0.033 H 
ATOM     20  H2  <0> d          -1.333   0.501   5.386  0.00  0.00     0.033 H 
ATOM     21  C5  <0> d          -0.666  -0.212   2.841  0.00  0.00    -0.041 C 
ATOM     22  H10 <0> d           1.065  -0.776   3.994  0.00  0.00     0.033 H 
ATOM     23  H11 <0> d          -0.434  -1.616   4.459  0.00  0.00     0.033 H 
ATOM     24  H8  <0> d          -1.739  -0.098   2.994  0.00  0.00     0.036 H 
ATOM     25  H9  <0> d          -0.486  -0.960   2.068  0.00  0.00     0.036 H 
ATOM     26  H7  <0> d           1.005   1.013   2.251  0.00  0.00     0.083 H 
ENDBRANCH   9  10
ENDBRANCH   6   9
ENDBRANCH   1   6
TORSDOF 3
