REMARK  3 active torsions:
REMARK  status: ('A' for Active; 'I' for Inactive)
REMARK    1  A    between atoms: C1_1  and  C2_2 
REMARK    2  A    between atoms: C2_2  and  C8_9 
REMARK    3  A    between atoms: C5_5  and  O1_8 
ROOT
ATOM      1  C2  <0> d          -0.729   1.579   1.267  0.00  0.00    -0.048 C 
ATOM      2  C3  <0> d          -0.013   1.086   0.008  0.00  0.00    -0.057 C 
ATOM      3  C4  <0> d          -0.753   1.593  -1.232  0.00  0.00    -0.040 C 
ATOM      4  C5  <0> d          -0.773   3.123  -1.223  0.00  0.00     0.035 C 
ATOM      5  C6  <0> d          -1.490   3.616   0.036  0.00  0.00    -0.040 C 
ATOM      6  C7  <0> d          -0.750   3.109   1.275  0.00  0.00    -0.057 C 
ATOM      7  H4  <0> d           0.002  -0.004   0.002  0.00  0.00     0.034 H 
ATOM      8  H5  <0> d           1.010   1.463   0.000  0.00  0.00     0.034 H 
ATOM      9  H6  <0> d          -0.242   1.241  -2.128  0.00  0.00     0.036 H 
ATOM     10  H7  <0> d          -1.775   1.215  -1.224  0.00  0.00     0.036 H 
ATOM     11  H8  <0> d           0.249   3.500  -1.231  0.00  0.00     0.082 H 
ATOM     12  H9  <0> d          -1.504   4.706   0.042  0.00  0.00     0.036 H 
ATOM     13  H10 <0> d          -2.512   3.239   0.043  0.00  0.00     0.036 H 
ATOM     14  H11 <0> d           0.273   3.486   1.268  0.00  0.00     0.034 H 
ATOM     15  H12 <0> d          -1.260   3.461   2.172  0.00  0.00     0.034 H 
ENDROOT
BRANCH   1  16
ATOM     16  C1  <0> d          -2.164   1.050   1.278  0.00  0.00    -0.069 C 
ATOM     17  H1  <0> d          -2.149  -0.040   1.272  0.00  0.00     0.028 H 
ATOM     18  H2  <0> d          -2.674   1.401   2.175  0.00  0.00     0.028 H 
ATOM     19  H3  <0> d          -2.691   1.411   0.395  0.00  0.00     0.028 H 
ENDBRANCH   1  16
BRANCH   1  20
ATOM     20  C8  <0> d           0.011   1.072   2.506  0.00  0.00    -0.069 C 
ATOM     21  H14 <0> d           1.034   1.450   2.499  0.00  0.00     0.028 H 
ATOM     22  H15 <0> d          -0.499   1.424   3.403  0.00  0.00     0.028 H 
ATOM     23  H16 <0> d           0.026  -0.018   2.500  0.00  0.00     0.028 H 
ENDBRANCH   1  20
BRANCH   4  24
ATOM     24  O1  <0> d          -1.465   3.596  -2.381  0.00  0.00    -0.396 OA
ATOM     25  H13 <0> d          -1.516   4.560  -2.441  0.00  0.00     0.210 HD
ENDBRANCH   4  24
TORSDOF 3
