REMARK  7 active torsions:
REMARK  status: ('A' for Active; 'I' for Inactive)
REMARK    1  A    between atoms: C1_1  and  C2_2 
REMARK    2  A    between atoms: C2_2  and  O1_3 
REMARK    3  A    between atoms: O1_3  and  C3_4 
REMARK    4  A    between atoms: C3_4  and  C4_6 
REMARK    5  A    between atoms: C4_6  and  C5_8 
REMARK    6  A    between atoms: C4_6  and  O3_9 
REMARK    7  A    between atoms: O3_9  and  C6_10 
ROOT
ATOM      1  C4  <0> d          -0.013   1.086   0.008  0.00  0.00     0.118 C 
ATOM      2  H1  <0> d           0.002  -0.004   0.002  0.00  0.00     0.098 H 
ENDROOT
BRANCH   1   3
ATOM      3  C3  <0> d           1.401   1.607  -0.003  0.00  0.00     0.287 C 
ATOM      4  O2  <0> d           1.752   2.384  -0.859  0.00  0.00    -0.262 OA
BRANCH   3   5
ATOM      5  O1  <0> d           2.271   1.209   0.939  0.00  0.00    -0.320 OA
BRANCH   5   6
ATOM      6  C2  <0> d           3.615   1.752   0.867  0.00  0.00     0.026 C 
ATOM      7  H5  <0> d           4.068   1.476  -0.085  0.00  0.00     0.074 H 
ATOM      8  H6  <0> d           3.573   2.838   0.948  0.00  0.00     0.074 H 
BRANCH   6   9
ATOM      9  C1  <0> d           4.456   1.188   2.014  0.00  0.00    -0.056 C 
ATOM     10  H2  <0> d           5.465   1.595   1.960  0.00  0.00     0.030 H 
ATOM     11  H3  <0> d           4.003   1.464   2.966  0.00  0.00     0.030 H 
ATOM     12  H4  <0> d           4.498   0.101   1.933  0.00  0.00     0.030 H 
ENDBRANCH   6   9
ENDBRANCH   5   6
ENDBRANCH   3   5
ENDBRANCH   1   3
BRANCH   1  13
ATOM     13  C5  <0> d          -0.729   1.579   1.267  0.00  0.00    -0.043 C 
ATOM     14  H7  <0> d          -1.751   1.202   1.275  0.00  0.00     0.031 H 
ATOM     15  H8  <0> d          -0.202   1.218   2.150  0.00  0.00     0.031 H 
ATOM     16  H9  <0> d          -0.744   2.669   1.273  0.00  0.00     0.031 H 
ENDBRANCH   1  13
BRANCH   1  17
ATOM     17  O3  <0> d          -0.704   1.559  -1.150  0.00  0.00    -0.381 OA
BRANCH  17  18
ATOM     18  C6  <0> d          -1.724   0.676  -1.619  0.00  0.00     0.005 C 
ATOM     19  H10 <0> d          -1.281  -0.285  -1.880  0.00  0.00     0.066 H 
ATOM     20  H11 <0> d          -2.469   0.532  -0.837  0.00  0.00     0.066 H 
ATOM     21  H12 <0> d          -2.201   1.107  -2.500  0.00  0.00     0.066 H 
ENDBRANCH  17  18
ENDBRANCH   1  17
TORSDOF 7
