REMARK  0 active torsions:
REMARK  status: ('A' for Active; 'I' for Inactive)
ROOT
ATOM      1  C1  <0> d           0.605   3.572  -3.542  0.00  0.00    -0.082 A 
ATOM      2  C2  <0> d          -0.654   3.002  -3.533  0.00  0.00    -0.082 A 
ATOM      3  C3  <0> d          -1.066   2.258  -2.446  0.00  0.00    -0.075 A 
ATOM      4  C4  <0> d          -0.225   2.079  -1.362  0.00  0.00    -0.034 A 
ATOM      5  C5  <0> d           1.041   2.653  -1.371  0.00  0.00    -0.049 A 
ATOM      6  C6  <0> d           1.449   3.397  -2.463  0.00  0.00    -0.076 A 
ATOM      7  C7  <0> d           1.381   2.101   0.000  0.00  0.00    -0.021 A 
ATOM      8  C8  <0> d          -0.018   1.468   0.010  0.00  0.00     0.060 A 
ATOM      9  H1  <0> d          -0.677   1.878   0.776  0.00  0.00     0.070 H 
ATOM     10  C9  <0> d           0.002  -0.004   0.002  0.00  0.00     0.069 C 
ATOM     11  N1  <0> d           0.018  -1.140  -0.004  0.00  0.00    -0.197 NA
ATOM     12  H2  <0> d           0.929   4.154  -4.393  0.00  0.00     0.083 H 
ATOM     13  H3  <0> d          -1.315   3.138  -4.377  0.00  0.00     0.083 H 
ATOM     14  H4  <0> d          -2.050   1.813  -2.441  0.00  0.00     0.084 H 
ATOM     15  H5  <0> d           2.433   3.843  -2.472  0.00  0.00     0.084 H 
ATOM     16  H6  <0> d           1.516   2.872   0.759  0.00  0.00     0.042 H 
ATOM     17  H7  <0> d           2.190   1.371  -0.011  0.00  0.00     0.042 H 
ENDROOT
TORSDOF 0
