REMARK  2 active torsions:
REMARK  status: ('A' for Active; 'I' for Inactive)
REMARK    1  A    between atoms: C1_1  and  C2_2 
REMARK    2  A    between atoms: C2_2  and  C3_4 
ROOT
ATOM      1  C3  <0> d           2.406   0.030  -0.020  0.00  0.00     0.051 A 
ATOM      2  C4  <0> d           1.201  -0.682  -0.013  0.00  0.00    -0.066 A 
ATOM      3  C5  <0> d           0.002  -0.004   0.002  0.00  0.00    -0.079 A 
ATOM      4  C6  <0> d          -0.017   1.381   0.010  0.00  0.00    -0.043 A 
ATOM      5  C7  <0> d           1.168   2.097   0.002  0.00  0.00     0.155 A 
ATOM      6  C8  <0> d           2.382   1.431  -0.013  0.00  0.00     0.168 A 
ATOM      7  F1  <0> d           3.538   2.129  -0.020  0.00  0.00    -0.202 F 
ATOM      8  F2  <0> d           1.139   3.448   0.010  0.00  0.00    -0.203 F 
ATOM      9  H4  <0> d           1.211  -1.762  -0.018  0.00  0.00     0.085 H 
ATOM     10  H5  <0> d          -0.927  -0.554   0.008  0.00  0.00     0.083 H 
ATOM     11  H6  <0> d          -0.961   1.905   0.017  0.00  0.00     0.088 H 
ENDROOT
BRANCH   1  12
ATOM     12  C2  <0> d           3.689  -0.687  -0.036  0.00  0.00     0.158 C 
ATOM     13  O1  <0> d           4.730  -0.066  -0.043  0.00  0.00    -0.293 OA
BRANCH  12  14
ATOM     14  C1  <0> d           3.709  -2.194  -0.045  0.00  0.00    -0.016 C 
ATOM     15  H1  <0> d           2.771  -2.540  -0.038  0.00  0.00     0.038 H 
ATOM     16  H2  <0> d           4.220  -2.545  -0.941  0.00  0.00     0.038 H 
ATOM     17  H3  <0> d           4.237  -2.555   0.839  0.00  0.00     0.038 H 
ENDBRANCH  12  14
ENDBRANCH   1  12
TORSDOF 2
