REMARK  4 active torsions:
REMARK  status: ('A' for Active; 'I' for Inactive)
REMARK    1  A    between atoms: C1_1  and  C2_2 
REMARK    2  A    between atoms: C3_3  and  C7_11 
REMARK    3  A    between atoms: C4_5  and  N2_10 
REMARK    4  A    between atoms: C5_6  and  C6_7 
REMARK       I    between atoms: C6_7  and  N1_9 
ROOT
ATOM      1  C2  <0> d          -2.834   3.234   0.033  0.00  0.00    -0.013 A 
ATOM      2  C3  <0> d          -3.392   2.017   0.029  0.00  0.00     0.058 A 
ATOM      3  O1  <0> d          -2.429   1.078   0.020  0.00  0.00    -0.297 OA
ATOM      4  C4  <0> d          -1.213   1.638   0.017  0.00  0.00     0.158 A 
ATOM      5  C5  <0> d          -1.378   3.016   0.030  0.00  0.00     0.090 A 
ENDROOT
BRANCH   5   6
ATOM      6  C6  <0> d          -0.327   4.037   0.038  0.00  0.00     0.254 C 
ATOM      7  O2  <0> d           0.107   4.472  -1.013  0.00  0.00    -0.268 OA
ATOM      8  N1  <0> d           0.160   4.495   1.209  0.00  0.00    -0.366 N 
ATOM      9  H4  <0> d          -0.186   4.149   2.046  0.00  0.00     0.159 HD
ATOM     10  H5  <0> d           0.856   5.171   1.214  0.00  0.00     0.159 HD
ENDBRANCH   5   6
BRANCH   1  11
ATOM     11  C1  <0> d          -3.552   4.559   0.043  0.00  0.00    -0.048 C 
ATOM     12  H1  <0> d          -3.720   4.874   1.073  0.00  0.00     0.033 H 
ATOM     13  H2  <0> d          -2.945   5.305  -0.471  0.00  0.00     0.033 H 
ATOM     14  H3  <0> d          -4.510   4.457  -0.467  0.00  0.00     0.033 H 
ENDBRANCH   1  11
BRANCH   4  15
ATOM     15  N2  <0> d          -0.011   0.966   0.007  0.00  0.00    -0.379 N 
ATOM     16  H6  <0> d           0.002  -0.004   0.002  0.00  0.00     0.158 HD
ATOM     17  H7  <0> d           0.822   1.462   0.002  0.00  0.00     0.158 HD
ENDBRANCH   4  15
BRANCH   2  18
ATOM     18  C7  <0> d          -4.874   1.741   0.035  0.00  0.00    -0.031 C 
ATOM     19  H8  <0> d          -5.043   0.664   0.030  0.00  0.00     0.036 H 
ATOM     20  H9  <0> d          -5.321   2.175   0.929  0.00  0.00     0.036 H 
ATOM     21  H10 <0> d          -5.329   2.184  -0.851  0.00  0.00     0.036 H 
ENDBRANCH   2  18
TORSDOF 4
