REMARK  2 active torsions:
REMARK  status: ('A' for Active; 'I' for Inactive)
REMARK    1  A    between atoms: C3_3  and  C5_7 
REMARK    2  A    between atoms: C5_7  and  O2_8 
ROOT
ATOM      1  C1  <0> d          -0.788   1.610   1.241  0.00  0.00    -0.043 C 
ATOM      2  C2  <0> d          -0.013   1.086   0.008  0.00  0.00    -0.037 C 
ATOM      3  C3  <0> d          -0.808   1.621  -1.198  0.00  0.00     0.059 C 
ATOM      4  H1  <0> d          -0.185   2.299  -1.782  0.00  0.00     0.086 H 
ATOM      5  O1  <0> d          -1.946   2.329  -0.680  0.00  0.00    -0.384 OA
ATOM      6  C4  <0> d          -1.587   2.797   0.638  0.00  0.00     0.020 C 
ATOM      7  H2  <0> d          -1.462   0.847   1.631  0.00  0.00     0.036 H 
ATOM      8  H3  <0> d          -0.102   1.954   2.015  0.00  0.00     0.036 H 
ATOM      9  H4  <0> d           0.002  -0.004   0.002  0.00  0.00     0.036 H 
ATOM     10  H5  <0> d           1.003   1.480   0.000  0.00  0.00     0.036 H 
ATOM     11  H6  <0> d          -0.959   3.686   0.572  0.00  0.00     0.074 H 
ATOM     12  H7  <0> d          -2.480   3.002   1.229  0.00  0.00     0.074 H 
ENDROOT
BRANCH   3  13
ATOM     13  C5  <0> d          -1.275   0.455  -2.073  0.00  0.00     0.041 C 
ATOM     14  H8  <0> d          -0.415  -0.151  -2.358  0.00  0.00     0.077 H 
ATOM     15  H9  <0> d          -1.982  -0.157  -1.514  0.00  0.00     0.077 H 
BRANCH  13  16
ATOM     16  O2  <0> d          -1.909   0.965  -3.247  0.00  0.00    -0.398 OA
ATOM     17  H10 <0> d          -2.231   0.280  -3.849  0.00  0.00     0.209 HD
ENDBRANCH  13  16
ENDBRANCH   3  13
TORSDOF 2
