REMARK  2 active torsions:
REMARK  status: ('A' for Active; 'I' for Inactive)
REMARK    1  A    between atoms: C8_10  and  O1_11 
REMARK    2  A    between atoms: C8_10  and  O2_12 
ROOT
ATOM      1  C1  <0> d           0.002  -0.004   0.002  0.00  0.00    -0.061 C 
ATOM      2  C2  <0> d           0.100  -0.441   1.475  0.00  0.00    -0.057 C 
ATOM      3  C3  <0> d           0.135   0.859   2.310  0.00  0.00     0.000 C 
ATOM      4  H1  <0> d          -0.340   0.745   3.285  0.00  0.00     0.048 H 
ATOM      5  C4  <0> d          -0.592   1.892   1.409  0.00  0.00    -0.053 C 
ATOM      6  C5  <0> d          -0.019   1.542   0.011  0.00  0.00    -0.053 C 
ATOM      7  H2  <0> d          -0.602   1.958  -0.811  0.00  0.00     0.040 H 
ATOM      8  C6  <0> d           1.443   2.022  -0.001  0.00  0.00    -0.057 C 
ATOM      9  C7  <0> d           2.260   1.192   1.039  0.00  0.00    -0.012 C 
ATOM     10  C8  <0> d           1.605   1.299   2.418  0.00  0.00     0.162 C 
ATOM     11  H3  <0> d          -0.916  -0.389  -0.442  0.00  0.00     0.033 H 
ATOM     12  H4  <0> d           0.868  -0.364  -0.554  0.00  0.00     0.033 H 
ATOM     13  H5  <0> d          -0.770  -1.039   1.747  0.00  0.00     0.033 H 
ATOM     14  H6  <0> d           1.013  -1.015   1.635  0.00  0.00     0.033 H 
ATOM     15  H7  <0> d          -0.331   2.912   1.694  0.00  0.00     0.034 H 
ATOM     16  H8  <0> d          -1.672   1.745   1.437  0.00  0.00     0.034 H 
ATOM     17  H9  <0> d           1.866   1.881  -0.996  0.00  0.00     0.033 H 
ATOM     18  H10 <0> d           1.482   3.079   0.266  0.00  0.00     0.033 H 
ATOM     19  H11 <0> d           3.282   1.567   1.095  0.00  0.00     0.041 H 
ATOM     20  H12 <0> d           2.275   0.148   0.727  0.00  0.00     0.041 H 
ENDROOT
BRANCH  10  21
ATOM     21  O1  <0> d           1.667   2.652   2.873  0.00  0.00    -0.365 OA
ATOM     22  H13 <0> d           2.567   2.996   2.965  0.00  0.00     0.213 HD
ENDBRANCH  10  21
BRANCH  10  23
ATOM     23  O2  <0> d           2.292   0.450   3.340  0.00  0.00    -0.365 OA
ATOM     24  H14 <0> d           3.226   0.671   3.457  0.00  0.00     0.213 HD
ENDBRANCH  10  23
TORSDOF 2
