REMARK  3 active torsions:
REMARK  status: ('A' for Active; 'I' for Inactive)
REMARK    1  A    between atoms: C1_1  and  C2_2 
REMARK    2  A    between atoms: C5_5  and  S1_7 
REMARK    3  A    between atoms: S1_7  and  C6_8 
ROOT
ATOM      1  C2  <0> d           1.293  -0.378  -0.012  0.00  0.00     0.050 A 
ATOM      2  C3  <0> d           0.002  -0.004   0.002  0.00  0.00    -0.051 A 
ATOM      3  C4  <0> d          -0.017   1.410   0.010  0.00  0.00    -0.041 A 
ATOM      4  C5  <0> d           1.274   1.818  -0.000  0.00  0.00     0.112 A 
ATOM      5  O1  <0> d           2.061   0.728  -0.014  0.00  0.00    -0.309 OA
ATOM      6  H4  <0> d          -0.857  -0.659   0.006  0.00  0.00     0.087 H 
ATOM      7  H5  <0> d          -0.893   2.042   0.018  0.00  0.00     0.088 H 
ENDROOT
BRANCH   4   8
ATOM      8  S1  <0> d           1.828   3.491   0.003  0.00  0.00    -0.109 SA
BRANCH   8   9
ATOM      9  C6  <0> d           3.637   3.354  -0.015  0.00  0.00    -0.028 C 
ATOM     10  H6  <0> d           3.969   2.810   0.869  0.00  0.00     0.042 H 
ATOM     11  H7  <0> d           3.952   2.820  -0.911  0.00  0.00     0.042 H 
ATOM     12  H8  <0> d           4.076   4.352  -0.013  0.00  0.00     0.042 H 
ENDBRANCH   8   9
ENDBRANCH   4   8
BRANCH   1  13
ATOM     13  C1  <0> d           1.798  -1.798  -0.024  0.00  0.00    -0.031 C 
ATOM     14  H1  <0> d           1.909  -2.136  -1.054  0.00  0.00     0.036 H 
ATOM     15  H2  <0> d           2.763  -1.845   0.480  0.00  0.00     0.036 H 
ATOM     16  H3  <0> d           1.086  -2.441   0.494  0.00  0.00     0.036 H 
ENDBRANCH   1  13
TORSDOF 3
