REMARK  3 active torsions:
REMARK  status: ('A' for Active; 'I' for Inactive)
REMARK    1  A    between atoms: C1_1  and  C2_2 
REMARK    2  A    between atoms: C6_7  and  C7_8 
REMARK    3  A    between atoms: C7_8  and  O1_9 
ROOT
ATOM      1  C2  <0> d          -0.018   1.503   0.010  0.00  0.00    -0.036 A 
ATOM      2  C3  <0> d           1.164   2.219   0.003  0.00  0.00     0.008 A 
ATOM      3  N1  <0> d           1.154   3.537   0.011  0.00  0.00    -0.273 NA
ATOM      4  C4  <0> d           0.027   4.222   0.025  0.00  0.00     0.002 A 
ATOM      5  C5  <0> d          -1.194   3.575   0.032  0.00  0.00    -0.057 A 
ATOM      6  C6  <0> d          -1.223   2.188   0.020  0.00  0.00    -0.026 A 
ATOM      7  H4  <0> d           2.107   1.692  -0.009  0.00  0.00     0.115 H 
ATOM      8  H5  <0> d           0.059   5.302   0.031  0.00  0.00     0.114 H 
ATOM      9  H6  <0> d          -2.113   4.141   0.044  0.00  0.00     0.086 H 
ENDROOT
BRANCH   6  10
ATOM     10  C7  <0> d          -2.534   1.445   0.022  0.00  0.00     0.041 C 
ATOM     11  H7  <0> d          -2.601   0.823  -0.871  0.00  0.00     0.081 H 
ATOM     12  H8  <0> d          -2.592   0.814   0.909  0.00  0.00     0.081 H 
BRANCH  10  13
ATOM     13  O1  <0> d          -3.613   2.381   0.032  0.00  0.00    -0.396 OA
ATOM     14  H9  <0> d          -4.489   1.972   0.034  0.00  0.00     0.209 HD
ENDBRANCH  10  13
ENDBRANCH   6  10
BRANCH   1  15
ATOM     15  C1  <0> d           0.002  -0.004   0.002  0.00  0.00    -0.049 C 
ATOM     16  H1  <0> d           0.017  -0.373   1.028  0.00  0.00     0.033 H 
ATOM     17  H2  <0> d          -0.888  -0.377  -0.505  0.00  0.00     0.033 H 
ATOM     18  H3  <0> d           0.892  -0.352  -0.522  0.00  0.00     0.033 H 
ENDBRANCH   1  15
TORSDOF 3
