REMARK  0 active torsions:
REMARK  status: ('A' for Active; 'I' for Inactive)
ROOT
ATOM      1  C1  <0> d          -0.017   1.393   0.010  0.00  0.00    -0.082 A 
ATOM      2  C2  <0> d           1.126   2.138   0.003  0.00  0.00    -0.072 A 
ATOM      3  C3  <0> d           2.366   1.477  -0.012  0.00  0.00    -0.025 A 
ATOM      4  C4  <0> d           3.610   2.128  -0.019  0.00  0.00    -0.072 A 
ATOM      5  C5  <0> d           4.747   1.373  -0.034  0.00  0.00    -0.082 A 
ATOM      6  C6  <0> d           4.717  -0.024  -0.042  0.00  0.00    -0.076 A 
ATOM      7  C7  <0> d           3.527  -0.686  -0.036  0.00  0.00    -0.046 A 
ATOM      8  C8  <0> d           2.360   0.071  -0.020  0.00  0.00    -0.013 A 
ATOM      9  C9  <0> d           1.186  -0.676  -0.013  0.00  0.00    -0.046 A 
ATOM     10  C10 <0> d           0.002  -0.004   0.002  0.00  0.00    -0.076 A 
ATOM     11  C11 <0> d           1.578  -2.133  -0.025  0.00  0.00    -0.036 A 
ATOM     12  C12 <0> d           3.123  -2.140  -0.040  0.00  0.00    -0.036 A 
ATOM     13  H1  <0> d          -0.970   1.901   0.026  0.00  0.00     0.083 H 
ATOM     14  H2  <0> d           1.079   3.217   0.008  0.00  0.00     0.084 H 
ATOM     15  H3  <0> d           3.667   3.206  -0.013  0.00  0.00     0.084 H 
ATOM     16  H4  <0> d           5.705   1.873  -0.039  0.00  0.00     0.083 H 
ATOM     17  H5  <0> d           5.642  -0.581  -0.054  0.00  0.00     0.084 H 
ATOM     18  H6  <0> d          -0.927  -0.554   0.009  0.00  0.00     0.084 H 
ATOM     19  H7  <0> d           1.207  -2.632   0.871  0.00  0.00     0.040 H 
ATOM     20  H8  <0> d           1.190  -2.622  -0.919  0.00  0.00     0.040 H 
ATOM     21  H9  <0> d           3.489  -2.631  -0.942  0.00  0.00     0.040 H 
ATOM     22  H10 <0> d           3.507  -2.642   0.848  0.00  0.00     0.040 H 
ENDROOT
TORSDOF 0
