REMARK  3 active torsions:
REMARK  status: ('A' for Active; 'I' for Inactive)
REMARK    1  A    between atoms: C1_1  and  C2_2 
REMARK    2  A    between atoms: C4_4  and  C8_10 
REMARK    3  A    between atoms: N1_5  and  C5_7 
ROOT
ATOM      1  C2  <0> d          -0.718   1.572   1.248  0.00  0.00     0.053 A 
ATOM      2  C3  <0> d          -0.116   1.847   2.480  0.00  0.00    -0.035 A 
ATOM      3  C4  <0> d          -1.082   2.258   3.333  0.00  0.00     0.029 A 
ATOM      4  N1  <0> d          -2.254   2.244   2.665  0.00  0.00    -0.269 N 
ATOM      5  N2  <0> d          -1.999   1.815   1.356  0.00  0.00    -0.177 NA
ATOM      6  H4  <0> d           0.935   1.748   2.709  0.00  0.00     0.089 H 
ENDROOT
BRANCH   4   7
ATOM      7  C5  <0> d          -3.561   2.617   3.211  0.00  0.00     0.035 A 
ATOM      8  C7  <0> d          -4.304   3.773   2.538  0.00  0.00    -0.042 A 
ATOM      9  C6  <0> d          -4.793   2.336   2.348  0.00  0.00    -0.042 A 
ATOM     10  H8  <0> d          -4.670   4.470   3.307  0.00  0.00     0.036 H 
ATOM     11  H9  <0> d          -3.619   4.303   1.860  0.00  0.00     0.036 H 
ATOM     12  H6  <0> d          -4.513   1.677   1.512  0.00  0.00     0.036 H 
ATOM     13  H7  <0> d          -5.564   1.844   2.959  0.00  0.00     0.036 H 
ATOM     14  H5  <0> d          -3.234   2.371   4.232  0.00  0.00     0.075 H 
ENDBRANCH   4   7
BRANCH   3  15
ATOM     15  C8  <0> d          -0.884   2.660   4.772  0.00  0.00    -0.036 C 
ATOM     16  H10 <0> d          -1.852   2.946   5.209  0.00  0.00     0.035 H 
ATOM     17  H11 <0> d          -0.192   3.514   4.822  0.00  0.00     0.035 H 
ATOM     18  H12 <0> d          -0.463   1.814   5.335  0.00  0.00     0.035 H 
ENDBRANCH   3  15
BRANCH   1  19
ATOM     19  C1  <0> d          -0.013   1.086   0.008  0.00  0.00    -0.034 C 
ATOM     20  H1  <0> d           1.061   0.972   0.218  0.00  0.00     0.035 H 
ATOM     21  H2  <0> d          -0.152   1.816  -0.803  0.00  0.00     0.035 H 
ATOM     22  H3  <0> d          -0.432   0.115  -0.296  0.00  0.00     0.035 H 
ENDBRANCH   1  19
TORSDOF 3
