REMARK  1 active torsions:
REMARK  status: ('A' for Active; 'I' for Inactive)
REMARK    1  A    between atoms: C1_1  and  C2_2 
ROOT
ATOM      1  C2  <0> d           0.002  -0.004   0.002  0.00  0.00    -0.037 A 
ATOM      2  C3  <0> d           0.006  -0.707  -1.189  0.00  0.00    -0.037 A 
ATOM      3  C4  <0> d           0.025  -2.091  -1.159  0.00  0.00     0.126 A 
ATOM      4  N1  <0> d           0.039  -2.748  -0.014  0.00  0.00    -0.247 NA
ATOM      5  C5  <0> d           0.036  -2.124   1.145  0.00  0.00     0.024 A 
ATOM      6  C6  <0> d           0.023  -0.729   1.201  0.00  0.00     0.068 A 
ATOM      7  C7  <0> d           0.026  -0.050   2.462  0.00  0.00     0.101 C 
ATOM      8  N2  <0> d           0.029   0.488   3.462  0.00  0.00    -0.191 NA
ATOM      9 Cl1  <0> d           0.030  -2.978  -2.652  0.00  0.00    -0.062 Cl
ATOM     10  H4  <0> d          -0.006  -0.181  -2.133  0.00  0.00     0.089 H 
ATOM     11  H5  <0> d           0.048  -2.696   2.062  0.00  0.00     0.117 H 
ENDROOT
BRANCH   1  12
ATOM     12  C1  <0> d          -0.018   1.503   0.010  0.00  0.00    -0.050 C 
ATOM     13  H1  <0> d           1.004   1.880   0.003  0.00  0.00     0.033 H 
ATOM     14  H2  <0> d          -0.545   1.864  -0.873  0.00  0.00     0.033 H 
ATOM     15  H3  <0> d          -0.529   1.854   0.907  0.00  0.00     0.033 H 
ENDBRANCH   1  12
TORSDOF 1
