REMARK  2 active torsions:
REMARK  status: ('A' for Active; 'I' for Inactive)
REMARK    1  A    between atoms: C4_4  and  C7_8 
REMARK    2  A    between atoms: C6_6  and  N1_7 
ROOT
ATOM      1  C1  <0> d          -1.250   3.039   0.030  0.00  0.00    -0.055 A 
ATOM      2  C2  <0> d          -2.452   3.720   0.034  0.00  0.00    -0.043 A 
ATOM      3  C3  <0> d          -3.646   3.023   0.036  0.00  0.00     0.133 A 
ATOM      4  C4  <0> d          -3.638   1.624   0.028  0.00  0.00     0.081 A 
ATOM      5  C5  <0> d          -2.421   0.939   0.019  0.00  0.00    -0.038 A 
ATOM      6  C6  <0> d          -1.232   1.649   0.017  0.00  0.00     0.026 A 
ATOM      7  F1  <0> d          -4.819   3.692   0.044  0.00  0.00    -0.205 F 
ATOM      8  H1  <0> d          -0.320   3.588   0.034  0.00  0.00     0.087 H 
ATOM      9  H2  <0> d          -2.458   4.800   0.040  0.00  0.00     0.088 H 
ATOM     10  H3  <0> d          -2.408  -0.141   0.013  0.00  0.00     0.088 H 
ENDROOT
BRANCH   4  11
ATOM     11  C7  <0> d          -4.910   0.876   0.030  0.00  0.00     0.212 C 
ATOM     12  O1  <0> d          -5.967   1.474   0.038  0.00  0.00    -0.644 OA
ATOM     13  O2  <0> d          -4.899  -0.471   0.022  0.00  0.00    -0.644 OA
ENDBRANCH   4  11
BRANCH   6  14
ATOM     14  N1  <0> d          -0.011   0.966   0.007  0.00  0.00    -0.399 N 
ATOM     15  H4  <0> d           0.002  -0.004   0.002  0.00  0.00     0.156 HD
ATOM     16  H5  <0> d           0.822   1.462   0.002  0.00  0.00     0.156 HD
ENDBRANCH   6  14
TORSDOF 2
