REMARK  2 active torsions:
REMARK  status: ('A' for Active; 'I' for Inactive)
REMARK    1  A    between atoms: C2_2  and  C4_8 
REMARK    2  A    between atoms: C3_6  and  O1_7 
ROOT
ATOM      1  C1  <0> d          -1.139   2.271   0.019  0.00  0.00     0.003 A 
ATOM      2  C2  <0> d          -0.018   1.466   0.010  0.00  0.00     0.130 A 
ATOM      3  N1  <0> d           1.071   2.293   0.004  0.00  0.00    -0.269 N 
ATOM      4  H1  <0> d           2.029   2.006  -0.006  0.00  0.00     0.189 HD
ATOM      5  N2  <0> d           0.605   3.614   0.015  0.00  0.00    -0.149 NA
ATOM      6  C3  <0> d          -0.707   3.599   0.027  0.00  0.00     0.183 A 
ATOM      7  H2  <0> d          -2.166   1.935   0.022  0.00  0.00     0.094 H 
ENDROOT
BRANCH   2   8
ATOM      8  C4  <0> d           0.002  -0.004   0.002  0.00  0.00     0.228 C 
ATOM      9  O2  <0> d          -1.042  -0.626   0.008  0.00  0.00    -0.643 OA
ATOM     10  O3  <0> d           1.179  -0.662  -0.012  0.00  0.00    -0.643 OA
ENDBRANCH   2   8
BRANCH   6  11
ATOM     11  O1  <0> d          -1.512   4.695   0.040  0.00  0.00    -0.344 OA
ATOM     12  H3  <0> d          -0.950   5.522   0.044  0.00  0.00     0.219 HD
ENDBRANCH   6  11
TORSDOF 2
