REMARK  2 active torsions:
REMARK  status: ('A' for Active; 'I' for Inactive)
REMARK    1  A    between atoms: C3_3  and  C6_8 
REMARK    2  A    between atoms: C6_8  and  O2_9 
ROOT
ATOM      1  C1  <0> d           1.218   3.213   0.016  0.00  0.00    -0.046 C 
ATOM      2  C2  <0> d          -0.133   3.809  -0.393  0.00  0.00    -0.035 C 
ATOM      3  C3  <0> d          -1.234   3.082   0.392  0.00  0.00     0.064 C 
ATOM      4  H1  <0> d          -1.047   3.180   1.462  0.00  0.00     0.087 H 
ATOM      5  O1  <0> d          -1.211   1.701   0.017  0.00  0.00    -0.356 OA
ATOM      6  C4  <0> d          -0.013   1.076   0.008  0.00  0.00     0.009 C 
ATOM      7  C5  <0> d           1.129   1.712   0.001  0.00  0.00    -0.082 C 
ATOM      8  H2  <0> d           1.475   3.551   1.020  0.00  0.00     0.039 H 
ATOM      9  H3  <0> d           1.987   3.539  -0.685  0.00  0.00     0.039 H 
ATOM     10  H4  <0> d          -0.153   4.872  -0.157  0.00  0.00     0.037 H 
ATOM     11  H5  <0> d          -0.289   3.667  -1.463  0.00  0.00     0.037 H 
ATOM     12  H6  <0> d           0.002  -0.004   0.002  0.00  0.00     0.122 H 
ATOM     13  H7  <0> d           2.044   1.137  -0.018  0.00  0.00     0.079 H 
ENDROOT
BRANCH   3  14
ATOM     14  C6  <0> d          -2.597   3.686   0.049  0.00  0.00     0.041 C 
ATOM     15  H8  <0> d          -2.574   4.761   0.230  0.00  0.00     0.077 H 
ATOM     16  H9  <0> d          -2.823   3.499  -1.000  0.00  0.00     0.077 H 
BRANCH  14  17
ATOM     17  O2  <0> d          -3.603   3.087   0.868  0.00  0.00    -0.398 OA
ATOM     18  H10 <0> d          -4.495   3.423   0.704  0.00  0.00     0.209 HD
ENDBRANCH  14  17
ENDBRANCH   3  14
TORSDOF 2
