REMARK  1 active torsions:
REMARK  status: ('A' for Active; 'I' for Inactive)
REMARK    1  A    between atoms: C1_1  and  C2_2 
ROOT
ATOM      1  C2  <0> d           0.002  -0.004   0.002  0.00  0.00    -0.026 A 
ATOM      2  C3  <0> d           0.009  -0.803  -1.074  0.00  0.00     0.026 A 
ATOM      3  O1  <0> d           0.028  -2.092  -0.694  0.00  0.00    -0.321 OA
ATOM      4  C4  <0> d           0.035  -2.197   0.651  0.00  0.00     0.086 A 
ATOM      5  C5  <0> d           0.025  -0.892   1.171  0.00  0.00     0.008 A 
ATOM      6  C6  <0> d           0.035  -0.686   2.550  0.00  0.00    -0.033 A 
ATOM      7  C7  <0> d           0.058  -1.773   3.400  0.00  0.00     0.117 A 
ATOM      8  C8  <0> d           0.071  -3.063   2.885  0.00  0.00    -0.043 A 
ATOM      9  C9  <0> d           0.054  -3.277   1.524  0.00  0.00    -0.046 A 
ATOM     10  F1  <0> d           0.068  -1.581   4.737  0.00  0.00    -0.206 F 
ATOM     11  H4  <0> d          -0.001  -0.460  -2.098  0.00  0.00     0.124 H 
ATOM     12  H5  <0> d           0.025   0.317   2.950  0.00  0.00     0.089 H 
ATOM     13  H6  <0> d           0.089  -3.907   3.559  0.00  0.00     0.088 H 
ATOM     14  H7  <0> d           0.066  -4.285   1.135  0.00  0.00     0.087 H 
ENDROOT
BRANCH   1  15
ATOM     15  C1  <0> d          -0.018   1.503   0.010  0.00  0.00    -0.049 C 
ATOM     16  H1  <0> d           1.004   1.880   0.003  0.00  0.00     0.033 H 
ATOM     17  H2  <0> d          -0.545   1.864  -0.873  0.00  0.00     0.033 H 
ATOM     18  H3  <0> d          -0.529   1.854   0.907  0.00  0.00     0.033 H 
ENDBRANCH   1  15
TORSDOF 1
