REMARK  4 active torsions:
REMARK  status: ('A' for Active; 'I' for Inactive)
REMARK    1  A    between atoms: C1_1  and  C2_2 
REMARK    2  A    between atoms: C2_2  and  C3_3 
REMARK    3  A    between atoms: C3_3  and  N1_4 
REMARK    4  A    between atoms: C6_7  and  C7_9 
ROOT
ATOM      1  N1  <0> d          -1.413  -1.998   0.005  0.00  0.00    -0.279 N 
ATOM      2  C4  <0> d          -2.025  -2.806   0.898  0.00  0.00     0.021 A 
ATOM      3  C5  <0> d          -1.766  -4.086   0.541  0.00  0.00     0.077 A 
ATOM      4  C6  <0> d          -0.969  -4.059  -0.609  0.00  0.00     0.074 A 
ATOM      5  N2  <0> d          -0.762  -2.809  -0.934  0.00  0.00    -0.176 NA
ATOM      6 Cl1  <0> d          -2.323  -5.509   1.365  0.00  0.00    -0.081 Cl
ATOM      7  H8  <0> d          -2.615  -2.488   1.745  0.00  0.00     0.116 H 
ENDROOT
BRANCH   1   8
ATOM      8  C3  <0> d          -1.433  -0.534   0.013  0.00  0.00     0.016 C 
ATOM      9  H6  <0> d          -1.944  -0.182   0.910  0.00  0.00     0.067 H 
ATOM     10  H7  <0> d          -1.960  -0.173  -0.870  0.00  0.00     0.067 H 
BRANCH   8  11
ATOM     11  C2  <0> d           0.002  -0.004   0.002  0.00  0.00    -0.052 C 
ATOM     12  H4  <0> d           0.512  -0.356  -0.895  0.00  0.00     0.035 H 
ATOM     13  H5  <0> d           0.529  -0.365   0.885  0.00  0.00     0.035 H 
BRANCH  11  14
ATOM     14  C1  <0> d          -0.019   1.526   0.010  0.00  0.00    -0.075 C 
ATOM     15  H1  <0> d           1.004   1.903   0.003  0.00  0.00     0.027 H 
ATOM     16  H2  <0> d          -0.546   1.887  -0.873  0.00  0.00     0.027 H 
ATOM     17  H3  <0> d          -0.529   1.877   0.907  0.00  0.00     0.027 H 
ENDBRANCH  11  14
ENDBRANCH   8  11
ENDBRANCH   1   8
BRANCH   4  18
ATOM     18  C7  <0> d          -0.444  -5.263  -1.349  0.00  0.00    -0.032 C 
ATOM     19  H9  <0> d          -1.163  -5.561  -2.113  0.00  0.00     0.035 H 
ATOM     20  H10 <0> d           0.506  -5.013  -1.821  0.00  0.00     0.035 H 
ATOM     21  H11 <0> d          -0.297  -6.085  -0.648  0.00  0.00     0.035 H 
ENDBRANCH   4  18
TORSDOF 4
