REMARK  5 active torsions:
REMARK  status: ('A' for Active; 'I' for Inactive)
REMARK    1  A    between atoms: C1_1  and  C2_2 
REMARK    2  A    between atoms: C2_2  and  C3_4 
REMARK    3  A    between atoms: C2_2  and  C6_7 
REMARK       I    between atoms: C6_7  and  N1_9 
REMARK    4  A    between atoms: N1_9  and  C7_10 
REMARK    5  A    between atoms: C7_10  and  C8_11 
ROOT
ATOM      1  C2  <0> d           0.002  -0.004   0.002  0.00  0.00     0.024 C 
ATOM      2  H1  <0> d           0.512  -0.356  -0.895  0.00  0.00     0.054 H 
ENDROOT
BRANCH   1   3
ATOM      3  C1  <0> d          -0.019   1.526   0.010  0.00  0.00    -0.064 C 
ATOM      4  H2  <0> d           1.004   1.903   0.003  0.00  0.00     0.028 H 
ATOM      5  H3  <0> d          -0.546   1.887  -0.873  0.00  0.00     0.028 H 
ATOM      6  H4  <0> d          -0.529   1.877   0.907  0.00  0.00     0.028 H 
ENDBRANCH   1   3
BRANCH   1   7
ATOM      7  C3  <0> d          -1.433  -0.534   0.013  0.00  0.00    -0.043 A 
ATOM      8  C5  <0> d          -2.342  -0.135  -1.152  0.00  0.00    -0.060 A 
ATOM      9  C4  <0> d          -1.813  -1.567  -1.049  0.00  0.00    -0.060 A 
ATOM     10  H8  <0> d          -3.397   0.028  -0.933  0.00  0.00     0.033 H 
ATOM     11  H9  <0> d          -1.917   0.504  -1.926  0.00  0.00     0.033 H 
ATOM     12  H6  <0> d          -1.040  -1.870  -1.756  0.00  0.00     0.033 H 
ATOM     13  H7  <0> d          -2.520  -2.346  -0.764  0.00  0.00     0.033 H 
ATOM     14  H5  <0> d          -1.891  -0.632   0.997  0.00  0.00     0.041 H 
ENDBRANCH   1   7
BRANCH   1  15
ATOM     15  C6  <0> d           0.731  -0.503   1.223  0.00  0.00     0.222 C 
ATOM     16  O1  <0> d           0.159  -1.213   2.023  0.00  0.00    -0.273 OA
ATOM     17  N1  <0> d           2.019  -0.161   1.426  0.00  0.00    -0.357 N 
ATOM     18  H10 <0> d           2.476   0.406   0.786  0.00  0.00     0.162 HD
BRANCH  17  19
ATOM     19  C7  <0> d           2.727  -0.647   2.613  0.00  0.00     0.009 C 
ATOM     20  H11 <0> d           2.217  -0.295   3.509  0.00  0.00     0.070 H 
ATOM     21  H12 <0> d           2.742  -1.736   2.607  0.00  0.00     0.070 H 
BRANCH  19  22
ATOM     22  C8  <0> d           4.141  -0.125   2.602  0.00  0.00    -0.095 C 
ATOM     23  C9  <0> d           4.599   0.546   3.629  0.00  0.00    -0.123 C 
ATOM     24  H14 <0> d           5.613   0.920   3.622  0.00  0.00     0.066 H 
ATOM     25  H15 <0> d           3.964   0.725   4.484  0.00  0.00     0.066 H 
ATOM     26  H13 <0> d           4.776  -0.304   1.747  0.00  0.00     0.078 H 
ENDBRANCH  19  22
ENDBRANCH  17  19
ENDBRANCH   1  15
TORSDOF 5
