REMARK  2 active torsions:
REMARK  status: ('A' for Active; 'I' for Inactive)
REMARK    1  A    between atoms: C3_3  and  C6_8 
REMARK    2  A    between atoms: C6_8  and  O1_9 
ROOT
ATOM      1  C1  <0> d          -0.017   1.383   0.010  0.00  0.00    -0.059 A 
ATOM      2  C2  <0> d           1.194   2.059   0.002  0.00  0.00    -0.055 A 
ATOM      3  C3  <0> d           2.370   1.335  -0.013  0.00  0.00     0.057 A 
ATOM      4  N1  <0> d           2.351   0.016  -0.021  0.00  0.00    -0.262 NA
ATOM      5  C4  <0> d           1.220  -0.661  -0.014  0.00  0.00     0.023 A 
ATOM      6  C5  <0> d           0.002  -0.004   0.002  0.00  0.00     0.051 A 
ATOM      7 Cl1  <0> d          -1.483  -0.904   0.012  0.00  0.00    -0.083 Cl
ATOM      8  H1  <0> d          -0.952   1.923   0.026  0.00  0.00     0.086 H 
ATOM      9  H2  <0> d           1.217   3.139   0.007  0.00  0.00     0.086 H 
ATOM     10  H3  <0> d           1.243  -1.741  -0.020  0.00  0.00     0.117 H 
ENDROOT
BRANCH   3  11
ATOM     11  C6  <0> d           3.691   2.060  -0.022  0.00  0.00     0.056 C 
ATOM     12  H4  <0> d           4.265   1.779   0.861  0.00  0.00     0.083 H 
ATOM     13  H5  <0> d           4.248   1.789  -0.919  0.00  0.00     0.083 H 
BRANCH  11  14
ATOM     14  O1  <0> d           3.461   3.470  -0.012  0.00  0.00    -0.395 OA
ATOM     15  H6  <0> d           4.269   4.001  -0.017  0.00  0.00     0.209 HD
ENDBRANCH  11  14
ENDBRANCH   3  11
TORSDOF 2
