REMARK  2 active torsions:
REMARK  status: ('A' for Active; 'I' for Inactive)
REMARK    1  A    between atoms: C6_6  and  C7_10 
REMARK    2  A    between atoms: C7_10  and  O1_11 
ROOT
ATOM      1  C1  <0> d          -0.013   1.086   0.008  0.00  0.00    -0.061 C 
ATOM      2  C2  <0> d          -0.753   1.593  -1.233  0.00  0.00    -0.060 C 
ATOM      3  C3  <0> d          -2.097   0.865  -1.360  0.00  0.00    -0.025 C 
ATOM      4  C4  <0> d          -2.806   0.939  -0.031  0.00  0.00     0.036 A 
ATOM      5  C5  <0> d          -2.198   1.259   1.139  0.00  0.00    -0.005 A 
ATOM      6  C6  <0> d          -3.160   1.230   2.146  0.00  0.00     0.086 A 
ATOM      7  N1  <0> d          -4.308   0.903   1.603  0.00  0.00    -0.177 NA
ATOM      8  N2  <0> d          -4.105   0.714   0.227  0.00  0.00    -0.281 N 
ATOM      9  H1  <0> d          -4.788   0.435  -0.589  0.00  0.00     0.189 HD
ATOM     10  C8  <0> d          -0.730   1.580   1.270  0.00  0.00    -0.037 C 
ATOM     11  H2  <0> d           1.019   1.466   0.000  0.00  0.00     0.033 H 
ATOM     12  H3  <0> d           0.002  -0.014   0.002  0.00  0.00     0.033 H 
ATOM     13  H4  <0> d          -0.930   2.674  -1.137  0.00  0.00     0.033 H 
ATOM     14  H5  <0> d          -0.144   1.398  -2.128  0.00  0.00     0.033 H 
ATOM     15  H6  <0> d          -2.704   1.350  -2.139  0.00  0.00     0.042 H 
ATOM     16  H7  <0> d          -1.920  -0.185  -1.635  0.00  0.00     0.042 H 
ATOM     17  H11 <0> d          -0.311   1.074   2.152  0.00  0.00     0.040 H 
ATOM     18  H12 <0> d          -0.590   2.667   1.370  0.00  0.00     0.040 H 
ENDROOT
BRANCH   6  19
ATOM     19  C7  <0> d          -2.924   1.524   3.605  0.00  0.00     0.059 C 
ATOM     20  H8  <0> d          -3.632   0.944   4.215  0.00  0.00     0.083 H 
ATOM     21  H9  <0> d          -1.895   1.244   3.873  0.00  0.00     0.083 H 
BRANCH  19  22
ATOM     22  O1  <0> d          -3.118   2.918   3.848  0.00  0.00    -0.395 OA
ATOM     23  H10 <0> d          -2.988   3.324   4.862  0.00  0.00     0.209 HD
ENDBRANCH  19  22
ENDBRANCH   6  19
TORSDOF 2
