REMARK  2 active torsions:
REMARK  status: ('A' for Active; 'I' for Inactive)
REMARK    1  A    between atoms: C1_1  and  C2_2 
REMARK    2  A    between atoms: C5_6  and  O3_9 
ROOT
ATOM      1  C2  <0> d           1.108   2.061   0.003  0.00  0.00     0.052 A 
ATOM      2  C3  <0> d           2.318   1.468  -0.012  0.00  0.00    -0.004 A 
ATOM      3  C4  <0> d           2.390   0.052  -0.021  0.00  0.00     0.209 A 
ATOM      4  O1  <0> d           3.468  -0.522  -0.034  0.00  0.00    -0.285 OA
ATOM      5  C5  <0> d           1.171  -0.681  -0.013  0.00  0.00     0.138 A 
ATOM      6  C6  <0> d           0.002  -0.004   0.002  0.00  0.00     0.055 A 
ATOM      7  O2  <0> d          -0.016   1.336   0.009  0.00  0.00    -0.324 OA
ATOM      8  H4  <0> d           3.220   2.062  -0.017  0.00  0.00     0.093 H 
ATOM      9  H5  <0> d          -0.930  -0.550   0.008  0.00  0.00     0.128 H 
ENDROOT
BRANCH   1  10
ATOM     10  C1  <0> d           1.020   3.566   0.011  0.00  0.00    -0.031 C 
ATOM     11  H1  <0> d          -0.027   3.868   0.023  0.00  0.00     0.036 H 
ATOM     12  H2  <0> d           1.520   3.954   0.899  0.00  0.00     0.036 H 
ATOM     13  H3  <0> d           1.503   3.963  -0.881  0.00  0.00     0.036 H 
ENDBRANCH   1  10
BRANCH   5  14
ATOM     14  O3  <0> d           1.183  -2.042  -0.021  0.00  0.00    -0.355 OA
ATOM     15  H6  <0> d           1.177  -2.430  -0.906  0.00  0.00     0.218 HD
ENDBRANCH   5  14
TORSDOF 2
