REMARK  0 active torsions:
REMARK  status: ('A' for Active; 'I' for Inactive)
ROOT
ATOM      1  C1  <0> d          -1.215   1.744   0.017  0.00  0.00    -0.061 A 
ATOM      2  C2  <0> d          -0.013   1.076   0.008  0.00  0.00    -0.055 A 
ATOM      3  C3  <0> d           1.189   1.787   0.000  0.00  0.00     0.041 A 
ATOM      4  C4  <0> d           1.154   3.178   0.008  0.00  0.00    -0.021 A 
ATOM      5  C5  <0> d          -0.040   3.855   0.023  0.00  0.00    -0.054 A 
ATOM      6  C6  <0> d          -1.243   3.141   0.031  0.00  0.00     0.045 A 
ATOM      7  C7  <0> d          -2.495   3.837   0.046  0.00  0.00     0.099 C 
ATOM      8  N1  <0> d          -3.487   4.389   0.058  0.00  0.00    -0.191 NA
ATOM      9  C8  <0> d           2.594   3.639  -0.004  0.00  0.00     0.035 A 
ATOM     10  C9  <0> d           3.390   2.351  -0.017  0.00  0.00     0.226 A 
ATOM     11  O1  <0> d           4.599   2.252  -0.029  0.00  0.00    -0.273 OA
ATOM     12  N2  <0> d           2.507   1.339  -0.014  0.00  0.00    -0.326 N 
ATOM     13  H1  <0> d          -2.140   1.187   0.019  0.00  0.00     0.085 H 
ATOM     14  H2  <0> d           0.002  -0.004   0.002  0.00  0.00     0.087 H 
ATOM     15  H3  <0> d          -0.051   4.935   0.029  0.00  0.00     0.086 H 
ATOM     16  H4  <0> d           2.817   4.216   0.893  0.00  0.00     0.054 H 
ATOM     17  H5  <0> d           2.802   4.227  -0.897  0.00  0.00     0.054 H 
ATOM     18  H6  <0> d           2.759   0.403  -0.022  0.00  0.00     0.169 HD
ENDROOT
TORSDOF 0
