REMARK  0 active torsions:
REMARK  status: ('A' for Active; 'I' for Inactive)
ROOT
ATOM      1  C1  <0> d          -0.674  -2.296  -0.003  0.00  0.00    -0.060 A 
ATOM      2  C2  <0> d          -0.998  -0.971   0.007  0.00  0.00    -0.048 A 
ATOM      3  C3  <0> d           0.002  -0.004   0.002  0.00  0.00     0.085 A 
ATOM      4  C4  <0> d           1.351  -0.402  -0.013  0.00  0.00     0.001 A 
ATOM      5  C5  <0> d           2.128   0.845  -0.014  0.00  0.00    -0.049 A 
ATOM      6  C6  <0> d           1.233   1.841   0.000  0.00  0.00     0.020 A 
ATOM      7  O1  <0> d          -0.016   1.344   0.009  0.00  0.00    -0.322 OA
ATOM      8  C7  <0> d           1.683  -1.752  -0.023  0.00  0.00    -0.050 A 
ATOM      9  C8  <0> d           0.666  -2.705  -0.018  0.00  0.00     0.045 A 
ATOM     10  C9  <0> d           0.991  -4.099  -0.028  0.00  0.00     0.099 C 
ATOM     11  N1  <0> d           1.248  -5.206  -0.036  0.00  0.00    -0.191 NA
ATOM     12  H1  <0> d          -1.458  -3.039   0.001  0.00  0.00     0.086 H 
ATOM     13  H2  <0> d          -2.035  -0.671   0.019  0.00  0.00     0.087 H 
ATOM     14  H3  <0> d           3.204   0.939  -0.024  0.00  0.00     0.087 H 
ATOM     15  H4  <0> d           1.479   2.893   0.004  0.00  0.00     0.123 H 
ATOM     16  H5  <0> d           2.718  -2.060  -0.035  0.00  0.00     0.087 H 
ENDROOT
TORSDOF 0
