REMARK  7 active torsions:
REMARK  status: ('A' for Active; 'I' for Inactive)
REMARK    1  A    between atoms: C1_1  and  C2_2 
REMARK    2  A    between atoms: C2_2  and  C3_4 
REMARK    3  A    between atoms: C2_2  and  C7_9 
REMARK    4  A    between atoms: C3_4  and  C4_5 
REMARK    5  A    between atoms: C4_5  and  C5_6 
REMARK    6  A    between atoms: C5_6  and  O1_7 
REMARK    7  A    between atoms: O1_7  and  C6_8 
ROOT
ATOM      1  C3  <0> d          -2.479   0.930   0.019  0.00  0.00    -0.051 C 
ATOM      2  H5  <0> d          -2.470   0.369  -0.916  0.00  0.00     0.034 H 
ATOM      3  H6  <0> d          -2.359   0.243   0.856  0.00  0.00     0.034 H 
ENDROOT
BRANCH   1   4
ATOM      4  C2  <0> d          -1.329   1.940   0.019  0.00  0.00     0.027 C 
ATOM      5  H1  <0> d          -1.391   2.561   0.913  0.00  0.00     0.056 H 
BRANCH   4   6
ATOM      6  C1  <0> d          -1.428   2.825  -1.225  0.00  0.00    -0.064 C 
ATOM      7  H2  <0> d          -1.366   2.204  -2.119  0.00  0.00     0.028 H 
ATOM      8  H3  <0> d          -2.380   3.357  -1.218  0.00  0.00     0.028 H 
ATOM      9  H4  <0> d          -0.610   3.545  -1.225  0.00  0.00     0.028 H 
ENDBRANCH   4   6
BRANCH   4  10
ATOM     10  C7  <0> d          -0.014   1.204   0.009  0.00  0.00     0.176 C 
ATOM     11  O2  <0> d           0.002  -0.004   0.002  0.00  0.00    -0.648 OA
ATOM     12  O3  <0> d           1.139   1.891   0.001  0.00  0.00    -0.648 OA
ENDBRANCH   4  10
ENDBRANCH   1   4
BRANCH   1  13
ATOM     13  C4  <0> d          -3.810   1.672   0.155  0.00  0.00    -0.044 C 
ATOM     14  H7  <0> d          -3.819   2.233   1.089  0.00  0.00     0.036 H 
ATOM     15  H8  <0> d          -3.930   2.359  -0.683  0.00  0.00     0.036 H 
BRANCH  13  16
ATOM     16  C5  <0> d          -4.959   0.662   0.155  0.00  0.00     0.019 C 
ATOM     17  H9  <0> d          -4.950   0.101  -0.780  0.00  0.00     0.074 H 
ATOM     18  H10 <0> d          -4.839  -0.025   0.992  0.00  0.00     0.074 H 
BRANCH  16  19
ATOM     19  O1  <0> d          -6.202   1.355   0.282  0.00  0.00    -0.396 OA
BRANCH  19  20
ATOM     20  C6  <0> d          -7.347   0.499   0.293  0.00  0.00     0.004 C 
ATOM     21  H11 <0> d          -7.387  -0.065  -0.639  0.00  0.00     0.066 H 
ATOM     22  H12 <0> d          -7.276  -0.191   1.133  0.00  0.00     0.066 H 
ATOM     23  H13 <0> d          -8.250   1.101   0.392  0.00  0.00     0.066 H 
ENDBRANCH  19  20
ENDBRANCH  16  19
ENDBRANCH  13  16
ENDBRANCH   1  13
TORSDOF 7
