REMARK  4 active torsions:
REMARK  status: ('A' for Active; 'I' for Inactive)
REMARK    1  A    between atoms: C1_1  and  C2_2 
REMARK    2  A    between atoms: C2_2  and  C3_3 
REMARK    3  A    between atoms: C3_3  and  C4_5 
REMARK    4  A    between atoms: C3_3  and  O1_12 
ROOT
ATOM      1  C4  <0> d           1.158   3.165   0.007  0.00  0.00    -0.027 A 
ATOM      2  C5  <0> d           1.175   1.783   0.000  0.00  0.00    -0.074 A 
ATOM      3  C6  <0> d          -0.013   1.076   0.008  0.00  0.00    -0.080 A 
ATOM      4  C7  <0> d          -1.219   1.750   0.017  0.00  0.00    -0.046 A 
ATOM      5  C8  <0> d          -1.237   3.135   0.030  0.00  0.00     0.117 A 
ATOM      6  C9  <0> d          -0.047   3.842   0.022  0.00  0.00    -0.037 A 
ATOM      7  F1  <0> d          -2.416   3.795   0.044  0.00  0.00    -0.206 F 
ATOM      8  H7  <0> d           2.117   1.255  -0.011  0.00  0.00     0.084 H 
ATOM      9  H8  <0> d           0.002  -0.004   0.002  0.00  0.00     0.083 H 
ATOM     10  H9  <0> d          -2.147   1.198   0.019  0.00  0.00     0.088 H 
ATOM     11  H10 <0> d          -0.060   4.922   0.028  0.00  0.00     0.089 H 
ENDROOT
BRANCH   1  12
ATOM     12  C3  <0> d           2.454   3.935  -0.000  0.00  0.00     0.060 C 
ATOM     13  H1  <0> d           3.262   3.288   0.341  0.00  0.00     0.090 H 
BRANCH  12  14
ATOM     14  C2  <0> d           2.752   4.418  -1.421  0.00  0.00    -0.041 C 
ATOM     15  H5  <0> d           2.747   3.567  -2.102  0.00  0.00     0.036 H 
ATOM     16  H6  <0> d           1.989   5.134  -1.729  0.00  0.00     0.036 H 
BRANCH  14  17
ATOM     17  C1  <0> d           4.125   5.090  -1.454  0.00  0.00    -0.074 C 
ATOM     18  H2  <0> d           4.130   5.941  -0.772  0.00  0.00     0.027 H 
ATOM     19  H3  <0> d           4.888   4.375  -1.146  0.00  0.00     0.027 H 
ATOM     20  H4  <0> d           4.338   5.434  -2.466  0.00  0.00     0.027 H 
ENDBRANCH  14  17
ENDBRANCH  12  14
BRANCH  12  21
ATOM     21  O1  <0> d           2.344   5.061   0.873  0.00  0.00    -0.391 OA
ATOM     22  H11 <0> d           1.643   5.681   0.629  0.00  0.00     0.210 HD
ENDBRANCH  12  21
ENDBRANCH   1  12
TORSDOF 4
