REMARK  2 active torsions:
REMARK  status: ('A' for Active; 'I' for Inactive)
REMARK    1  A    between atoms: C1_1  and  C2_2 
REMARK    2  A    between atoms: C4_5  and  O1_9 
ROOT
ATOM      1  C2  <0> d           2.250   1.584   0.606  0.00  0.00    -0.047 C 
ATOM      2  C3  <0> d           1.189   2.146   0.002  0.00  0.00    -0.019 C 
ATOM      3  N1  <0> d          -0.018   1.464   0.010  0.00  0.00    -0.370 N 
ATOM      4  C4  <0> d           0.002  -0.004   0.002  0.00  0.00     0.117 C 
ATOM      5  H1  <0> d          -0.999  -0.392   0.241  0.00  0.00     0.124 H 
ATOM      6  C5  <0> d           1.041  -0.486   0.984  0.00  0.00    -0.057 C 
ATOM      7  C6  <0> d           2.099   0.276   1.256  0.00  0.00    -0.075 C 
ATOM      8  H5  <0> d           1.290   3.127  -0.485  0.00  0.00     0.111 H 
ATOM      9  H6  <0> d          -0.978   2.001   0.022  0.00  0.00     0.161 HD
ATOM     10  H7  <0> d           0.925  -1.463   1.475  0.00  0.00     0.083 H 
ATOM     11  H8  <0> d           2.861  -0.076   1.968  0.00  0.00     0.084 H 
ENDROOT
BRANCH   1  12
ATOM     12  C1  <0> d           3.582   2.289   0.617  0.00  0.00    -0.050 C 
ATOM     13  H2  <0> d           3.493   3.247   0.083  0.00  0.00     0.033 H 
ATOM     14  H3  <0> d           4.334   1.660   0.118  0.00  0.00     0.033 H 
ATOM     15  H4  <0> d           3.890   2.476   1.656  0.00  0.00     0.033 H 
ENDBRANCH   1  12
BRANCH   4  16
ATOM     16  O1  <0> d           0.327  -0.471  -1.309  0.00  0.00    -0.373 OA
ATOM     17  H9  <0> d           0.389  -1.551  -1.508  0.00  0.00     0.212 HD
ENDBRANCH   4  16
TORSDOF 2
