REMARK  5 active torsions:
REMARK  status: ('A' for Active; 'I' for Inactive)
REMARK    1  A    between atoms: C1_1  and  C2_2 
REMARK    2  A    between atoms: C2_2  and  O1_3 
REMARK    3  A    between atoms: O1_3  and  C3_4 
REMARK    4  A    between atoms: C3_4  and  C4_5 
REMARK    5  A    between atoms: C6_7  and  C7_11 
ROOT
ATOM      1  C4  <0> d           1.467  -2.260  -2.550  0.00  0.00     0.080 A 
ATOM      2  C5  <0> d           1.993  -1.364  -3.486  0.00  0.00    -0.033 A 
ATOM      3  C6  <0> d           2.560  -2.087  -4.480  0.00  0.00     0.026 A 
ATOM      4  N1  <0> d           2.398  -3.393  -4.183  0.00  0.00    -0.282 N 
ATOM      5  H1  <0> d           2.705  -4.142  -4.718  0.00  0.00     0.189 HD
ATOM      6  N2  <0> d           1.714  -3.476  -2.964  0.00  0.00    -0.177 NA
ATOM      7  H9  <0> d           1.953  -0.287  -3.427  0.00  0.00     0.089 H 
ENDROOT
BRANCH   1   8
ATOM      8  C3  <0> d           0.746  -1.888  -1.280  0.00  0.00     0.061 C 
ATOM      9  H7  <0> d           1.288  -2.288  -0.423  0.00  0.00     0.084 H 
ATOM     10  H8  <0> d          -0.261  -2.304  -1.299  0.00  0.00     0.084 H 
BRANCH   8  11
ATOM     11  O1  <0> d           0.671  -0.465  -1.174  0.00  0.00    -0.386 OA
BRANCH  11  12
ATOM     12  C2  <0> d           0.002  -0.004   0.002  0.00  0.00     0.017 C 
ATOM     13  H5  <0> d           0.529  -0.365   0.885  0.00  0.00     0.073 H 
ATOM     14  H6  <0> d          -1.020  -0.381   0.010  0.00  0.00     0.073 H 
BRANCH  12  15
ATOM     15  C1  <0> d          -0.019   1.526   0.010  0.00  0.00    -0.056 C 
ATOM     16  H2  <0> d           1.004   1.903   0.003  0.00  0.00     0.030 H 
ATOM     17  H3  <0> d          -0.546   1.887  -0.873  0.00  0.00     0.030 H 
ATOM     18  H4  <0> d          -0.529   1.877   0.907  0.00  0.00     0.030 H 
ENDBRANCH  12  15
ENDBRANCH  11  12
ENDBRANCH   8  11
ENDBRANCH   1   8
BRANCH   3  19
ATOM     19  C7  <0> d           3.248  -1.532  -5.701  0.00  0.00    -0.036 C 
ATOM     20  H10 <0> d           4.308  -1.393  -5.488  0.00  0.00     0.035 H 
ATOM     21  H11 <0> d           3.132  -2.228  -6.531  0.00  0.00     0.035 H 
ATOM     22  H12 <0> d           2.802  -0.573  -5.965  0.00  0.00     0.035 H 
ENDBRANCH   3  19
TORSDOF 5
