REMARK  1 active torsions:
REMARK  status: ('A' for Active; 'I' for Inactive)
REMARK    1  A    between atoms: C3_3  and  N3_11 
ROOT
ATOM      1  C1  <0> d           2.426   0.041  -0.021  0.00  0.00    -0.066 A 
ATOM      2  C2  <0> d           2.352   1.409  -0.012  0.00  0.00    -0.038 A 
ATOM      3  C3  <0> d           1.102   2.028   0.002  0.00  0.00     0.123 A 
ATOM      4  N1  <0> d          -0.016   1.324   0.009  0.00  0.00    -0.213 NA
ATOM      5  C4  <0> d           0.002  -0.004   0.002  0.00  0.00     0.140 A 
ATOM      6  C5  <0> d           1.232  -0.687  -0.013  0.00  0.00     0.011 A 
ATOM      7  C6  <0> d           0.907  -2.115  -0.018  0.00  0.00    -0.054 A 
ATOM      8  C7  <0> d          -0.432  -2.210  -0.006  0.00  0.00    -0.020 A 
ATOM      9  N2  <0> d          -0.987  -0.957   0.006  0.00  0.00    -0.350 N 
ATOM     10  H1  <0> d          -1.939  -0.770   0.016  0.00  0.00     0.166 HD
ATOM     11  H2  <0> d           3.381  -0.462  -0.032  0.00  0.00     0.085 H 
ATOM     12  H3  <0> d           3.253   2.002  -0.017  0.00  0.00     0.089 H 
ATOM     13  H4  <0> d           1.610  -2.935  -0.030  0.00  0.00     0.087 H 
ATOM     14  H5  <0> d          -0.988  -3.135  -0.006  0.00  0.00     0.111 H 
ENDROOT
BRANCH   3  15
ATOM     15  N3  <0> d           1.032   3.417   0.011  0.00  0.00    -0.384 N 
ATOM     16  H6  <0> d           0.168   3.858   0.021  0.00  0.00     0.157 HD
ATOM     17  H7  <0> d           1.846   3.944   0.006  0.00  0.00     0.157 HD
ENDBRANCH   3  15
TORSDOF 1
