REMARK  6 active torsions:
REMARK  status: ('A' for Active; 'I' for Inactive)
REMARK    1  A    between atoms: C1_1  and  O1_2 
REMARK    2  A    between atoms: O1_2  and  C2_3 
REMARK    3  A    between atoms: C2_3  and  C3_5 
REMARK    4  A    between atoms: C3_5  and  C4_7 
REMARK    5  A    between atoms: C3_5  and  O4_10 
REMARK    6  A    between atoms: C4_7  and  C5_8 
ROOT
ATOM      1  C3  <0> d          -2.479   0.930   0.019  0.00  0.00     0.128 C 
ATOM      2  H1  <0> d          -2.359   0.243   0.856  0.00  0.00     0.099 H 
ENDROOT
BRANCH   1   3
ATOM      3  C2  <0> d          -3.790   1.661   0.153  0.00  0.00     0.287 C 
ATOM      4  O2  <0> d          -4.591   1.635  -0.751  0.00  0.00    -0.262 OA
BRANCH   3   5
ATOM      5  O1  <0> d          -4.068   2.340   1.277  0.00  0.00    -0.324 OA
BRANCH   5   6
ATOM      6  C1  <0> d          -5.349   3.020   1.336  0.00  0.00     0.013 C 
ATOM      7  H2  <0> d          -5.410   3.751   0.530  0.00  0.00     0.067 H 
ATOM      8  H3  <0> d          -6.153   2.291   1.228  0.00  0.00     0.067 H 
ATOM      9  H4  <0> d          -5.447   3.528   2.296  0.00  0.00     0.067 H 
ENDBRANCH   5   6
ENDBRANCH   3   5
ENDBRANCH   1   3
BRANCH   1  10
ATOM     10  C4  <0> d          -1.329   1.940   0.019  0.00  0.00     0.048 C 
ATOM     11  H5  <0> d          -1.391   2.561   0.913  0.00  0.00     0.053 H 
ATOM     12  H6  <0> d          -1.400   2.570  -0.867  0.00  0.00     0.053 H 
BRANCH  10  13
ATOM     13  C5  <0> d          -0.014   1.204   0.009  0.00  0.00     0.175 C 
ATOM     14  O3  <0> d           0.002  -0.004   0.002  0.00  0.00    -0.648 OA
ATOM     15  O5  <0> d           1.139   1.891   0.001  0.00  0.00    -0.648 OA
ENDBRANCH  10  13
ENDBRANCH   1  10
BRANCH   1  16
ATOM     16  O4  <0> d          -2.467   0.194  -1.206  0.00  0.00    -0.385 OA
ATOM     17  H7  <0> d          -2.569   0.743  -1.996  0.00  0.00     0.210 HD
ENDBRANCH   1  16
TORSDOF 6
