REMARK  2 active torsions:
REMARK  status: ('A' for Active; 'I' for Inactive)
REMARK    1  A    between atoms: C1_1  and  C2_2 
REMARK    2  A    between atoms: C2_2  and  C3_3 
ROOT
ATOM      1  C3  <0> d           1.159   3.168   0.007  0.00  0.00    -0.058 A 
ATOM      2  C4  <0> d           1.155   1.775   0.001  0.00  0.00    -0.075 A 
ATOM      3  C5  <0> d          -0.013   1.076   0.008  0.00  0.00    -0.054 A 
ATOM      4  C6  <0> d          -1.238   1.765   0.018  0.00  0.00     0.066 A 
ATOM      5  C7  <0> d          -1.232   3.182   0.030  0.00  0.00    -0.007 A 
ATOM      6  C8  <0> d          -0.007   3.870   0.022  0.00  0.00    -0.065 A 
ATOM      7  C9  <0> d          -2.459   3.870   0.045  0.00  0.00    -0.069 A 
ATOM      8  C10 <0> d          -3.610   3.134   0.052  0.00  0.00    -0.065 A 
ATOM      9  C11 <0> d          -3.546   1.743   0.045  0.00  0.00     0.003 A 
ATOM     10  N1  <0> d          -2.400   1.105   0.030  0.00  0.00    -0.260 NA
ATOM     11  H6  <0> d           2.094   1.241  -0.011  0.00  0.00     0.084 H 
ATOM     12  H7  <0> d           0.002  -0.004   0.002  0.00  0.00     0.087 H 
ATOM     13  H8  <0> d           0.009   4.950   0.027  0.00  0.00     0.085 H 
ATOM     14  H9  <0> d          -2.490   4.949   0.051  0.00  0.00     0.085 H 
ATOM     15  H10 <0> d          -4.569   3.631   0.064  0.00  0.00     0.085 H 
ATOM     16  H11 <0> d          -4.464   1.174   0.050  0.00  0.00     0.114 H 
ENDROOT
BRANCH   1  17
ATOM     17  C2  <0> d           2.472   3.908  -0.002  0.00  0.00    -0.044 C 
ATOM     18  H4  <0> d           2.357   4.859   0.517  0.00  0.00     0.039 H 
ATOM     19  H5  <0> d           3.230   3.309   0.502  0.00  0.00     0.039 H 
BRANCH  17  20
ATOM     20  C1  <0> d           2.902   4.165  -1.448  0.00  0.00    -0.073 C 
ATOM     21  H1  <0> d           2.144   4.765  -1.951  0.00  0.00     0.028 H 
ATOM     22  H2  <0> d           3.852   4.700  -1.454  0.00  0.00     0.028 H 
ATOM     23  H3  <0> d           3.018   3.214  -1.967  0.00  0.00     0.028 H 
ENDBRANCH  17  20
ENDBRANCH   1  17
TORSDOF 2
