REMARK  7 active torsions:
REMARK  status: ('A' for Active; 'I' for Inactive)
REMARK    1  A    between atoms: C1_1  and  C2_2 
REMARK    2  A    between atoms: C2_2  and  C3_3 
REMARK    3  A    between atoms: C3_3  and  C4_5 
REMARK    4  A    between atoms: C3_3  and  C5_6 
REMARK    5  A    between atoms: C5_6  and  C6_8 
REMARK    6  A    between atoms: C5_6  and  C8_10 
REMARK    7  A    between atoms: C6_8  and  C7_9 
REMARK       I    between atoms: C8_10  and  N1_12 
ROOT
ATOM      1  C5  <0> d          -2.131   1.030   1.268  0.00  0.00     0.026 C 
ATOM      2  H2  <0> d          -2.968   1.508   0.758  0.00  0.00     0.055 H 
ENDROOT
BRANCH   1   3
ATOM      3  C3  <0> d          -0.823   1.417   0.575  0.00  0.00    -0.046 C 
ATOM      4  H1  <0> d           0.013   0.940   1.085  0.00  0.00     0.040 H 
BRANCH   3   5
ATOM      5  C2  <0> d          -0.650   2.937   0.625  0.00  0.00    -0.065 C 
ATOM      6  H6  <0> d          -1.438   3.412   0.040  0.00  0.00     0.033 H 
ATOM      7  H7  <0> d          -0.711   3.276   1.659  0.00  0.00     0.033 H 
BRANCH   5   8
ATOM      8  C1  <0> d           0.714   3.314   0.044  0.00  0.00    -0.076 C 
ATOM      9  H3  <0> d           1.502   2.840   0.629  0.00  0.00     0.027 H 
ATOM     10  H4  <0> d           0.775   2.975  -0.990  0.00  0.00     0.027 H 
ATOM     11  H5  <0> d           0.837   4.397   0.080  0.00  0.00     0.027 H 
ENDBRANCH   5   8
ENDBRANCH   3   5
BRANCH   3  12
ATOM     12  C4  <0> d          -0.863   0.956  -0.883  0.00  0.00    -0.072 C 
ATOM     13  H8  <0> d          -0.986  -0.126  -0.918  0.00  0.00     0.028 H 
ATOM     14  H9  <0> d           0.069   1.232  -1.377  0.00  0.00     0.028 H 
ATOM     15  H10 <0> d          -1.699   1.434  -1.393  0.00  0.00     0.028 H 
ENDBRANCH   3  12
ENDBRANCH   1   3
BRANCH   1  16
ATOM     16  C6  <0> d          -2.092   1.492   2.726  0.00  0.00    -0.057 C 
ATOM     17  H11 <0> d          -2.023   2.579   2.762  0.00  0.00     0.033 H 
ATOM     18  H12 <0> d          -3.001   1.169   3.234  0.00  0.00     0.033 H 
BRANCH  16  19
ATOM     19  C7  <0> d          -0.874   0.880   3.422  0.00  0.00    -0.076 C 
ATOM     20  H13 <0> d          -0.901  -0.204   3.316  0.00  0.00     0.027 H 
ATOM     21  H14 <0> d           0.037   1.268   2.967  0.00  0.00     0.027 H 
ATOM     22  H15 <0> d          -0.891   1.142   4.480  0.00  0.00     0.027 H 
ENDBRANCH  16  19
ENDBRANCH   1  16
BRANCH   1  23
ATOM     23  C8  <0> d          -2.301  -0.466   1.219  0.00  0.00     0.219 C 
ATOM     24  O1  <0> d          -1.328  -1.189   1.257  0.00  0.00    -0.273 OA
ATOM     25  N1  <0> d          -3.535  -1.002   1.134  0.00  0.00    -0.370 N 
ATOM     26  H16 <0> d          -4.317  -0.429   1.177  0.00  0.00     0.159 HD
ATOM     27  H17 <0> d          -3.642  -1.960   1.029  0.00  0.00     0.159 HD
ENDBRANCH   1  23
TORSDOF 7
