REMARK  0 active torsions:
REMARK  status: ('A' for Active; 'I' for Inactive)
ROOT
ATOM      1  C1  <0> d          -0.016   1.326   0.009  0.00  0.00    -0.005 A 
ATOM      2  C2  <0> d           0.002  -0.004   0.002  0.00  0.00    -0.005 A 
ATOM      3  N1  <0> d          -1.162  -0.744   0.009  0.00  0.00    -0.328 N 
ATOM      4  C3  <0> d          -2.358  -0.116   0.024  0.00  0.00     0.313 A 
ATOM      5  C4  <0> d          -2.378   1.373   0.032  0.00  0.00     0.313 A 
ATOM      6  N2  <0> d          -1.199   2.033   0.030  0.00  0.00    -0.328 N 
ATOM      7  O1  <0> d          -3.431   1.981   0.045  0.00  0.00    -0.262 OA
ATOM      8  O2  <0> d          -3.394  -0.752   0.029  0.00  0.00    -0.262 OA
ATOM      9  H1  <0> d           0.920   1.865   0.003  0.00  0.00     0.113 H 
ATOM     10  H2  <0> d           0.952  -0.518  -0.010  0.00  0.00     0.113 H 
ATOM     11  H3  <0> d          -1.186   3.003   0.035  0.00  0.00     0.168 HD
ATOM     12  H4  <0> d          -1.122  -1.713   0.003  0.00  0.00     0.168 HD
ENDROOT
TORSDOF 0
