REMARK  1 active torsions:
REMARK  status: ('A' for Active; 'I' for Inactive)
REMARK    1  A    between atoms: C1_1  and  C2_2 
ROOT
ATOM      1  C2  <0> d          -0.018   1.503   0.010  0.00  0.00     0.064 C 
ATOM      2  C3  <0> d           1.122   2.156   0.003  0.00  0.00     0.040 C 
ATOM      3  O1  <0> d           1.172   3.514   0.018  0.00  0.00    -0.358 OA
ATOM      4  C4  <0> d          -0.033   4.206  -0.331  0.00  0.00     0.045 C 
ATOM      5  C5  <0> d          -1.198   3.528   0.404  0.00  0.00     0.046 C 
ATOM      6  O2  <0> d          -1.215   2.146   0.020  0.00  0.00    -0.352 OA
ATOM      7  H4  <0> d           2.046   1.598  -0.015  0.00  0.00     0.126 H 
ATOM      8  H5  <0> d           0.039   5.250  -0.024  0.00  0.00     0.078 H 
ATOM      9  H6  <0> d          -0.193   4.148  -1.408  0.00  0.00     0.078 H 
ATOM     10  H7  <0> d          -1.054   3.612   1.481  0.00  0.00     0.078 H 
ATOM     11  H8  <0> d          -2.139   4.000   0.120  0.00  0.00     0.078 H 
ENDROOT
BRANCH   1  12
ATOM     12  C1  <0> d           0.002  -0.004   0.002  0.00  0.00    -0.030 C 
ATOM     13  H1  <0> d           0.017  -0.373   1.028  0.00  0.00     0.036 H 
ATOM     14  H2  <0> d          -0.888  -0.377  -0.505  0.00  0.00     0.036 H 
ATOM     15  H3  <0> d           0.892  -0.352  -0.522  0.00  0.00     0.036 H 
ENDBRANCH   1  12
TORSDOF 1
