REMARK  3 active torsions:
REMARK  status: ('A' for Active; 'I' for Inactive)
REMARK    1  A    between atoms: C1_1  and  C2_2 
REMARK    2  A    between atoms: C4_4  and  N1_10 
REMARK    3  A    between atoms: C7_7  and  O1_8 
ROOT
ATOM      1  C2  <0> d          -0.017   1.377   0.010  0.00  0.00    -0.025 A 
ATOM      2  C3  <0> d           0.002  -0.004   0.002  0.00  0.00    -0.049 A 
ATOM      3  C4  <0> d           1.214  -0.682  -0.013  0.00  0.00     0.028 A 
ATOM      4  C5  <0> d           2.406   0.029  -0.021  0.00  0.00    -0.034 A 
ATOM      5  C6  <0> d           2.386   1.411  -0.013  0.00  0.00     0.069 A 
ATOM      6  C7  <0> d           1.174   2.087   0.002  0.00  0.00     0.093 A 
ATOM      7 Cl1  <0> d           3.877   2.301  -0.022  0.00  0.00    -0.081 Cl
ATOM      8  H4  <0> d          -0.926  -0.557   0.007  0.00  0.00     0.087 H 
ATOM      9  H5  <0> d           3.349  -0.497  -0.032  0.00  0.00     0.089 H 
ENDROOT
BRANCH   1  10
ATOM     10  C1  <0> d          -1.332   2.113   0.020  0.00  0.00    -0.049 C 
ATOM     11  H1  <0> d          -1.644   2.284   1.050  0.00  0.00     0.033 H 
ATOM     12  H2  <0> d          -1.217   3.070  -0.489  0.00  0.00     0.033 H 
ATOM     13  H3  <0> d          -2.086   1.516  -0.494  0.00  0.00     0.033 H 
ENDBRANCH   1  10
BRANCH   6  14
ATOM     14  O1  <0> d           1.154   3.448   0.009  0.00  0.00    -0.358 OA
ATOM     15  H6  <0> d           1.157   3.836   0.895  0.00  0.00     0.217 HD
ENDBRANCH   6  14
BRANCH   3  16
ATOM     16  N1  <0> d           1.233  -2.081  -0.020  0.00  0.00    -0.399 N 
ATOM     17  H7  <0> d           0.400  -2.578  -0.015  0.00  0.00     0.156 HD
ATOM     18  H8  <0> d           2.080  -2.554  -0.031  0.00  0.00     0.156 HD
ENDBRANCH   3  16
TORSDOF 3
