REMARK  2 active torsions:
REMARK  status: ('A' for Active; 'I' for Inactive)
REMARK    1  A    between atoms: C1_1  and  N1_2 
REMARK    2  A    between atoms: C4_6  and  C5_7 
ROOT
ATOM      1  C5  <0> d           2.452   1.490  -0.013  0.00  0.00    -0.058 C 
ATOM      2  C6  <0> d           3.579   1.159  -0.026  0.00  0.00    -0.147 C 
ATOM      3  H6  <0> d           4.586   0.863  -0.037  0.00  0.00     0.167 H 
ENDROOT
BRANCH   1   4
ATOM      4  C4  <0> d           1.078   1.893   0.002  0.00  0.00     0.106 A 
ATOM      5  N1  <0> d           0.598   3.185   0.013  0.00  0.00    -0.338 N 
ATOM      6  C2  <0> d          -0.751   3.106   0.026  0.00  0.00     0.066 A 
ATOM      7  N2  <0> d          -1.104   1.848   0.017  0.00  0.00    -0.253 NA
ATOM      8  H4  <0> d          -1.428   3.947   0.036  0.00  0.00     0.143 H 
ATOM      9  C3  <0> d          -0.013   1.076   0.008  0.00  0.00     0.038 A 
ATOM     10  H5  <0> d           0.002  -0.004   0.002  0.00  0.00     0.119 H 
BRANCH   5  11
ATOM     11  C1  <0> d           1.398   4.412   0.013  0.00  0.00    -0.012 C 
ATOM     12  H1  <0> d           1.587   4.722  -1.014  0.00  0.00     0.057 H 
ATOM     13  H2  <0> d           0.856   5.199   0.536  0.00  0.00     0.057 H 
ATOM     14  H3  <0> d           2.346   4.227   0.517  0.00  0.00     0.057 H 
ENDBRANCH   5  11
ENDBRANCH   1   4
TORSDOF 2
