REMARK  4 active torsions:
REMARK  status: ('A' for Active; 'I' for Inactive)
REMARK    1  A    between atoms: C1_1  and  N1_2 
REMARK    2  A    between atoms: C2_3  and  C5_7 
REMARK    3  A    between atoms: C5_7  and  O2_9 
REMARK    4  A    between atoms: O2_9  and  C6_10 
ROOT
ATOM      1  N1  <0> d          -0.650   3.182   0.024  0.00  0.00    -0.269 N 
ATOM      2  C2  <0> d          -1.125   1.900   0.017  0.00  0.00     0.128 A 
ATOM      3  C3  <0> d          -0.013   1.076   0.008  0.00  0.00    -0.031 A 
ATOM      4  C4  <0> d           1.086   1.938   0.002  0.00  0.00     0.024 A 
ATOM      5  N2  <0> d           0.634   3.166   0.012  0.00  0.00    -0.185 NA
ATOM      6  H4  <0> d           0.002  -0.004   0.002  0.00  0.00     0.089 H 
ATOM      7  H5  <0> d           2.125   1.643  -0.009  0.00  0.00     0.117 H 
ENDROOT
BRANCH   2   8
ATOM      8  C5  <0> d          -2.534   1.481   0.020  0.00  0.00     0.311 C 
ATOM      9  O1  <0> d          -2.817   0.299   0.015  0.00  0.00    -0.258 OA
BRANCH   8  10
ATOM     10  O2  <0> d          -3.513   2.408   0.029  0.00  0.00    -0.321 OA
BRANCH  10  11
ATOM     11  C6  <0> d          -4.881   1.922   0.032  0.00  0.00     0.013 C 
ATOM     12  H6  <0> d          -5.568   2.769   0.038  0.00  0.00     0.067 H 
ATOM     13  H7  <0> d          -5.055   1.321  -0.861  0.00  0.00     0.067 H 
ATOM     14  H8  <0> d          -5.048   1.312   0.919  0.00  0.00     0.067 H 
ENDBRANCH  10  11
ENDBRANCH   8  10
ENDBRANCH   2   8
BRANCH   1  15
ATOM     15  C1  <0> d          -1.480   4.389   0.037  0.00  0.00     0.003 C 
ATOM     16  H1  <0> d          -1.694   4.694  -0.987  0.00  0.00     0.059 H 
ATOM     17  H2  <0> d          -2.414   4.183   0.558  0.00  0.00     0.059 H 
ATOM     18  H3  <0> d          -0.947   5.190   0.550  0.00  0.00     0.059 H 
ENDBRANCH   1  15
TORSDOF 4
