REMARK  5 active torsions:
REMARK  status: ('A' for Active; 'I' for Inactive)
REMARK    1  A    between atoms: C1_1  and  C2_2 
REMARK    2  A    between atoms: C2_2  and  C3_3 
REMARK    3  A    between atoms: C2_2  and  C4_4 
REMARK    4  A    between atoms: C2_2  and  O1_8 
REMARK    5  A    between atoms: C5_5  and  C6_6 
ROOT
ATOM      1  C6  <0> d          -3.772  -1.397   0.031  0.00  0.00    -0.026 C 
ATOM      2  C7  <0> d          -4.873  -1.803   0.039  0.00  0.00    -0.141 C 
ATOM      3  H7  <0> d          -5.859  -2.166   0.046  0.00  0.00     0.167 H 
ENDROOT
BRANCH   1   4
ATOM      4  C5  <0> d          -2.480  -0.920   0.021  0.00  0.00    -0.013 C 
ATOM      5  C4  <0> d          -1.379  -0.514   0.013  0.00  0.00    -0.055 C 
BRANCH   5   6
ATOM      6  C2  <0> d           0.002  -0.004   0.002  0.00  0.00     0.114 C 
BRANCH   6   7
ATOM      7  C1  <0> d          -0.019   1.526   0.010  0.00  0.00    -0.038 C 
ATOM      8  H1  <0> d           1.004   1.903   0.003  0.00  0.00     0.033 H 
ATOM      9  H2  <0> d          -0.546   1.887  -0.873  0.00  0.00     0.033 H 
ATOM     10  H3  <0> d          -0.529   1.877   0.907  0.00  0.00     0.033 H 
ENDBRANCH   6   7
BRANCH   6  11
ATOM     11  C3  <0> d           0.742  -0.511   1.242  0.00  0.00    -0.038 C 
ATOM     12  H4  <0> d           0.232  -0.159   2.138  0.00  0.00     0.033 H 
ATOM     13  H5  <0> d           0.757  -1.601   1.236  0.00  0.00     0.033 H 
ATOM     14  H6  <0> d           1.765  -0.134   1.234  0.00  0.00     0.033 H 
ENDBRANCH   6  11
BRANCH   6  15
ATOM     15  O1  <0> d           0.671  -0.465  -1.174  0.00  0.00    -0.378 OA
ATOM     16  H8  <0> d           1.588  -0.167  -1.247  0.00  0.00     0.211 HD
ENDBRANCH   6  15
ENDBRANCH   5   6
ENDBRANCH   1   4
TORSDOF 5
