REMARK  1 active torsions:
REMARK  status: ('A' for Active; 'I' for Inactive)
REMARK    1  A    between atoms: C4_4  and  C7_7 
ROOT
ATOM      1  C1  <0> d          -1.220   1.750   0.017  0.00  0.00    -0.083 A 
ATOM      2  C2  <0> d          -0.013   1.076   0.008  0.00  0.00    -0.082 A 
ATOM      3  C3  <0> d           1.174   1.781   0.000  0.00  0.00    -0.072 A 
ATOM      4  C4  <0> d           1.154   3.174   0.008  0.00  0.00    -0.023 A 
ATOM      5  C5  <0> d          -0.066   3.848   0.023  0.00  0.00    -0.072 A 
ATOM      6  C6  <0> d          -1.246   3.133   0.031  0.00  0.00    -0.082 A 
ATOM      7  H2  <0> d          -2.147   1.194   0.018  0.00  0.00     0.083 H 
ATOM      8  H3  <0> d           0.002  -0.004   0.002  0.00  0.00     0.083 H 
ATOM      9  H4  <0> d           2.116   1.254  -0.011  0.00  0.00     0.084 H 
ATOM     10  H5  <0> d          -0.087   4.927   0.030  0.00  0.00     0.084 H 
ATOM     11  H6  <0> d          -2.192   3.654   0.043  0.00  0.00     0.083 H 
ENDROOT
BRANCH   4  12
ATOM     12  C7  <0> d           2.427   3.938  -0.001  0.00  0.00     0.010 A 
ATOM     13  C9  <0> d           3.725   3.391  -0.017  0.00  0.00     0.034 A 
ATOM     14  N2  <0> d           4.581   4.379  -0.020  0.00  0.00    -0.187 NA
ATOM     15  H8  <0> d           3.970   2.340  -0.025  0.00  0.00     0.118 H 
ATOM     16  N1  <0> d           3.869   5.584  -0.006  0.00  0.00    -0.289 N 
ATOM     17  C8  <0> d           2.552   5.296   0.000  0.00  0.00     0.008 A 
ATOM     18  H1  <0> d           4.269   6.501  -0.002  0.00  0.00     0.188 HD
ATOM     19  H7  <0> d           1.743   6.011   0.007  0.00  0.00     0.115 H 
ENDBRANCH   4  12
TORSDOF 1
