REMARK  2 active torsions:
REMARK  status: ('A' for Active; 'I' for Inactive)
REMARK    1  A    between atoms: C1_1  and  C2_2 
REMARK    2  A    between atoms: C3_3  and  C4_4 
ROOT
ATOM      1  C4  <0> d          -2.673   1.710   2.684  0.00  0.00    -0.034 A 
ATOM      2  C5  <0> d          -2.011   2.515   3.619  0.00  0.00    -0.056 A 
ATOM      3  C6  <0> d          -2.697   2.941   4.738  0.00  0.00     0.003 A 
ATOM      4  N1  <0> d          -3.953   2.591   4.936  0.00  0.00    -0.273 NA
ATOM      5  C7  <0> d          -4.612   1.831   4.083  0.00  0.00     0.003 A 
ATOM      6  C8  <0> d          -4.005   1.364   2.935  0.00  0.00    -0.056 A 
ATOM      7  H6  <0> d          -0.982   2.801   3.465  0.00  0.00     0.086 H 
ATOM      8  H7  <0> d          -2.196   3.565   5.463  0.00  0.00     0.114 H 
ATOM      9  H8  <0> d          -5.640   1.569   4.286  0.00  0.00     0.114 H 
ATOM     10  H9  <0> d          -4.551   0.742   2.241  0.00  0.00     0.086 H 
ENDROOT
BRANCH   1  11
ATOM     11  C3  <0> d          -1.981   1.233   1.468  0.00  0.00    -0.077 C 
ATOM     12  C2  <0> d          -0.718   1.572   1.248  0.00  0.00    -0.106 C 
ATOM     13  H4  <0> d          -0.185   2.208   1.970  0.00  0.00     0.076 H 
ATOM     14  H5  <0> d          -2.514   0.597   0.746  0.00  0.00     0.084 H 
BRANCH  12  15
ATOM     15  C1  <0> d          -0.013   1.086   0.008  0.00  0.00    -0.060 C 
ATOM     16  H1  <0> d           1.019   1.467   0.000  0.00  0.00     0.032 H 
ATOM     17  H2  <0> d          -0.545   1.450  -0.883  0.00  0.00     0.032 H 
ATOM     18  H3  <0> d           0.002  -0.014   0.002  0.00  0.00     0.032 H 
ENDBRANCH  12  15
ENDBRANCH   1  11
TORSDOF 2
