REMARK  1 active torsions:
REMARK  status: ('A' for Active; 'I' for Inactive)
REMARK    1  A    between atoms: C6_6  and  O1_7 
ROOT
ATOM      1  C1  <0> d           1.845   1.831  -1.205  0.00  0.00    -0.048 A 
ATOM      2  C2  <0> d           3.097   2.410  -1.218  0.00  0.00    -0.047 A 
ATOM      3  C3  <0> d           3.750   2.699  -0.021  0.00  0.00     0.086 A 
ATOM      4  C4  <0> d           3.118   2.395   1.177  0.00  0.00    -0.012 A 
ATOM      5  C5  <0> d           1.867   1.824   1.194  0.00  0.00    -0.042 A 
ATOM      6  C6  <0> d           1.223   1.533  -0.001  0.00  0.00     0.066 A 
ATOM      7  C7  <0> d           4.070   2.824   2.272  0.00  0.00     0.043 A 
ATOM      8  C8  <0> d           5.254   3.378   1.505  0.00  0.00     0.268 A 
ATOM      9  O2  <0> d           6.265   3.841   1.978  0.00  0.00    -0.265 OA
ATOM     10  O3  <0> d           4.964   3.257   0.205  0.00  0.00    -0.278 OA
ATOM     11  H1  <0> d           1.346   1.610  -2.136  0.00  0.00     0.087 H 
ATOM     12  H2  <0> d           3.574   2.640  -2.159  0.00  0.00     0.087 H 
ATOM     13  H3  <0> d           1.387   1.599   2.136  0.00  0.00     0.088 H 
ATOM     14  H5  <0> d           3.618   3.597   2.893  0.00  0.00     0.055 H 
ATOM     15  H6  <0> d           4.368   1.969   2.879  0.00  0.00     0.055 H 
ENDROOT
BRANCH   6  16
ATOM     16  O1  <0> d          -0.011   0.963   0.007  0.00  0.00    -0.361 OA
ATOM     17  H4  <0> d           0.002  -0.004   0.002  0.00  0.00     0.217 HD
ENDBRANCH   6  16
TORSDOF 1
