REMARK  2 active torsions:
REMARK  status: ('A' for Active; 'I' for Inactive)
REMARK    1  A    between atoms: C4_5  and  C6_7 
REMARK    2  A    between atoms: C6_7  and  C7_9 
ROOT
ATOM      1  C7  <0> d          -1.568   5.948   0.049  0.00  0.00     0.075 C 
ATOM      2  C8  <0> d          -1.382   7.408   0.054  0.00  0.00     0.067 C 
ATOM      3  N2  <0> d          -1.239   8.535   0.059  0.00  0.00    -0.197 NA
ATOM      4  H5  <0> d          -2.085   5.681  -0.764  0.00  0.00     0.067 H 
ATOM      5  H6  <0> d          -2.114   5.648   0.943  0.00  0.00     0.067 H 
ENDROOT
BRANCH   1   6
ATOM      6  C6  <0> d          -0.222   5.271   0.032  0.00  0.00     0.190 C 
ATOM      7  O1  <0> d           0.792   5.936   0.026  0.00  0.00    -0.290 OA
BRANCH   6   8
ATOM      8  C4  <0> d          -0.137   3.797   0.024  0.00  0.00     0.103 A 
ATOM      9  N1  <0> d          -1.251   3.073   0.031  0.00  0.00    -0.257 NA
ATOM     10  C3  <0> d          -1.219   1.759   0.017  0.00  0.00     0.003 A 
ATOM     11  C2  <0> d          -0.013   1.076   0.008  0.00  0.00    -0.066 A 
ATOM     12  H3  <0> d          -2.145   1.204   0.019  0.00  0.00     0.114 H 
ATOM     13  C1  <0> d           1.175   1.792   0.001  0.00  0.00    -0.079 A 
ATOM     14  H2  <0> d           0.002  -0.004   0.002  0.00  0.00     0.085 H 
ATOM     15  C5  <0> d           1.112   3.176   0.009  0.00  0.00    -0.051 A 
ATOM     16  H1  <0> d           2.127   1.282  -0.011  0.00  0.00     0.083 H 
ATOM     17  H4  <0> d           2.017   3.765   0.003  0.00  0.00     0.087 H 
ENDBRANCH   6   8
ENDBRANCH   1   6
TORSDOF 2
