REMARK  1 active torsions:
REMARK  status: ('A' for Active; 'I' for Inactive)
REMARK    1  A    between atoms: C4_4  and  C7_7 
ROOT
ATOM      1  C7  <0> d          -1.136   1.773   0.788  0.00  0.00    -0.012 A 
ATOM      2  H1  <0> d          -0.897   2.708   1.294  0.00  0.00     0.049 H 
ATOM      3  C8  <0> d          -1.150   1.781  -0.743  0.00  0.00    -0.041 A 
ATOM      4  C9  <0> d          -0.013   1.086   0.008  0.00  0.00     0.038 A 
ATOM      5  H2  <0> d           0.002  -0.004   0.002  0.00  0.00     0.064 H 
ATOM      6  C10 <0> d           1.307   1.739  -0.001  0.00  0.00     0.064 C 
ATOM      7  N1  <0> d           2.325   2.243  -0.008  0.00  0.00    -0.197 NA
ATOM      8  H8  <0> d          -0.922   2.722  -1.243  0.00  0.00     0.036 H 
ATOM      9  H9  <0> d          -1.883   1.149  -1.243  0.00  0.00     0.036 H 
ENDROOT
BRANCH   1  10
ATOM     10  C4  <0> d          -2.136   0.891   1.489  0.00  0.00    -0.053 A 
ATOM     11  C3  <0> d          -2.291   0.975   2.860  0.00  0.00    -0.076 A 
ATOM     12  C2  <0> d          -3.209   0.166   3.503  0.00  0.00    -0.082 A 
ATOM     13  H5  <0> d          -1.694   1.673   3.429  0.00  0.00     0.084 H 
ATOM     14  C1  <0> d          -3.973  -0.727   2.775  0.00  0.00    -0.083 A 
ATOM     15  H4  <0> d          -3.329   0.231   4.574  0.00  0.00     0.083 H 
ATOM     16  C6  <0> d          -3.819  -0.810   1.404  0.00  0.00    -0.082 A 
ATOM     17  H3  <0> d          -4.690  -1.359   3.277  0.00  0.00     0.083 H 
ATOM     18  C5  <0> d          -2.904   0.002   0.760  0.00  0.00    -0.076 A 
ATOM     19  H7  <0> d          -4.416  -1.508   0.835  0.00  0.00     0.083 H 
ATOM     20  H6  <0> d          -2.786  -0.061  -0.312  0.00  0.00     0.084 H 
ENDBRANCH   1  10
TORSDOF 1
