REMARK  3 active torsions:
REMARK  status: ('A' for Active; 'I' for Inactive)
REMARK    1  A    between atoms: C1_1  and  C2_2 
REMARK    2  A    between atoms: C2_2  and  O2_4 
REMARK    3  A    between atoms: O2_4  and  C3_5 
ROOT
ATOM      1  C3  <0> d          -0.041   3.869   1.006  0.00  0.00     0.049 C 
ATOM      2  C4  <0> d           1.223   3.019   1.141  0.00  0.00    -0.034 C 
ATOM      3  C5  <0> d           1.274   1.997   0.001  0.00  0.00    -0.007 C 
ATOM      4  C6  <0> d          -0.014   1.203   0.009  0.00  0.00     0.127 C 
ATOM      5  O3  <0> d           0.002  -0.004   0.002  0.00  0.00    -0.298 OA
ATOM      6  C7  <0> d          -1.323   1.961   0.019  0.00  0.00    -0.007 C 
ATOM      7  C8  <0> d          -1.280   2.985   1.164  0.00  0.00    -0.034 C 
ATOM      8  H4  <0> d          -0.057   4.388   0.036  0.00  0.00     0.084 H 
ATOM      9  H5  <0> d           2.109   3.669   1.091  0.00  0.00     0.037 H 
ATOM     10  H6  <0> d           1.209   2.492   2.106  0.00  0.00     0.037 H 
ATOM     11  H7  <0> d           1.384   2.523  -0.959  0.00  0.00     0.044 H 
ATOM     12  H8  <0> d           2.130   1.323   0.150  0.00  0.00     0.044 H 
ATOM     13  H9  <0> d          -1.456   2.478  -0.943  0.00  0.00     0.044 H 
ATOM     14  H10 <0> d          -2.154   1.257   0.174  0.00  0.00     0.044 H 
ATOM     15  H11 <0> d          -1.232   2.457   2.128  0.00  0.00     0.037 H 
ATOM     16  H12 <0> d          -2.183   3.611   1.133  0.00  0.00     0.037 H 
ENDROOT
BRANCH   1  17
ATOM     17  O2  <0> d          -0.046   4.894   2.034  0.00  0.00    -0.316 OA
BRANCH  17  18
ATOM     18  C2  <0> d          -0.665   6.048   1.741  0.00  0.00     0.255 C 
ATOM     19  O1  <0> d          -1.187   6.197   0.661  0.00  0.00    -0.266 OA
BRANCH  18  20
ATOM     20  C1  <0> d          -0.711   7.159   2.759  0.00  0.00     0.004 C 
ATOM     21  H1  <0> d          -0.187   6.841   3.672  0.00  0.00     0.041 H 
ATOM     22  H2  <0> d          -1.758   7.393   2.999  0.00  0.00     0.041 H 
ATOM     23  H3  <0> d          -0.220   8.053   2.347  0.00  0.00     0.041 H 
ENDBRANCH  18  20
ENDBRANCH  17  18
ENDBRANCH   1  17
TORSDOF 3
