REMARK  3 active torsions:
REMARK  status: ('A' for Active; 'I' for Inactive)
REMARK    1  A    between atoms: C1_1  and  C2_2 
REMARK    2  A    between atoms: C2_2  and  C3_4 
REMARK    3  A    between atoms: C2_2  and  O1_9 
ROOT
ATOM      1  C2  <0> d           0.002  -0.004   0.002  0.00  0.00     0.065 C 
ATOM      2  H1  <0> d           0.529  -0.365   0.885  0.00  0.00     0.090 H 
ENDROOT
BRANCH   1   3
ATOM      3  C1  <0> d          -0.019   1.526   0.010  0.00  0.00    -0.048 C 
ATOM      4  H2  <0> d           1.004   1.903   0.003  0.00  0.00     0.031 H 
ATOM      5  H3  <0> d          -0.546   1.887  -0.873  0.00  0.00     0.031 H 
ATOM      6  H4  <0> d          -0.529   1.877   0.907  0.00  0.00     0.031 H 
ENDBRANCH   1   3
BRANCH   1   7
ATOM      7  C3  <0> d          -1.412  -0.526   0.013  0.00  0.00     0.029 A 
ATOM      8  S1  <0> d          -2.536  -0.800  -1.347  0.00  0.00    -0.083 SA
ATOM      9  C5  <0> d          -3.842  -1.375  -0.454  0.00  0.00     0.040 A 
ATOM     10  N1  <0> d          -3.403  -1.333   0.779  0.00  0.00    -0.265 NA
ATOM     11  H6  <0> d          -4.809  -1.698  -0.811  0.00  0.00     0.126 H 
ATOM     12  C4  <0> d          -2.186  -0.912   1.059  0.00  0.00     0.018 A 
ATOM     13  H5  <0> d          -1.821  -0.875   2.075  0.00  0.00     0.116 H 
ENDBRANCH   1   7
BRANCH   1  14
ATOM     14  O1  <0> d           0.671  -0.465  -1.174  0.00  0.00    -0.391 OA
ATOM     15  H7  <0> d           1.588  -0.167  -1.247  0.00  0.00     0.210 HD
ENDBRANCH   1  14
TORSDOF 3
