REMARK  2 active torsions:
REMARK  status: ('A' for Active; 'I' for Inactive)
REMARK    1  A    between atoms: C3_4  and  S1_7 
REMARK    2  A    between atoms: S1_7  and  C5_8 
ROOT
ATOM      1  C5  <0> d           4.992   0.554  -0.043  0.00  0.00     0.063 C 
ATOM      2  C6  <0> d           6.371   0.040  -0.059  0.00  0.00     0.069 C 
ATOM      3  N3  <0> d           7.435  -0.357  -0.072  0.00  0.00    -0.197 NA
ATOM      4  H4  <0> d           4.823   1.168  -0.928  0.00  0.00     0.071 H 
ATOM      5  H5  <0> d           4.840   1.158   0.852  0.00  0.00     0.071 H 
ENDROOT
BRANCH   1   6
ATOM      6  S1  <0> d           3.830  -0.833  -0.040  0.00  0.00    -0.076 SA
BRANCH   6   7
ATOM      7  C3  <0> d           2.303   0.046  -0.020  0.00  0.00     0.188 A 
ATOM      8  N1  <0> d           2.320   1.371  -0.013  0.00  0.00    -0.235 NA
ATOM      9  C2  <0> d           1.192   2.061   0.002  0.00  0.00     0.006 A 
ATOM     10  C1  <0> d          -0.017   1.382   0.010  0.00  0.00    -0.049 A 
ATOM     11  H2  <0> d           1.211   3.141   0.007  0.00  0.00     0.114 H 
ATOM     12  C4  <0> d           0.002  -0.004   0.002  0.00  0.00     0.006 A 
ATOM     13  H1  <0> d          -0.953   1.921   0.017  0.00  0.00     0.087 H 
ATOM     14  N2  <0> d           1.165  -0.634  -0.013  0.00  0.00    -0.235 NA
ATOM     15  H3  <0> d          -0.922  -0.563   0.007  0.00  0.00     0.114 H 
ENDBRANCH   6   7
ENDBRANCH   1   6
TORSDOF 2
