REMARK  5 active torsions:
REMARK  status: ('A' for Active; 'I' for Inactive)
REMARK    1  A    between atoms: C1_1  and  C2_2 
REMARK    2  A    between atoms: C2_2  and  C3_3 
REMARK    3  A    between atoms: C2_2  and  C4_4 
REMARK    4  A    between atoms: C4_4  and  C5_6 
REMARK    5  A    between atoms: C4_4  and  N1_10 
ROOT
ATOM      1  C2  <0> d           0.015  -0.020  -0.010  0.00  0.00    -0.023 C 
ATOM      2  H5  <0> d           0.464  -0.446  -0.907  0.00  0.00     0.042 H 
ENDROOT
BRANCH   1   3
ATOM      3  C1  <0> d           0.005   1.506  -0.120  0.00  0.00    -0.071 C 
ATOM      4  H2  <0> d           1.031   1.876  -0.127  0.00  0.00     0.028 H 
ATOM      5  H3  <0> d          -0.494   1.800  -1.043  0.00  0.00     0.028 H 
ATOM      6  H4  <0> d          -0.528   1.928   0.732  0.00  0.00     0.028 H 
ENDBRANCH   1   3
BRANCH   1   7
ATOM      7  C3  <0> d           0.831  -0.438   1.216  0.00  0.00    -0.071 C 
ATOM      8  H6  <0> d           0.334  -0.086   2.120  0.00  0.00     0.028 H 
ATOM      9  H7  <0> d           0.912  -1.524   1.245  0.00  0.00     0.028 H 
ATOM     10  H8  <0> d           1.827  -0.000   1.155  0.00  0.00     0.028 H 
ENDBRANCH   1   7
BRANCH   1  11
ATOM     11  C4  <0> d          -1.420  -0.530   0.134  0.00  0.00     0.225 C 
ATOM     12  H1  <0> d          -1.407  -1.605   0.314  0.00  0.00     0.102 H 
BRANCH  11  13
ATOM     13  C5  <0> d          -2.197  -0.238  -1.151  0.00  0.00     0.418 C 
ATOM     14  F1  <0> d          -1.506  -0.770  -2.245  0.00  0.00    -0.169 F 
ATOM     15  F2  <0> d          -3.466  -0.822  -1.072  0.00  0.00    -0.169 F 
ATOM     16  F3  <0> d          -2.329   1.146  -1.311  0.00  0.00    -0.169 F 
ENDBRANCH  11  13
BRANCH  11  17
ATOM     17  N1  <0> d          -2.069   0.147   1.264  0.00  0.00     0.092 N 
ATOM     18  H9  <0> d          -2.094   1.146   1.121  0.00  0.00     0.313 HD
ATOM     19  H10 <0> d          -2.996  -0.219   1.421  0.00  0.00     0.313 HD
ENDBRANCH  11  17
ENDBRANCH   1  11
TORSDOF 5
