REMARK  2 active torsions:
REMARK  status: ('A' for Active; 'I' for Inactive)
REMARK    1  A    between atoms: C1_1  and  O1_2 
REMARK    2  A    between atoms: O1_2  and  C2_3 
ROOT
ATOM      1  C2  <0> d           2.509   1.673  -0.012  0.00  0.00     0.082 A 
ATOM      2  C3  <0> d           3.389   2.736  -0.015  0.00  0.00    -0.050 A 
ATOM      3  C4  <0> d           2.916   4.041  -0.005  0.00  0.00    -0.078 A 
ATOM      4  C5  <0> d           1.564   4.298   0.009  0.00  0.00    -0.055 A 
ATOM      5  C6  <0> d           0.655   3.243   0.012  0.00  0.00     0.064 A 
ATOM      6  C7  <0> d           1.126   1.917   0.002  0.00  0.00     0.044 A 
ATOM      7  C8  <0> d          -0.013   1.076   0.008  0.00  0.00     0.036 A 
ATOM      8  N1  <0> d          -1.080   1.820   0.017  0.00  0.00    -0.186 NA
ATOM      9  N2  <0> d          -0.714   3.172   0.025  0.00  0.00    -0.278 N 
ATOM     10  H1  <0> d          -1.342   3.950   0.037  0.00  0.00     0.189 HD
ATOM     11  H5  <0> d           4.453   2.551  -0.026  0.00  0.00     0.087 H 
ATOM     12  H6  <0> d           3.616   4.864  -0.008  0.00  0.00     0.083 H 
ATOM     13  H7  <0> d           1.208   5.318   0.017  0.00  0.00     0.087 H 
ATOM     14  H8  <0> d           0.002  -0.004   0.002  0.00  0.00     0.118 H 
ENDROOT
BRANCH   1  15
ATOM     15  O1  <0> d           2.978   0.398  -0.022  0.00  0.00    -0.355 OA
BRANCH  15  16
ATOM     16  C1  <0> d           4.397   0.229  -0.036  0.00  0.00     0.010 C 
ATOM     17  H2  <0> d           4.811   0.700  -0.928  0.00  0.00     0.066 H 
ATOM     18  H3  <0> d           4.827   0.692   0.852  0.00  0.00     0.066 H 
ATOM     19  H4  <0> d           4.636  -0.834  -0.043  0.00  0.00     0.066 H 
ENDBRANCH  15  16
ENDBRANCH   1  15
TORSDOF 2
