REMARK  3 active torsions:
REMARK  status: ('A' for Active; 'I' for Inactive)
REMARK    1  A    between atoms: C1_1  and  C2_2 
REMARK    2  A    between atoms: C2_2  and  O1_3 
REMARK    3  A    between atoms: O1_3  and  C3_4 
ROOT
ATOM      1  C3  <0> d           0.002  -0.004   0.002  0.00  0.00     0.090 A 
ATOM      2  C4  <0> d           1.212  -0.682  -0.019  0.00  0.00    -0.049 A 
ATOM      3  C5  <0> d           1.228  -2.064  -0.021  0.00  0.00    -0.080 A 
ATOM      4  C6  <0> d           0.040  -2.771  -0.013  0.00  0.00    -0.081 A 
ATOM      5  C7  <0> d          -1.168  -2.098   0.002  0.00  0.00    -0.059 A 
ATOM      6  C8  <0> d          -1.190  -0.716   0.010  0.00  0.00     0.067 A 
ATOM      7 Cl1  <0> d          -2.706   0.129   0.028  0.00  0.00    -0.081 Cl
ATOM      8  H6  <0> d           2.140  -0.131  -0.030  0.00  0.00     0.087 H 
ATOM      9  H7  <0> d           2.170  -2.592  -0.033  0.00  0.00     0.083 H 
ATOM     10  H8  <0> d           0.055  -3.851  -0.019  0.00  0.00     0.083 H 
ATOM     11  H9  <0> d          -2.095  -2.653   0.007  0.00  0.00     0.086 H 
ENDROOT
BRANCH   1  12
ATOM     12  O1  <0> d          -0.016   1.355   0.009  0.00  0.00    -0.350 OA
BRANCH  12  13
ATOM     13  C2  <0> d           1.248   2.021   0.001  0.00  0.00     0.023 C 
ATOM     14  H4  <0> d           1.817   1.731   0.884  0.00  0.00     0.074 H 
ATOM     15  H5  <0> d           1.800   1.741  -0.896  0.00  0.00     0.074 H 
BRANCH  13  16
ATOM     16  C1  <0> d           1.027   3.535   0.011  0.00  0.00    -0.056 C 
ATOM     17  H1  <0> d           0.458   3.825  -0.872  0.00  0.00     0.030 H 
ATOM     18  H2  <0> d           0.474   3.816   0.908  0.00  0.00     0.030 H 
ATOM     19  H3  <0> d           1.991   4.043   0.005  0.00  0.00     0.030 H 
ENDBRANCH  13  16
ENDBRANCH  12  13
ENDBRANCH   1  12
TORSDOF 3
