REMARK  4 active torsions:
REMARK  status: ('A' for Active; 'I' for Inactive)
REMARK    1  A    between atoms: C1_1  and  C2_2 
REMARK    2  A    between atoms: C3_3  and  C6_9 
REMARK    3  A    between atoms: C4_4  and  C5_8 
REMARK    4  A    between atoms: C6_9  and  O1_10 
ROOT
ATOM      1  C2  <0> d           0.002  -0.004   0.002  0.00  0.00     0.034 A 
ATOM      2  C3  <0> d           0.008  -0.796  -1.095  0.00  0.00     0.015 A 
ATOM      3  C4  <0> d           0.028  -2.127  -0.666  0.00  0.00     0.061 A 
ATOM      4  N1  <0> d           0.035  -2.134   0.643  0.00  0.00    -0.179 NA
ATOM      5  N2  <0> d           0.024  -0.805   1.088  0.00  0.00    -0.282 N 
ATOM      6  H1  <0> d           0.029  -0.513   2.013  0.00  0.00     0.189 HD
ENDROOT
BRANCH   2   7
ATOM      7  C6  <0> d          -0.006  -0.327  -2.527  0.00  0.00     0.044 C 
ATOM      8  H8  <0> d          -0.512  -1.066  -3.147  0.00  0.00     0.081 H 
ATOM      9  H9  <0> d          -0.533   0.625  -2.593  0.00  0.00     0.081 H 
BRANCH   7  10
ATOM     10  O1  <0> d           1.337  -0.159  -2.987  0.00  0.00    -0.396 OA
ATOM     11  H10 <0> d           1.405   0.142  -3.903  0.00  0.00     0.209 HD
ENDBRANCH   7  10
ENDBRANCH   2   7
BRANCH   1  12
ATOM     12  C1  <0> d          -0.018   1.503   0.010  0.00  0.00    -0.035 C 
ATOM     13  H2  <0> d           1.004   1.880   0.003  0.00  0.00     0.035 H 
ATOM     14  H3  <0> d          -0.545   1.864  -0.873  0.00  0.00     0.035 H 
ATOM     15  H4  <0> d          -0.529   1.854   0.907  0.00  0.00     0.035 H 
ENDBRANCH   1  12
BRANCH   3  16
ATOM     16  C5  <0> d           0.040  -3.343  -1.556  0.00  0.00    -0.033 C 
ATOM     17  H5  <0> d           1.071  -3.622  -1.776  0.00  0.00     0.035 H 
ATOM     18  H6  <0> d          -0.460  -4.168  -1.050  0.00  0.00     0.035 H 
ATOM     19  H7  <0> d          -0.481  -3.117  -2.486  0.00  0.00     0.035 H 
ENDBRANCH   3  16
TORSDOF 4
