REMARK  9 active torsions:
REMARK  status: ('A' for Active; 'I' for Inactive)
REMARK    1  A    between atoms: C1_1  and  C2_2 
REMARK    2  A    between atoms: C2_2  and  C3_3 
REMARK    3  A    between atoms: C3_3  and  C4_4 
REMARK    4  A    between atoms: C4_4  and  C5_5 
REMARK    5  A    between atoms: C5_5  and  C6_7 
REMARK    6  A    between atoms: C5_5  and  C8_9 
REMARK    7  A    between atoms: C6_7  and  C7_8 
REMARK    8  A    between atoms: C8_9  and  C9_11 
REMARK    9  A    between atoms: C8_9  and  O1_12 
ROOT
ATOM      1  C5  <0> d          -1.813   0.511   1.405  0.00  0.00    -0.030 C 
ATOM      2  H1  <0> d          -1.846  -0.553   1.170  0.00  0.00     0.043 H 
ENDROOT
BRANCH   1   3
ATOM      3  C4  <0> d          -2.358   0.739   2.816  0.00  0.00    -0.059 C 
ATOM      4  H10 <0> d          -1.604   0.451   3.549  0.00  0.00     0.033 H 
ATOM      5  H11 <0> d          -2.606   1.792   2.944  0.00  0.00     0.033 H 
BRANCH   3   6
ATOM      6  C3  <0> d          -3.615  -0.110   3.020  0.00  0.00    -0.065 C 
ATOM      7  H8  <0> d          -4.379   0.195   2.304  0.00  0.00     0.033 H 
ATOM      8  H9  <0> d          -3.373  -1.161   2.868  0.00  0.00     0.033 H 
BRANCH   6   9
ATOM      9  C2  <0> d          -4.141   0.092   4.443  0.00  0.00    -0.069 C 
ATOM     10  H6  <0> d          -3.378  -0.212   5.159  0.00  0.00     0.032 H 
ATOM     11  H7  <0> d          -4.384   1.143   4.595  0.00  0.00     0.032 H 
BRANCH   9  12
ATOM     12  C1  <0> d          -5.398  -0.756   4.647  0.00  0.00    -0.077 C 
ATOM     13  H3  <0> d          -5.773  -0.613   5.660  0.00  0.00     0.027 H 
ATOM     14  H4  <0> d          -6.162  -0.452   3.931  0.00  0.00     0.027 H 
ATOM     15  H5  <0> d          -5.156  -1.808   4.495  0.00  0.00     0.027 H 
ENDBRANCH   9  12
ENDBRANCH   6   9
ENDBRANCH   3   6
ENDBRANCH   1   3
BRANCH   1  16
ATOM     16  C6  <0> d          -0.366   1.004   1.332  0.00  0.00    -0.063 C 
ATOM     17  H12 <0> d           0.219   0.531   2.120  0.00  0.00     0.033 H 
ATOM     18  H13 <0> d          -0.345   2.086   1.462  0.00  0.00     0.033 H 
BRANCH  16  19
ATOM     19  C7  <0> d           0.227   0.642  -0.031  0.00  0.00    -0.076 C 
ATOM     20  H14 <0> d           0.243  -0.442  -0.144  0.00  0.00     0.027 H 
ATOM     21  H15 <0> d           1.244   1.029  -0.099  0.00  0.00     0.027 H 
ATOM     22  H16 <0> d          -0.382   1.081  -0.821  0.00  0.00     0.027 H 
ENDBRANCH  16  19
ENDBRANCH   1  16
BRANCH   1  23
ATOM     23  C8  <0> d          -2.667   1.283   0.398  0.00  0.00     0.035 C 
ATOM     24  H2  <0> d          -2.285   1.112  -0.609  0.00  0.00     0.082 H 
BRANCH  23  25
ATOM     25  C9  <0> d          -2.607   2.778   0.718  0.00  0.00    -0.052 C 
ATOM     26  H17 <0> d          -1.578   3.126   0.636  0.00  0.00     0.030 H 
ATOM     27  H18 <0> d          -3.233   3.326   0.014  0.00  0.00     0.030 H 
ATOM     28  H19 <0> d          -2.968   2.946   1.733  0.00  0.00     0.030 H 
ENDBRANCH  23  25
BRANCH  23  29
ATOM     29  O1  <0> d          -4.021   0.832   0.476  0.00  0.00    -0.396 OA
ATOM     30  H20 <0> d          -4.535   1.253   1.179  0.00  0.00     0.210 HD
ENDBRANCH  23  29
ENDBRANCH   1  23
TORSDOF 9
