REMARK  5 active torsions:
REMARK  status: ('A' for Active; 'I' for Inactive)
REMARK    1  A    between atoms: C1_1  and  C2_2 
REMARK    2  A    between atoms: C2_2  and  C3_4 
REMARK    3  A    between atoms: C2_2  and  N1_7 
REMARK    4  A    between atoms: C3_4  and  O1_5 
REMARK    5  A    between atoms: O1_5  and  C4_6 
ROOT
ATOM      1  C2  <0> d          -0.729   1.579   1.267  0.00  0.00     0.033 C 
ATOM      2  H1  <0> d          -0.822   2.665   1.230  0.00  0.00     0.075 H 
ENDROOT
BRANCH   1   3
ATOM      3  C1  <0> d          -2.121   0.950   1.341  0.00  0.00    -0.055 C 
ATOM      4  H2  <0> d          -2.632   1.301   2.238  0.00  0.00     0.030 H 
ATOM      5  H3  <0> d          -2.697   1.235   0.460  0.00  0.00     0.030 H 
ATOM      6  H4  <0> d          -2.028  -0.136   1.378  0.00  0.00     0.030 H 
ENDBRANCH   1   3
BRANCH   1   7
ATOM      7  C3  <0> d          -0.013   1.086   0.008  0.00  0.00     0.038 C 
ATOM      8  H5  <0> d           0.002  -0.004   0.002  0.00  0.00     0.077 H 
ATOM      9  H6  <0> d           1.010   1.463   0.000  0.00  0.00     0.077 H 
BRANCH   7  10
ATOM     10  O1  <0> d          -0.704   1.559  -1.150  0.00  0.00    -0.394 OA
BRANCH  10  11
ATOM     11  C4  <0> d          -0.114   1.152  -2.386  0.00  0.00     0.004 C 
ATOM     12  H7  <0> d          -0.697   1.552  -3.216  0.00  0.00     0.066 H 
ATOM     13  H8  <0> d           0.907   1.531  -2.443  0.00  0.00     0.066 H 
ATOM     14  H9  <0> d          -0.101   0.064  -2.442  0.00  0.00     0.066 H 
ENDBRANCH  10  11
ENDBRANCH   7  10
ENDBRANCH   1   7
BRANCH   1  15
ATOM     15  N1  <0> d           0.044   1.196   2.451  0.00  0.00    -0.360 N 
ATOM     16  C8  <0> d           0.570   2.055   3.369  0.00  0.00    -0.020 A 
ATOM     17  C7  <0> d           1.210   1.329   4.308  0.00  0.00    -0.067 A 
ATOM     18  H13 <0> d           0.487   3.132   3.349  0.00  0.00     0.111 H 
ATOM     19  C6  <0> d           1.075  -0.028   3.956  0.00  0.00    -0.067 A 
ATOM     20  H12 <0> d           1.731   1.717   5.171  0.00  0.00     0.085 H 
ATOM     21  C5  <0> d           0.352  -0.081   2.819  0.00  0.00    -0.020 A 
ATOM     22  H11 <0> d           1.473  -0.872   4.500  0.00  0.00     0.085 H 
ATOM     23  H10 <0> d           0.069  -0.978   2.290  0.00  0.00     0.111 H 
ENDBRANCH   1  15
TORSDOF 5
