REMARK  3 active torsions:
REMARK  status: ('A' for Active; 'I' for Inactive)
REMARK    1  A    between atoms: C1_1  and  C2_2 
REMARK    2  A    between atoms: C2_2  and  C3_3 
REMARK    3  A    between atoms: C3_3  and  C4_4 
ROOT
ATOM      1  C4  <0> d          -0.050   3.840   0.023  0.00  0.00    -0.058 A 
ATOM      2  C5  <0> d           1.156   3.165   0.008  0.00  0.00    -0.077 A 
ATOM      3  C6  <0> d           1.175   1.783   0.000  0.00  0.00    -0.082 A 
ATOM      4  C7  <0> d          -0.013   1.076   0.008  0.00  0.00    -0.083 A 
ATOM      5  C8  <0> d          -1.219   1.751   0.017  0.00  0.00    -0.082 A 
ATOM      6  C9  <0> d          -1.238   3.133   0.030  0.00  0.00    -0.077 A 
ATOM      7  H8  <0> d           2.084   3.718   0.002  0.00  0.00     0.084 H 
ATOM      8  H9  <0> d           2.118   1.256  -0.011  0.00  0.00     0.083 H 
ATOM      9  H10 <0> d           0.002  -0.004   0.002  0.00  0.00     0.083 H 
ATOM     10  H11 <0> d          -2.147   1.198   0.019  0.00  0.00     0.083 H 
ATOM     11  H12 <0> d          -2.180   3.660   0.041  0.00  0.00     0.084 H 
ENDROOT
BRANCH   1  12
ATOM     12  C3  <0> d          -0.070   5.347   0.031  0.00  0.00    -0.041 C 
ATOM     13  H6  <0> d          -0.960   5.696   0.555  0.00  0.00     0.040 H 
ATOM     14  H7  <0> d           0.819   5.720   0.538  0.00  0.00     0.040 H 
BRANCH  12  15
ATOM     15  C2  <0> d          -0.091   5.865  -1.409  0.00  0.00    -0.065 C 
ATOM     16  H4  <0> d           0.799   5.516  -1.933  0.00  0.00     0.032 H 
ATOM     17  H5  <0> d          -0.981   5.492  -1.916  0.00  0.00     0.032 H 
BRANCH  15  18
ATOM     18  C1  <0> d          -0.112   7.395  -1.400  0.00  0.00    -0.076 C 
ATOM     19  H1  <0> d           0.778   7.767  -0.893  0.00  0.00     0.027 H 
ATOM     20  H2  <0> d          -0.127   7.763  -2.426  0.00  0.00     0.027 H 
ATOM     21  H3  <0> d          -1.002   7.743  -0.876  0.00  0.00     0.027 H 
ENDBRANCH  15  18
ENDBRANCH  12  15
ENDBRANCH   1  12
TORSDOF 3
