REMARK  1 active torsions:
REMARK  status: ('A' for Active; 'I' for Inactive)
REMARK    1  A    between atoms: C1_1  and  C2_2 
ROOT
ATOM      1  C2  <0> d           1.187   1.961   0.001  0.00  0.00     0.123 A 
ATOM      2  C3  <0> d          -0.015   1.215   0.009  0.00  0.00     0.310 A 
ATOM      3  O1  <0> d           0.002  -0.004   0.002  0.00  0.00    -0.263 OA
ATOM      4  N1  <0> d          -1.177   1.894   0.018  0.00  0.00    -0.017 N 
ATOM      5  C4  <0> d          -1.154   3.262   0.030  0.00  0.00     0.772 A 
ATOM      6  N2  <0> d          -2.429   3.690   0.044  0.00  0.00    -0.051 NA
ATOM      7  C5  <0> d          -3.247   2.671   0.032  0.00  0.00     0.126 A 
ATOM      8  N3  <0> d          -2.525   1.518   0.022  0.00  0.00    -0.142 NA
ATOM      9  N4  <0> d           0.009   3.901   0.022  0.00  0.00     0.046 NA
ATOM     10  N5  <0> d           1.129   3.273   0.008  0.00  0.00    -0.133 NA
ATOM     11  H4  <0> d          -4.325   2.733   0.037  0.00  0.00     0.150 H 
ENDROOT
BRANCH   1  12
ATOM     12  C1  <0> d           2.519   1.257  -0.015  0.00  0.00    -0.028 C 
ATOM     13  H1  <0> d           2.360   0.169  -0.019  0.00  0.00     0.036 H 
ATOM     14  H2  <0> d           3.095   1.540   0.879  0.00  0.00     0.036 H 
ATOM     15  H3  <0> d           3.077   1.549  -0.917  0.00  0.00     0.036 H 
ENDBRANCH   1  12
TORSDOF 1
