REMARK  0 active torsions:
REMARK  status: ('A' for Active; 'I' for Inactive)
ROOT
ATOM      1  C1  <0> d          -0.019   1.541   0.011  0.00  0.00    -0.048 C 
ATOM      2  C2  <0> d           1.491   1.916  -0.002  0.00  0.00    -0.044 C 
ATOM      3  C3  <0> d           2.067   0.783   0.873  0.00  0.00     0.015 C 
ATOM      4  H1  <0> d           1.898   0.967   1.934  0.00  0.00     0.072 H 
ATOM      5  C4  <0> d           3.552   0.534   0.567  0.00  0.00    -0.038 C 
ATOM      6  C5  <0> d           3.625  -1.008   0.710  0.00  0.00     0.011 C 
ATOM      7  C6  <0> d           2.217  -1.477   0.410  0.00  0.00     0.220 C 
ATOM      8  O1  <0> d           1.897  -2.631   0.219  0.00  0.00    -0.273 OA
ATOM      9  N1  <0> d           1.356  -0.425   0.402  0.00  0.00    -0.347 N 
ATOM     10  C7  <0> d           0.002  -0.004   0.002  0.00  0.00    -0.002 C 
ATOM     11  H2  <0> d          -0.501   1.914   0.914  0.00  0.00     0.035 H 
ATOM     12  H3  <0> d          -0.518   1.924  -0.880  0.00  0.00     0.035 H 
ATOM     13  H4  <0> d           1.898   1.880  -1.012  0.00  0.00     0.036 H 
ATOM     14  H5  <0> d           1.659   2.891   0.455  0.00  0.00     0.036 H 
ATOM     15  H6  <0> d           3.803   0.847  -0.446  0.00  0.00     0.036 H 
ATOM     16  H7  <0> d           4.192   1.027   1.299  0.00  0.00     0.036 H 
ATOM     17  H8  <0> d           4.328  -1.424  -0.012  0.00  0.00     0.047 H 
ATOM     18  H9  <0> d           3.911  -1.284   1.725  0.00  0.00     0.047 H 
ATOM     19  H10 <0> d          -0.730  -0.389   0.712  0.00  0.00     0.064 H 
ATOM     20  H11 <0> d          -0.220  -0.372  -1.000  0.00  0.00     0.064 H 
ENDROOT
TORSDOF 0
