REMARK  2 active torsions:
REMARK  status: ('A' for Active; 'I' for Inactive)
REMARK    1  A    between atoms: C1_1  and  C2_2 
REMARK    2  A    between atoms: C3_3  and  C4_7 
ROOT
ATOM      1  C2  <0> d          -0.017   1.405   0.010  0.00  0.00     0.086 A 
ATOM      2  C3  <0> d           0.002  -0.004   0.002  0.00  0.00     0.086 A 
ATOM      3  N1  <0> d           1.234  -0.419  -0.012  0.00  0.00    -0.108 NA
ATOM      4  O1  <0> d           2.068   0.729  -0.014  0.00  0.00    -0.106 OA
ATOM      5  N2  <0> d           1.203   1.853   0.001  0.00  0.00    -0.108 NA
ENDROOT
BRANCH   1   6
ATOM      6  C1  <0> d          -1.259   2.259   0.021  0.00  0.00    -0.031 C 
ATOM      7  H1  <0> d          -1.553   2.459   1.051  0.00  0.00     0.035 H 
ATOM      8  H2  <0> d          -1.056   3.201  -0.489  0.00  0.00     0.035 H 
ATOM      9  H3  <0> d          -2.065   1.734  -0.492  0.00  0.00     0.035 H 
ENDBRANCH   1   6
BRANCH   2  10
ATOM     10  C4  <0> d          -1.216  -0.892   0.008  0.00  0.00    -0.031 C 
ATOM     11  H4  <0> d          -1.519  -1.100  -1.018  0.00  0.00     0.035 H 
ATOM     12  H5  <0> d          -0.981  -1.828   0.515  0.00  0.00     0.035 H 
ATOM     13  H6  <0> d          -2.029  -0.389   0.532  0.00  0.00     0.035 H 
ENDBRANCH   2  10
TORSDOF 2
