REMARK  0 active torsions:
REMARK  status: ('A' for Active; 'I' for Inactive)
ROOT
ATOM      1  C1  <0> d          -0.016   1.351   0.009  0.00  0.00    -0.076 A 
ATOM      2  C2  <0> d           1.183   2.038   0.002  0.00  0.00    -0.076 A 
ATOM      3  C3  <0> d           2.343   1.336  -0.013  0.00  0.00    -0.045 A 
ATOM      4  S1  <0> d           1.754  -0.349  -0.017  0.00  0.00    -0.114 SA
ATOM      5  C4  <0> d           0.002  -0.004   0.002  0.00  0.00    -0.045 A 
ATOM      6  H1  <0> d          -0.954   1.887   0.026  0.00  0.00     0.084 H 
ATOM      7  H2  <0> d           1.197   3.118   0.007  0.00  0.00     0.084 H 
ATOM      8  H3  <0> d           3.359   1.701  -0.021  0.00  0.00     0.094 H 
ATOM      9  H4  <0> d          -0.828  -0.696   0.006  0.00  0.00     0.094 H 
ENDROOT
TORSDOF 0
