REMARK  5 active torsions:
REMARK  status: ('A' for Active; 'I' for Inactive)
REMARK    1  A    between atoms: C1_1  and  C2_2 
REMARK    2  A    between atoms: C2_2  and  C3_3 
REMARK    3  A    between atoms: C3_3  and  C4_4 
REMARK    4  A    between atoms: C4_4  and  C5_6 
REMARK    5  A    between atoms: C4_4  and  O1_12 
ROOT
ATOM      1  C5  <0> d           1.392  -2.549   2.532  0.00  0.00    -0.029 C 
ATOM      2  C6  <0> d           0.569  -2.057   3.724  0.00  0.00    -0.059 C 
ATOM      3  C7  <0> d           1.198  -2.566   5.023  0.00  0.00    -0.065 C 
ATOM      4  C8  <0> d           1.218  -4.096   5.014  0.00  0.00    -0.065 C 
ATOM      5  C9  <0> d           2.041  -4.588   3.822  0.00  0.00    -0.065 C 
ATOM      6  C10 <0> d           1.413  -4.079   2.523  0.00  0.00    -0.059 C 
ATOM      7  H9  <0> d           2.411  -2.173   2.614  0.00  0.00     0.043 H 
ATOM      8  H10 <0> d           0.554  -0.967   3.730  0.00  0.00     0.033 H 
ATOM      9  H11 <0> d          -0.451  -2.434   3.642  0.00  0.00     0.033 H 
ATOM     10  H12 <0> d           2.217  -2.189   5.105  0.00  0.00     0.033 H 
ATOM     11  H13 <0> d           0.612  -2.215   5.872  0.00  0.00     0.033 H 
ATOM     12  H14 <0> d           1.667  -4.458   5.939  0.00  0.00     0.033 H 
ATOM     13  H15 <0> d           0.199  -4.472   4.932  0.00  0.00     0.033 H 
ATOM     14  H16 <0> d           3.061  -4.211   3.904  0.00  0.00     0.033 H 
ATOM     15  H17 <0> d           2.056  -5.678   3.816  0.00  0.00     0.033 H 
ATOM     16  H18 <0> d           0.393  -4.456   2.442  0.00  0.00     0.033 H 
ATOM     17  H19 <0> d           1.999  -4.430   1.674  0.00  0.00     0.033 H 
ENDROOT
BRANCH   1  18
ATOM     18  C4  <0> d           0.763  -2.041   1.233  0.00  0.00     0.039 C 
ATOM     19  H1  <0> d          -0.257  -2.417   1.151  0.00  0.00     0.083 H 
BRANCH  18  20
ATOM     20  C3  <0> d           0.742  -0.511   1.242  0.00  0.00    -0.041 C 
ATOM     21  H7  <0> d           1.765  -0.134   1.234  0.00  0.00     0.036 H 
ATOM     22  H8  <0> d           0.232  -0.159   2.138  0.00  0.00     0.036 H 
BRANCH  20  23
ATOM     23  C2  <0> d           0.002  -0.004   0.002  0.00  0.00    -0.066 C 
ATOM     24  H5  <0> d          -1.020  -0.381   0.010  0.00  0.00     0.032 H 
ATOM     25  H6  <0> d           0.512  -0.356  -0.895  0.00  0.00     0.032 H 
BRANCH  23  26
ATOM     26  C1  <0> d          -0.019   1.526   0.010  0.00  0.00    -0.076 C 
ATOM     27  H2  <0> d           1.004   1.903   0.003  0.00  0.00     0.027 H 
ATOM     28  H3  <0> d          -0.546   1.887  -0.873  0.00  0.00     0.027 H 
ATOM     29  H4  <0> d          -0.529   1.877   0.907  0.00  0.00     0.027 H 
ENDBRANCH  23  26
ENDBRANCH  20  23
ENDBRANCH  18  20
BRANCH  18  30
ATOM     30  O1  <0> d           1.531  -2.501   0.120  0.00  0.00    -0.395 OA
ATOM     31  H20 <0> d           2.451  -2.203   0.127  0.00  0.00     0.210 HD
ENDBRANCH  18  30
ENDBRANCH   1  18
TORSDOF 5
