REMARK  4 active torsions:
REMARK  status: ('A' for Active; 'I' for Inactive)
REMARK    1  A    between atoms: C1_1  and  C2_2 
REMARK    2  A    between atoms: C2_2  and  C3_4 
REMARK    3  A    between atoms: C6_7  and  C7_10 
REMARK    4  A    between atoms: C7_10  and  C8_12 
ROOT
ATOM      1  C3  <0> d          -1.257  -0.754   0.010  0.00  0.00     0.078 A 
ATOM      2  C4  <0> d          -2.528  -0.206   0.019  0.00  0.00    -0.051 A 
ATOM      3  C5  <0> d          -3.438  -1.260   0.024  0.00  0.00    -0.051 A 
ATOM      4  C6  <0> d          -2.710  -2.437   0.018  0.00  0.00     0.078 A 
ATOM      5  N1  <0> d          -1.379  -2.117   0.004  0.00  0.00    -0.350 N 
ATOM      6  H1  <0> d          -0.645  -2.751  -0.006  0.00  0.00     0.166 HD
ATOM      7  H5  <0> d          -2.770   0.846   0.022  0.00  0.00     0.087 H 
ATOM      8  H6  <0> d          -4.514  -1.175   0.032  0.00  0.00     0.087 H 
ENDROOT
BRANCH   1   9
ATOM      9  C2  <0> d           0.002  -0.004   0.002  0.00  0.00     0.172 C 
ATOM     10  O1  <0> d           1.061  -0.596  -0.011  0.00  0.00    -0.291 OA
BRANCH   9  11
ATOM     11  C1  <0> d          -0.018   1.503   0.010  0.00  0.00    -0.015 C 
ATOM     12  H2  <0> d           1.004   1.880   0.003  0.00  0.00     0.038 H 
ATOM     13  H3  <0> d          -0.545   1.864  -0.873  0.00  0.00     0.038 H 
ATOM     14  H4  <0> d          -0.529   1.854   0.907  0.00  0.00     0.038 H 
ENDBRANCH   9  11
ENDBRANCH   1   9
BRANCH   4  15
ATOM     15  C7  <0> d          -3.267  -3.793   0.021  0.00  0.00     0.172 C 
ATOM     16  O2  <0> d          -2.527  -4.753   0.015  0.00  0.00    -0.291 OA
BRANCH  15  17
ATOM     17  C8  <0> d          -4.761  -3.993   0.030  0.00  0.00    -0.015 C 
ATOM     18  H7  <0> d          -5.128  -4.040  -0.995  0.00  0.00     0.038 H 
ATOM     19  H8  <0> d          -5.000  -4.924   0.545  0.00  0.00     0.038 H 
ATOM     20  H9  <0> d          -5.236  -3.159   0.548  0.00  0.00     0.038 H 
ENDBRANCH  15  17
ENDBRANCH   4  15
TORSDOF 4
