REMARK  5 active torsions:
REMARK  status: ('A' for Active; 'I' for Inactive)
REMARK    1  A    between atoms: C1_1  and  C2_2 
REMARK    2  A    between atoms: C2_2  and  C3_3 
REMARK    3  A    between atoms: C2_2  and  C4_4 
REMARK    4  A    between atoms: C2_2  and  C5_5 
REMARK    5  A    between atoms: C7_7  and  N3_11 
ROOT
ATOM      1  C2  <0> d           0.002  -0.004   0.002  0.00  0.00    -0.005 C 
ENDROOT
BRANCH   1   2
ATOM      2  C1  <0> d          -0.019   1.526   0.010  0.00  0.00    -0.064 C 
ATOM      3  H2  <0> d           1.004   1.903   0.003  0.00  0.00     0.028 H 
ATOM      4  H3  <0> d          -0.546   1.887  -0.873  0.00  0.00     0.028 H 
ATOM      5  H4  <0> d          -0.529   1.877   0.907  0.00  0.00     0.028 H 
ENDBRANCH   1   2
BRANCH   1   6
ATOM      6  C3  <0> d           0.742  -0.511   1.242  0.00  0.00    -0.064 C 
ATOM      7  H5  <0> d           0.232  -0.159   2.138  0.00  0.00     0.028 H 
ATOM      8  H6  <0> d           0.757  -1.601   1.236  0.00  0.00     0.028 H 
ATOM      9  H7  <0> d           1.765  -0.134   1.234  0.00  0.00     0.028 H 
ENDBRANCH   1   6
BRANCH   1  10
ATOM     10  C4  <0> d          -1.433  -0.534   0.013  0.00  0.00    -0.064 C 
ATOM     11  H8  <0> d          -1.960  -0.173  -0.870  0.00  0.00     0.028 H 
ATOM     12  H9  <0> d          -1.419  -1.623   0.007  0.00  0.00     0.028 H 
ATOM     13  H10 <0> d          -1.944  -0.182   0.910  0.00  0.00     0.028 H 
ENDBRANCH   1  10
BRANCH   1  14
ATOM     14  C5  <0> d           0.707  -0.490  -1.238  0.00  0.00     0.066 A 
ATOM     15  N2  <0> d           0.133  -1.007  -2.293  0.00  0.00    -0.177 NA
ATOM     16  N1  <0> d           1.127  -1.328  -3.226  0.00  0.00    -0.263 N 
ATOM     17  C7  <0> d           2.323  -0.994  -2.689  0.00  0.00     0.117 A 
ATOM     18  H1  <0> d           0.984  -1.723  -4.100  0.00  0.00     0.190 HD
ATOM     19  C6  <0> d           2.088  -0.471  -1.454  0.00  0.00    -0.013 A 
ATOM     20  H11 <0> d           2.835  -0.108  -0.765  0.00  0.00     0.092 H 
BRANCH  17  21
ATOM     21  N3  <0> d           3.568  -1.155  -3.291  0.00  0.00    -0.384 N 
ATOM     22  H12 <0> d           4.372  -0.883  -2.822  0.00  0.00     0.157 HD
ATOM     23  H13 <0> d           3.631  -1.540  -4.180  0.00  0.00     0.157 HD
ENDBRANCH  17  21
ENDBRANCH   1  14
TORSDOF 5
