REMARK  5 active torsions:
REMARK  status: ('A' for Active; 'I' for Inactive)
REMARK    1  A    between atoms: C1_1  and  C2_2 
REMARK       I    between atoms: C2_2  and  N1_4 
REMARK    2  A    between atoms: N1_4  and  C3_5 
REMARK    3  A    between atoms: C3_5  and  C4_7 
REMARK    4  A    between atoms: C3_5  and  C7_10 
REMARK    5  A    between atoms: C4_7  and  C5_8 
ROOT
ATOM      1  C5  <0> d           2.169   1.032   1.124  0.00  0.00    -0.115 C 
ATOM      2  C6  <0> d           2.765   0.567   2.022  0.00  0.00    -0.154 C 
ATOM      3  H8  <0> d           3.323   0.132   2.864  0.00  0.00     0.166 H 
ENDROOT
BRANCH   1   4
ATOM      4  C4  <0> d           1.423   1.615  -0.003  0.00  0.00     0.018 C 
ATOM      5  H6  <0> d           1.909   1.336  -0.949  0.00  0.00     0.055 H 
ATOM      6  H7  <0> d           1.410   2.711   0.094  0.00  0.00     0.055 H 
BRANCH   4   7
ATOM      7  C3  <0> d          -0.013   1.086   0.008  0.00  0.00     0.106 C 
ATOM      8  H1  <0> d          -0.028  -0.014   0.027  0.00  0.00     0.091 H 
BRANCH   7   9
ATOM      9  N1  <0> d          -0.698   1.558   1.213  0.00  0.00    -0.346 N 
ATOM     10  C2  <0> d          -1.741   0.865   1.711  0.00  0.00     0.214 C 
ATOM     11  O1  <0> d          -2.112  -0.151   1.161  0.00  0.00    -0.274 OA
ATOM     12  H5  <0> d          -0.362   2.479   1.712  0.00  0.00     0.163 HD
BRANCH  10  13
ATOM     13  C1  <0> d          -2.447   1.351   2.951  0.00  0.00    -0.003 C 
ATOM     14  H2  <0> d          -1.972   2.278   3.303  0.00  0.00     0.040 H 
ATOM     15  H3  <0> d          -2.379   0.583   3.736  0.00  0.00     0.040 H 
ATOM     16  H4  <0> d          -3.504   1.545   2.719  0.00  0.00     0.040 H 
ENDBRANCH  10  13
ENDBRANCH   7   9
BRANCH   7  17
ATOM     17  C7  <0> d          -0.742   1.585  -1.213  0.00  0.00     0.197 C 
ATOM     18  O2  <0> d          -1.732   2.266  -1.089  0.00  0.00    -0.646 OA
ATOM     19  O3  <0> d          -0.290   1.274  -2.438  0.00  0.00    -0.646 OA
ENDBRANCH   7  17
ENDBRANCH   4   7
ENDBRANCH   1   4
TORSDOF 5
