REMARK  2 active torsions:
REMARK  status: ('A' for Active; 'I' for Inactive)
REMARK    1  A    between atoms: C2_2  and  C3_3 
REMARK    2  A    between atoms: C4_4  and  C5_5 
ROOT
ATOM      1  C5  <0> d          -2.468  -2.835   0.010  0.00  0.00    -0.089 C 
ATOM      2  C6  <0> d          -3.477  -3.436   0.017  0.00  0.00    -0.150 C 
ATOM      3  H6  <0> d          -4.379  -3.973   0.022  0.00  0.00     0.166 H 
ENDROOT
BRANCH   1   4
ATOM      4  C4  <0> d          -1.238  -2.103   0.003  0.00  0.00    -0.034 C 
ATOM      5  C3  <0> d          -1.256  -0.754   0.010  0.00  0.00    -0.076 C 
ATOM      6  H4  <0> d          -2.199  -0.226   0.022  0.00  0.00     0.084 H 
ATOM      7  H5  <0> d          -0.295  -2.630  -0.009  0.00  0.00     0.097 H 
BRANCH   5   8
ATOM      8  C2  <0> d           0.002  -0.004   0.002  0.00  0.00    -0.091 C 
ATOM      9  C1  <0> d          -0.016   1.329   0.009  0.00  0.00    -0.121 C 
ATOM     10  H1  <0> d           0.912   1.881   0.004  0.00  0.00     0.066 H 
ATOM     11  H2  <0> d          -0.959   1.856   0.017  0.00  0.00     0.066 H 
ATOM     12  H3  <0> d           0.945  -0.531  -0.010  0.00  0.00     0.082 H 
ENDBRANCH   5   8
ENDBRANCH   1   4
TORSDOF 2
