REMARK  3 active torsions:
REMARK  status: ('A' for Active; 'I' for Inactive)
REMARK    1  A    between atoms: C1_1  and  N1_2 
REMARK    2  A    between atoms: N1_2  and  C2_3 
REMARK    3  A    between atoms: N1_2  and  C3_4 
ROOT
ATOM      1  C3  <0> d           0.004  -0.782  -1.151  0.00  0.00     0.165 A 
ATOM      2  C4  <0> d           0.043  -0.173  -2.405  0.00  0.00     0.171 A 
ATOM      3  N2  <0> d           0.044  -0.917  -3.496  0.00  0.00    -0.244 NA
ATOM      4  C5  <0> d           0.009  -2.236  -3.400  0.00  0.00     0.021 A 
ATOM      5  C6  <0> d          -0.030  -2.841  -2.159  0.00  0.00     0.021 A 
ATOM      6  N3  <0> d          -0.027  -2.104  -1.060  0.00  0.00    -0.239 NA
ATOM      7 Cl1  <0> d           0.089   1.557  -2.532  0.00  0.00    -0.058 Cl
ATOM      8  H7  <0> d           0.010  -2.841  -4.294  0.00  0.00     0.117 H 
ATOM      9  H8  <0> d          -0.060  -3.918  -2.086  0.00  0.00     0.117 H 
ENDROOT
BRANCH   1  10
ATOM     10  N1  <0> d           0.002  -0.004   0.002  0.00  0.00    -0.372 N 
BRANCH  10  11
ATOM     11  C1  <0> d          -1.267   0.443   0.582  0.00  0.00    -0.018 C 
ATOM     12  H1  <0> d          -1.499   1.445   0.220  0.00  0.00     0.056 H 
ATOM     13  H2  <0> d          -2.062  -0.242   0.289  0.00  0.00     0.056 H 
ATOM     14  H3  <0> d          -1.183   0.460   1.669  0.00  0.00     0.056 H 
ENDBRANCH  10  11
BRANCH  10  15
ATOM     15  C2  <0> d           1.269   0.368   0.636  0.00  0.00    -0.018 C 
ATOM     16  H4  <0> d           1.546  -0.391   1.368  0.00  0.00     0.056 H 
ATOM     17  H5  <0> d           2.048   0.442  -0.123  0.00  0.00     0.056 H 
ATOM     18  H6  <0> d           1.157   1.330   1.136  0.00  0.00     0.056 H 
ENDBRANCH  10  15
ENDBRANCH   1  10
TORSDOF 3
