REMARK  4 active torsions:
REMARK  status: ('A' for Active; 'I' for Inactive)
REMARK    1  A    between atoms: C1_1  and  C2_2 
REMARK    2  A    between atoms: C2_2  and  C3_4 
REMARK    3  A    between atoms: C2_2  and  O1_12 
REMARK    4  A    between atoms: C4_5  and  C5_6 
ROOT
ATOM      1  C5  <0> d           0.035   3.799   0.022  0.00  0.00     0.109 A 
ATOM      2  C6  <0> d          -1.196   3.143   0.031  0.00  0.00    -0.047 A 
ATOM      3  C7  <0> d          -1.220   1.760   0.017  0.00  0.00    -0.079 A 
ATOM      4  C8  <0> d          -0.013   1.076   0.008  0.00  0.00    -0.066 A 
ATOM      5  C9  <0> d           1.172   1.790   0.001  0.00  0.00     0.004 A 
ATOM      6  N1  <0> d           1.168   3.107   0.007  0.00  0.00    -0.252 NA
ATOM      7  H5  <0> d          -2.118   3.707   0.043  0.00  0.00     0.088 H 
ATOM      8  H6  <0> d          -2.158   1.224   0.018  0.00  0.00     0.083 H 
ATOM      9  H7  <0> d           0.002  -0.004   0.002  0.00  0.00     0.085 H 
ATOM     10  H8  <0> d           2.113   1.260  -0.011  0.00  0.00     0.114 H 
ENDROOT
BRANCH   1  11
ATOM     11  C4  <0> d           0.077   5.231   0.029  0.00  0.00    -0.044 C 
ATOM     12  C3  <0> d           0.112   6.404   0.034  0.00  0.00    -0.068 C 
BRANCH  12  13
ATOM     13  C2  <0> d           0.155   7.876   0.041  0.00  0.00     0.090 C 
ATOM     14  H1  <0> d          -0.862   8.269   0.053  0.00  0.00     0.102 H 
BRANCH  13  15
ATOM     15  C1  <0> d           0.903   8.358   1.286  0.00  0.00    -0.043 C 
ATOM     16  H2  <0> d           0.935   9.447   1.291  0.00  0.00     0.032 H 
ATOM     17  H3  <0> d           0.388   8.005   2.179  0.00  0.00     0.032 H 
ATOM     18  H4  <0> d           1.919   7.965   1.274  0.00  0.00     0.032 H 
ENDBRANCH  13  15
BRANCH  13  19
ATOM     19  O1  <0> d           0.831   8.338  -1.130  0.00  0.00    -0.384 OA
ATOM     20  H9  <0> d           0.897   9.301  -1.192  0.00  0.00     0.211 HD
ENDBRANCH  13  19
ENDBRANCH  12  13
ENDBRANCH   1  11
TORSDOF 4
