REMARK  7 active torsions:
REMARK  status: ('A' for Active; 'I' for Inactive)
REMARK    1  A    between atoms: C1_1  and  C2_2 
REMARK    2  A    between atoms: C2_2  and  C3_3 
REMARK    3  A    between atoms: C3_3  and  C4_4 
REMARK    4  A    between atoms: C3_3  and  C5_5 
REMARK    5  A    between atoms: C3_3  and  O1_7 
REMARK    6  A    between atoms: O1_7  and  C7_8 
REMARK    7  A    between atoms: C7_8  and  C8_10 
ROOT
ATOM      1  C5  <0> d           0.002  -0.004   0.002  0.00  0.00    -0.079 C 
ATOM      2  C6  <0> d           0.018  -1.178  -0.004  0.00  0.00    -0.151 C 
ATOM      3  H9  <0> d           0.032  -2.228  -0.010  0.00  0.00     0.166 H 
ENDROOT
BRANCH   1   4
ATOM      4  C3  <0> d          -0.018   1.468   0.010  0.00  0.00     0.128 C 
BRANCH   4   5
ATOM      5  C2  <0> d          -0.734   1.961   1.269  0.00  0.00    -0.029 C 
ATOM      6  H4  <0> d          -0.159   1.676   2.150  0.00  0.00     0.038 H 
ATOM      7  H5  <0> d          -0.827   3.047   1.232  0.00  0.00     0.038 H 
BRANCH   5   8
ATOM      8  C1  <0> d          -2.127   1.332   1.343  0.00  0.00    -0.073 C 
ATOM      9  H1  <0> d          -2.702   1.617   0.463  0.00  0.00     0.027 H 
ATOM     10  H2  <0> d          -2.033   0.246   1.380  0.00  0.00     0.027 H 
ATOM     11  H3  <0> d          -2.637   1.683   2.240  0.00  0.00     0.027 H 
ENDBRANCH   5   8
ENDBRANCH   4   5
BRANCH   4  12
ATOM     12  C4  <0> d           1.417   1.997  -0.001  0.00  0.00    -0.037 C 
ATOM     13  H6  <0> d           1.928   1.646  -0.897  0.00  0.00     0.033 H 
ATOM     14  H7  <0> d           1.403   3.087   0.005  0.00  0.00     0.033 H 
ATOM     15  H8  <0> d           1.945   1.636   0.882  0.00  0.00     0.033 H 
ENDBRANCH   4  12
BRANCH   4  16
ATOM     16  O1  <0> d          -0.720   1.949  -1.166  0.00  0.00    -0.298 OA
BRANCH  16  17
ATOM     17  C7  <0> d          -0.217   1.601  -2.361  0.00  0.00     0.256 C 
ATOM     18  O2  <0> d           0.778   0.918  -2.422  0.00  0.00    -0.266 OA
BRANCH  17  19
ATOM     19  C8  <0> d          -0.892   2.064  -3.627  0.00  0.00     0.004 C 
ATOM     20  H10 <0> d          -0.906   3.153  -3.653  0.00  0.00     0.041 H 
ATOM     21  H11 <0> d          -0.344   1.686  -4.490  0.00  0.00     0.041 H 
ATOM     22  H12 <0> d          -1.914   1.686  -3.652  0.00  0.00     0.041 H 
ENDBRANCH  17  19
ENDBRANCH  16  17
ENDBRANCH   4  16
ENDBRANCH   1   4
TORSDOF 7
