REMARK  6 active torsions:
REMARK  status: ('A' for Active; 'I' for Inactive)
REMARK    1  A    between atoms: C1_1  and  C2_2 
REMARK    2  A    between atoms: C2_2  and  C3_4 
REMARK    3  A    between atoms: C2_2  and  O3_7 
REMARK    4  A    between atoms: O3_7  and  C4_8 
REMARK    5  A    between atoms: C4_8  and  C5_9 
REMARK    6  A    between atoms: C4_8  and  C6_10 
ROOT
ATOM      1  O3  <0> d           0.693  -0.477   1.160  0.00  0.00    -0.371 OA
ENDROOT
BRANCH   1   2
ATOM      2  C2  <0> d           0.002  -0.004   0.002  0.00  0.00     0.119 C 
ATOM      3  H1  <0> d          -1.020  -0.381   0.010  0.00  0.00     0.099 H 
BRANCH   2   4
ATOM      4  C1  <0> d          -0.019   1.526   0.010  0.00  0.00    -0.043 C 
ATOM      5  H2  <0> d           1.004   1.903   0.003  0.00  0.00     0.031 H 
ATOM      6  H3  <0> d          -0.546   1.887  -0.873  0.00  0.00     0.031 H 
ATOM      7  H4  <0> d          -0.529   1.877   0.907  0.00  0.00     0.031 H 
ENDBRANCH   2   4
BRANCH   2   8
ATOM      8  C3  <0> d           0.707  -0.490  -1.238  0.00  0.00     0.202 C 
ATOM      9  O1  <0> d           1.759  -1.100  -1.142  0.00  0.00    -0.646 OA
ATOM     10  O2  <0> d           0.227  -0.273  -2.337  0.00  0.00    -0.646 OA
ENDBRANCH   2   8
ENDBRANCH   1   2
BRANCH   1  11
ATOM     11  C4  <0> d          -0.150  -0.689   2.294  0.00  0.00     0.033 C 
ATOM     12  H5  <0> d          -0.989   0.006   2.258  0.00  0.00     0.082 H 
BRANCH  11  13
ATOM     13  C5  <0> d          -0.677  -2.125   2.277  0.00  0.00    -0.052 C 
ATOM     14  H6  <0> d          -1.248  -2.292   1.364  0.00  0.00     0.030 H 
ATOM     15  H7  <0> d           0.162  -2.820   2.313  0.00  0.00     0.030 H 
ATOM     16  H8  <0> d          -1.320  -2.287   3.142  0.00  0.00     0.030 H 
ENDBRANCH  11  13
BRANCH  11  17
ATOM     17  C6  <0> d           0.652  -0.455   3.576  0.00  0.00    -0.052 C 
ATOM     18  H9  <0> d           1.027   0.569   3.588  0.00  0.00     0.030 H 
ATOM     19  H10 <0> d           0.009  -0.616   4.441  0.00  0.00     0.030 H 
ATOM     20  H11 <0> d           1.491  -1.150   3.612  0.00  0.00     0.030 H 
ENDBRANCH  11  17
ENDBRANCH   1  11
TORSDOF 6
