REMARK  1 active torsions:
REMARK  status: ('A' for Active; 'I' for Inactive)
REMARK    1  A    between atoms: C1_1  and  C2_2 
ROOT
ATOM      1  C2  <0> d          -0.019   1.530   0.011  0.00  0.00    -0.038 C 
ATOM      2  H1  <0> d          -0.543   1.893  -0.874  0.00  0.00     0.042 H 
ATOM      3  C3  <0> d           1.421   2.044  -0.001  0.00  0.00    -0.034 C 
ATOM      4  C4  <0> d           2.203   1.396  -1.113  0.00  0.00    -0.031 A 
ATOM      5  C5  <0> d           3.359   2.011  -1.565  0.00  0.00    -0.075 A 
ATOM      6  C6  <0> d           4.103   1.438  -2.578  0.00  0.00    -0.082 A 
ATOM      7  C7  <0> d           3.697   0.245  -3.148  0.00  0.00    -0.081 A 
ATOM      8  C8  <0> d           2.546  -0.373  -2.705  0.00  0.00    -0.057 A 
ATOM      9  C9  <0> d           1.794   0.203  -1.687  0.00  0.00     0.034 A 
ATOM     10  N1  <0> d           0.627  -0.438  -1.255  0.00  0.00    -0.389 N 
ATOM     11  C10 <0> d           0.002  -0.004   0.002  0.00  0.00    -0.004 C 
ATOM     12  H5  <0> d           1.417   3.124  -0.144  0.00  0.00     0.040 H 
ATOM     13  H6  <0> d           1.893   1.812   0.954  0.00  0.00     0.040 H 
ATOM     14  H7  <0> d           3.680   2.943  -1.123  0.00  0.00     0.084 H 
ATOM     15  H8  <0> d           5.003   1.923  -2.926  0.00  0.00     0.083 H 
ATOM     16  H9  <0> d           4.281  -0.203  -3.939  0.00  0.00     0.083 H 
ATOM     17  H10 <0> d           2.228  -1.305  -3.149  0.00  0.00     0.086 H 
ATOM     18  H11 <0> d           0.237  -1.157  -1.777  0.00  0.00     0.159 HD
ATOM     19  H12 <0> d           0.583  -0.370   0.849  0.00  0.00     0.064 H 
ATOM     20  H13 <0> d          -1.017  -0.387   0.059  0.00  0.00     0.064 H 
ENDROOT
BRANCH   1  21
ATOM     21  C1  <0> d          -0.730   2.026   1.271  0.00  0.00    -0.071 C 
ATOM     22  H2  <0> d          -0.201   1.666   2.153  0.00  0.00     0.028 H 
ATOM     23  H3  <0> d          -0.744   3.116   1.275  0.00  0.00     0.028 H 
ATOM     24  H4  <0> d          -1.753   1.650   1.282  0.00  0.00     0.028 H 
ENDBRANCH   1  21
TORSDOF 1
