REMARK  4 active torsions:
REMARK  status: ('A' for Active; 'I' for Inactive)
REMARK    1  A    between atoms: C1_1  and  C2_2 
REMARK    2  A    between atoms: C2_2  and  O1_3 
REMARK    3  A    between atoms: O1_3  and  C3_4 
REMARK    4  A    between atoms: C5_7  and  C8_12 
ROOT
ATOM      1  C3  <0> d          -0.628   1.513   3.661  0.00  0.00     0.136 C 
ATOM      2  H1  <0> d          -0.796   2.590   3.651  0.00  0.00     0.129 H 
ATOM      3  C4  <0> d           0.302   1.143   4.825  0.00  0.00    -0.013 C 
ATOM      4  C5  <0> d          -0.339   1.641   6.125  0.00  0.00    -0.035 C 
ATOM      5  H2  <0> d          -0.255   2.726   6.179  0.00  0.00     0.045 H 
ATOM      6  C6  <0> d          -1.791   1.248   6.149  0.00  0.00    -0.078 C 
ATOM      7  C7  <0> d          -2.440   0.891   5.073  0.00  0.00     0.012 C 
ATOM      8  O2  <0> d          -1.872   0.833   3.848  0.00  0.00    -0.333 OA
ATOM      9  H8  <0> d           0.427   0.061   4.867  0.00  0.00     0.041 H 
ATOM     10  H9  <0> d           1.272   1.621   4.686  0.00  0.00     0.041 H 
ATOM     11  H10 <0> d          -2.317   1.262   7.093  0.00  0.00     0.080 H 
ATOM     12  H11 <0> d          -3.483   0.629   5.167  0.00  0.00     0.122 H 
ENDROOT
BRANCH   1  13
ATOM     13  O1  <0> d          -0.038   1.106   2.425  0.00  0.00    -0.361 OA
BRANCH  13  14
ATOM     14  C2  <0> d          -0.729   1.579   1.267  0.00  0.00     0.019 C 
ATOM     15  H6  <0> d          -0.744   2.669   1.273  0.00  0.00     0.073 H 
ATOM     16  H7  <0> d          -1.751   1.202   1.275  0.00  0.00     0.073 H 
BRANCH  14  17
ATOM     17  C1  <0> d          -0.013   1.086   0.008  0.00  0.00    -0.056 C 
ATOM     18  H3  <0> d           0.002  -0.004   0.002  0.00  0.00     0.030 H 
ATOM     19  H4  <0> d           1.010   1.463   0.000  0.00  0.00     0.030 H 
ATOM     20  H5  <0> d          -0.540   1.447  -0.875  0.00  0.00     0.030 H 
ENDBRANCH  14  17
ENDBRANCH  13  14
ENDBRANCH   1  13
BRANCH   4  21
ATOM     21  C8  <0> d           0.380   1.013   7.321  0.00  0.00    -0.069 C 
ATOM     22  H12 <0> d           0.296  -0.073   7.266  0.00  0.00     0.028 H 
ATOM     23  H13 <0> d           1.432   1.298   7.303  0.00  0.00     0.028 H 
ATOM     24  H14 <0> d          -0.076   1.366   8.245  0.00  0.00     0.028 H 
ENDBRANCH   4  21
TORSDOF 4
