REMARK  2 active torsions:
REMARK  status: ('A' for Active; 'I' for Inactive)
REMARK    1  A    between atoms: C1_1  and  C2_2 
REMARK    2  A    between atoms: C5_5  and  O1_9 
ROOT
ATOM      1  C2  <0> d           0.038  -2.772  -0.013  0.00  0.00    -0.059 A 
ATOM      2  C3  <0> d           0.041  -2.087   1.188  0.00  0.00    -0.074 A 
ATOM      3  C4  <0> d           0.023  -0.705   1.198  0.00  0.00    -0.047 A 
ATOM      4  C5  <0> d           0.002  -0.004   0.002  0.00  0.00     0.104 A 
ATOM      5  C6  <0> d          -0.006  -0.694  -1.204  0.00  0.00     0.149 A 
ATOM      6  C7  <0> d           0.017  -2.077  -1.208  0.00  0.00    -0.037 A 
ATOM      7  F1  <0> d          -0.031  -0.014  -2.371  0.00  0.00    -0.203 F 
ATOM      8  H4  <0> d           0.057  -2.632   2.120  0.00  0.00     0.084 H 
ATOM      9  H5  <0> d           0.025  -0.171   2.137  0.00  0.00     0.087 H 
ATOM     10  H6  <0> d           0.014  -2.614  -2.145  0.00  0.00     0.089 H 
ENDROOT
BRANCH   1  11
ATOM     11  C1  <0> d           0.058  -4.278  -0.019  0.00  0.00    -0.051 C 
ATOM     12  H1  <0> d          -0.965  -4.655  -0.011  0.00  0.00     0.033 H 
ATOM     13  H2  <0> d           0.567  -4.631  -0.916  0.00  0.00     0.033 H 
ATOM     14  H3  <0> d           0.585  -4.639   0.864  0.00  0.00     0.033 H 
ENDBRANCH   1  11
BRANCH   4  15
ATOM     15  O1  <0> d          -0.016   1.355   0.009  0.00  0.00    -0.358 OA
ATOM     16  H7  <0> d           0.862   1.761   0.003  0.00  0.00     0.217 HD
ENDBRANCH   4  15
TORSDOF 2
