REMARK  0 active torsions:
REMARK  status: ('A' for Active; 'I' for Inactive)
ROOT
ATOM      1  C1  <0> d          -0.655  -2.304  -0.004  0.00  0.00    -0.079 A 
ATOM      2  C2  <0> d          -0.997  -0.981   0.006  0.00  0.00    -0.053 A 
ATOM      3  C3  <0> d           0.002  -0.004   0.002  0.00  0.00     0.086 A 
ATOM      4  C4  <0> d           1.352  -0.395  -0.013  0.00  0.00     0.084 A 
ATOM      5  C5  <0> d           1.680  -1.744  -0.023  0.00  0.00     0.063 A 
ATOM      6  C6  <0> d           0.677  -2.692  -0.019  0.00  0.00    -0.060 A 
ATOM      7 Cl1  <0> d           3.345  -2.237  -0.041  0.00  0.00    -0.082 Cl
ATOM      8  N1  <0> d           2.087   0.774  -0.014  0.00  0.00    -0.348 N 
ATOM      9  H1  <0> d           3.186   0.733  -0.024  0.00  0.00     0.167 HD
ATOM     10  C7  <0> d           1.203   1.808   0.000  0.00  0.00     0.065 A 
ATOM     11  N2  <0> d          -0.016   1.354   0.009  0.00  0.00    -0.242 NA
ATOM     12  H2  <0> d          -1.431  -3.056  -0.002  0.00  0.00     0.083 H 
ATOM     13  H3  <0> d          -2.037  -0.691   0.018  0.00  0.00     0.087 H 
ATOM     14  H4  <0> d           0.930  -3.741  -0.027  0.00  0.00     0.086 H 
ATOM     15  H5  <0> d           1.474   2.853   0.003  0.00  0.00     0.143 H 
ENDROOT
TORSDOF 0
