REMARK  1 active torsions:
REMARK  status: ('A' for Active; 'I' for Inactive)
REMARK    1  A    between atoms: C6_6  and  N1_7 
ROOT
ATOM      1  C1  <0> d          -3.934   3.735   0.687  0.00  0.00    -0.057 A 
ATOM      2  C2  <0> d          -2.946   3.068   1.385  0.00  0.00    -0.074 A 
ATOM      3  C3  <0> d          -1.946   2.393   0.711  0.00  0.00    -0.044 A 
ATOM      4  C4  <0> d          -1.929   2.381  -0.684  0.00  0.00     0.018 A 
ATOM      5  C5  <0> d          -2.933   3.060  -1.390  0.00  0.00    -0.044 A 
ATOM      6  C6  <0> d          -3.929   3.731  -0.703  0.00  0.00     0.026 A 
ATOM      7  C7  <0> d          -0.781   1.605  -1.183  0.00  0.00     0.160 A 
ATOM      8  O1  <0> d          -0.502   1.416  -2.348  0.00  0.00    -0.292 OA
ATOM      9  C8  <0> d          -0.013   1.086   0.008  0.00  0.00    -0.001 A 
ATOM     10  C9  <0> d          -0.771   1.601   1.239  0.00  0.00    -0.034 A 
ATOM     11  H1  <0> d          -4.712   4.260   1.222  0.00  0.00     0.086 H 
ATOM     12  H2  <0> d          -2.955   3.075   2.465  0.00  0.00     0.084 H 
ATOM     13  H3  <0> d          -2.929   3.057  -2.470  0.00  0.00     0.088 H 
ATOM     14  H6  <0> d           0.014   0.087  -0.022  0.00  0.00     0.045 H 
ATOM     15  H7  <0> d           1.005   1.477   0.000  0.00  0.00     0.045 H 
ATOM     16  H8  <0> d          -1.124   0.762   1.839  0.00  0.00     0.040 H 
ATOM     17  H9  <0> d          -0.123   2.242   1.837  0.00  0.00     0.040 H 
ENDROOT
BRANCH   6  18
ATOM     18  N1  <0> d          -4.930   4.407  -1.407  0.00  0.00    -0.399 N 
ATOM     19  H4  <0> d          -5.628   4.878  -0.926  0.00  0.00     0.156 HD
ATOM     20  H5  <0> d          -4.926   4.404  -2.377  0.00  0.00     0.156 HD
ENDBRANCH   6  18
TORSDOF 1
