REMARK  3 active torsions:
REMARK  status: ('A' for Active; 'I' for Inactive)
REMARK    1  A    between atoms: C2_2  and  N3_8 
REMARK    2  A    between atoms: C3_3  and  N2_7 
REMARK    3  A    between atoms: C4_4  and  N1_6 
ROOT
ATOM      1  C1  <0> d          -0.016   1.345   0.009  0.00  0.00     0.049 A 
ATOM      2  C2  <0> d           1.258   1.790  -0.000  0.00  0.00     0.079 A 
ATOM      3  C3  <0> d           2.094   0.644  -0.015  0.00  0.00     0.105 A 
ATOM      4  C4  <0> d           1.276  -0.437  -0.013  0.00  0.00     0.169 A 
ATOM      5  O1  <0> d           0.002  -0.004   0.002  0.00  0.00    -0.302 OA
ATOM      6  H1  <0> d          -0.901   1.964   0.025  0.00  0.00     0.127 H 
ENDROOT
BRANCH   2   7
ATOM      7  N3  <0> d           1.677   3.134   0.003  0.00  0.00    -0.396 N 
ATOM      8  H6  <0> d           1.019   3.847   0.013  0.00  0.00     0.156 HD
ATOM      9  H7  <0> d           2.623   3.347  -0.005  0.00  0.00     0.156 HD
ENDBRANCH   2   7
BRANCH   3  10
ATOM     10  N2  <0> d           3.509   0.631  -0.029  0.00  0.00    -0.394 N 
ATOM     11  H4  <0> d           4.002   1.467  -0.029  0.00  0.00     0.156 HD
ATOM     12  H5  <0> d           3.987  -0.213  -0.038  0.00  0.00     0.156 HD
ENDBRANCH   3  10
BRANCH   4  13
ATOM     13  N1  <0> d           1.687  -1.774  -0.024  0.00  0.00    -0.378 N 
ATOM     14  H2  <0> d           2.632  -1.991  -0.035  0.00  0.00     0.158 HD
ATOM     15  H3  <0> d           1.026  -2.484  -0.021  0.00  0.00     0.158 HD
ENDBRANCH   4  13
TORSDOF 3
