REMARK  2 active torsions:
REMARK  status: ('A' for Active; 'I' for Inactive)
REMARK    1  A    between atoms: C3_3  and  C8_10 
REMARK    2  A    between atoms: C8_10  and  O3_11 
ROOT
ATOM      1  C1  <0> d          -0.241   5.016   0.030  0.00  0.00    -0.080 A 
ATOM      2  C2  <0> d          -0.109   3.639   0.017  0.00  0.00    -0.072 A 
ATOM      3  C3  <0> d           1.147   3.062   0.008  0.00  0.00     0.002 A 
ATOM      4  C4  <0> d           2.278   3.863   0.001  0.00  0.00     0.113 A 
ATOM      5  C5  <0> d           2.145   5.249   0.009  0.00  0.00     0.105 A 
ATOM      6  C6  <0> d           0.883   5.821   0.024  0.00  0.00    -0.048 A 
ATOM      7  O1  <0> d           3.391   5.807  -0.000  0.00  0.00    -0.323 OA
ATOM      8  C7  <0> d           4.287   4.752   0.398  0.00  0.00     0.115 C 
ATOM      9  O2  <0> d           3.607   3.552  -0.014  0.00  0.00    -0.322 OA
ATOM     10  H1  <0> d          -1.224   5.463   0.041  0.00  0.00     0.083 H 
ATOM     11  H2  <0> d          -0.990   3.014   0.018  0.00  0.00     0.084 H 
ATOM     12  H3  <0> d           0.777   6.895   0.031  0.00  0.00     0.087 H 
ATOM     13  H4  <0> d           4.431   4.760   1.478  0.00  0.00     0.118 H 
ATOM     14  H5  <0> d           5.244   4.845  -0.116  0.00  0.00     0.118 H 
ENDROOT
BRANCH   3  15
ATOM     15  C8  <0> d           1.286   1.562  -0.002  0.00  0.00     0.043 C 
ATOM     16  H6  <0> d           1.840   1.243   0.881  0.00  0.00     0.081 H 
ATOM     17  H7  <0> d           1.823   1.252  -0.899  0.00  0.00     0.081 H 
BRANCH  15  18
ATOM     18  O3  <0> d          -0.011   0.963   0.007  0.00  0.00    -0.396 OA
ATOM     19  H8  <0> d           0.002  -0.004   0.002  0.00  0.00     0.209 HD
ENDBRANCH  15  18
ENDBRANCH   3  15
TORSDOF 2
