REMARK  3 active torsions:
REMARK  status: ('A' for Active; 'I' for Inactive)
REMARK    1  A    between atoms: C1_1  and  C2_2 
REMARK    2  A    between atoms: C4_4  and  C9_9 
REMARK    3  A    between atoms: C6_6  and  C8_8 
ROOT
ATOM      1  C2  <0> d          -0.718   1.572   1.248  0.00  0.00    -0.061 A 
ATOM      2  C3  <0> d          -2.083   1.789   1.226  0.00  0.00    -0.071 A 
ATOM      3  C4  <0> d          -2.731   2.231   2.365  0.00  0.00    -0.061 A 
ATOM      4  C5  <0> d          -2.012   2.464   3.522  0.00  0.00    -0.071 A 
ATOM      5  C6  <0> d          -0.646   2.251   3.543  0.00  0.00    -0.061 A 
ATOM      6  C7  <0> d           0.001   1.806   2.405  0.00  0.00    -0.071 A 
ATOM      7  H4  <0> d          -2.644   1.611   0.321  0.00  0.00     0.085 H 
ATOM      8  H5  <0> d          -2.518   2.811   4.411  0.00  0.00     0.085 H 
ATOM      9  H6  <0> d           1.068   1.640   2.421  0.00  0.00     0.085 H 
ENDROOT
BRANCH   1  10
ATOM     10  C1  <0> d          -0.013   1.086   0.008  0.00  0.00    -0.051 C 
ATOM     11  H1  <0> d           0.002  -0.004   0.002  0.00  0.00     0.033 H 
ATOM     12  H2  <0> d           1.010   1.463   0.000  0.00  0.00     0.033 H 
ATOM     13  H3  <0> d          -0.540   1.447  -0.875  0.00  0.00     0.033 H 
ENDBRANCH   1  10
BRANCH   5  14
ATOM     14  C8  <0> d           0.137   2.505   4.805  0.00  0.00    -0.051 C 
ATOM     15  H7  <0> d           0.482   3.539   4.816  0.00  0.00     0.033 H 
ATOM     16  H8  <0> d          -0.500   2.325   5.670  0.00  0.00     0.033 H 
ATOM     17  H9  <0> d           0.996   1.835   4.840  0.00  0.00     0.033 H 
ENDBRANCH   5  14
BRANCH   3  18
ATOM     18  C9  <0> d          -4.220   2.462   2.343  0.00  0.00    -0.051 C 
ATOM     19  H10 <0> d          -4.423   3.490   2.046  0.00  0.00     0.033 H 
ATOM     20  H11 <0> d          -4.683   1.779   1.631  0.00  0.00     0.033 H 
ATOM     21  H12 <0> d          -4.630   2.283   3.337  0.00  0.00     0.033 H 
ENDBRANCH   3  18
TORSDOF 3
