REMARK  5 active torsions:
REMARK  status: ('A' for Active; 'I' for Inactive)
REMARK    1  A    between atoms: C1_1  and  C2_2 
REMARK    2  A    between atoms: C2_2  and  C3_3 
REMARK    3  A    between atoms: C3_3  and  O1_4 
REMARK    4  A    between atoms: O1_4  and  C4_5 
REMARK    5  A    between atoms: C7_8  and  N1_11 
ROOT
ATOM      1  C4  <0> d           1.212  -0.681  -0.014  0.00  0.00     0.068 A 
ATOM      2  C5  <0> d           0.002  -0.004   0.002  0.00  0.00    -0.049 A 
ATOM      3  C6  <0> d          -0.017   1.377   0.010  0.00  0.00    -0.055 A 
ATOM      4  C7  <0> d           1.177   2.087   0.002  0.00  0.00     0.025 A 
ATOM      5  C8  <0> d           2.388   1.408  -0.012  0.00  0.00    -0.055 A 
ATOM      6  C9  <0> d           2.405   0.027  -0.021  0.00  0.00    -0.049 A 
ATOM      7  H8  <0> d          -0.926  -0.557   0.008  0.00  0.00     0.087 H 
ATOM      8  H9  <0> d          -0.959   1.904   0.017  0.00  0.00     0.087 H 
ATOM      9  H10 <0> d           3.316   1.960  -0.017  0.00  0.00     0.087 H 
ATOM     10  H11 <0> d           3.346  -0.501  -0.033  0.00  0.00     0.087 H 
ENDROOT
BRANCH   1  11
ATOM     11  O1  <0> d           1.230  -2.041  -0.022  0.00  0.00    -0.351 OA
BRANCH  11  12
ATOM     12  C3  <0> d           2.511  -2.674  -0.038  0.00  0.00     0.026 C 
ATOM     13  H6  <0> d           3.056  -2.369  -0.931  0.00  0.00     0.075 H 
ATOM     14  H7  <0> d           3.073  -2.379   0.849  0.00  0.00     0.075 H 
BRANCH  12  15
ATOM     15  C2  <0> d           2.330  -4.193  -0.044  0.00  0.00    -0.048 C 
ATOM     16  H4  <0> d           1.786  -4.498   0.849  0.00  0.00     0.035 H 
ATOM     17  H5  <0> d           1.768  -4.488  -0.931  0.00  0.00     0.035 H 
BRANCH  15  18
ATOM     18  C1  <0> d           3.702  -4.870  -0.062  0.00  0.00    -0.075 C 
ATOM     19  H1  <0> d           3.574  -5.952  -0.067  0.00  0.00     0.027 H 
ATOM     20  H2  <0> d           4.247  -4.565  -0.955  0.00  0.00     0.027 H 
ATOM     21  H3  <0> d           4.264  -4.575   0.825  0.00  0.00     0.027 H 
ENDBRANCH  15  18
ENDBRANCH  12  15
ENDBRANCH  11  12
ENDBRANCH   1  11
BRANCH   4  22
ATOM     22  N1  <0> d           1.159   3.486   0.009  0.00  0.00    -0.399 N 
ATOM     23  H12 <0> d           0.312   3.960   0.020  0.00  0.00     0.156 HD
ATOM     24  H13 <0> d           1.992   3.982   0.004  0.00  0.00     0.156 HD
ENDBRANCH   4  22
TORSDOF 5
