REMARK  1 active torsions:
REMARK  status: ('A' for Active; 'I' for Inactive)
REMARK    1  A    between atoms: C4_5  and  C6_8 
ROOT
ATOM      1  C1  <0> d           2.470   5.118   0.006  0.00  0.00    -0.044 A 
ATOM      2  C2  <0> d           1.263   5.792   0.021  0.00  0.00     0.003 A 
ATOM      3  N1  <0> d           0.116   5.138   0.029  0.00  0.00    -0.272 NA
ATOM      4  C3  <0> d           0.065   3.822   0.016  0.00  0.00     0.020 A 
ATOM      5  C4  <0> d           1.238   3.066   0.007  0.00  0.00     0.080 A 
ATOM      6  C5  <0> d           2.472   3.732  -0.002  0.00  0.00     0.053 A 
ATOM      7 Cl1  <0> d           3.964   2.844  -0.021  0.00  0.00    -0.083 Cl
ATOM      8  H1  <0> d           3.401   5.665   0.000  0.00  0.00     0.088 H 
ATOM      9  H2  <0> d           1.258   6.872   0.027  0.00  0.00     0.114 H 
ATOM     10  H3  <0> d          -0.893   3.324   0.018  0.00  0.00     0.116 H 
ENDROOT
BRANCH   5  11
ATOM     11  C6  <0> d           1.181   1.591  -0.001  0.00  0.00     0.212 C 
ATOM     12  O1  <0> d           2.208   0.943  -0.014  0.00  0.00    -0.644 OA
ATOM     13  O2  <0> d          -0.011   0.963   0.007  0.00  0.00    -0.644 OA
ENDBRANCH   5  11
TORSDOF 1
