REMARK  4 active torsions:
REMARK  status: ('A' for Active; 'I' for Inactive)
REMARK    1  A    between atoms: C1_1  and  C2_2 
REMARK    2  A    between atoms: C2_2  and  C3_3 
REMARK    3  A    between atoms: C3_3  and  C4_4 
REMARK    4  A    between atoms: C4_4  and  C5_5 
ROOT
ATOM      1  C3  <0> d           2.696   3.548  -0.005  0.00  0.00    -0.056 C 
ATOM      2  H6  <0> d           3.204   3.160   0.878  0.00  0.00     0.033 H 
ATOM      3  H7  <0> d           3.187   3.170  -0.901  0.00  0.00     0.033 H 
ENDROOT
BRANCH   1   4
ATOM      4  C2  <0> d           2.755   5.077   0.003  0.00  0.00    -0.068 C 
ATOM      5  H4  <0> d           2.248   5.465  -0.880  0.00  0.00     0.032 H 
ATOM      6  H5  <0> d           2.265   5.455   0.900  0.00  0.00     0.032 H 
BRANCH   4   7
ATOM      7  C1  <0> d           4.217   5.531  -0.009  0.00  0.00    -0.077 C 
ATOM      8  H1  <0> d           4.724   5.143   0.875  0.00  0.00     0.027 H 
ATOM      9  H2  <0> d           4.707   5.152  -0.905  0.00  0.00     0.027 H 
ATOM     10  H3  <0> d           4.259   6.620  -0.003  0.00  0.00     0.027 H 
ENDBRANCH   4   7
ENDBRANCH   1   4
BRANCH   1  11
ATOM     11  C4  <0> d           1.235   3.094   0.007  0.00  0.00     0.016 C 
ATOM     12  H8  <0> d           0.727   3.482  -0.876  0.00  0.00     0.049 H 
ATOM     13  H9  <0> d           0.744   3.473   0.904  0.00  0.00     0.049 H 
BRANCH  11  14
ATOM     14  C5  <0> d           1.177   1.588  -0.001  0.00  0.00     0.172 C 
ATOM     15  O1  <0> d           2.199   0.944  -0.014  0.00  0.00    -0.648 OA
ATOM     16  O2  <0> d          -0.011   0.963   0.007  0.00  0.00    -0.648 OA
ENDBRANCH  11  14
ENDBRANCH   1  11
TORSDOF 4
