REMARK  6 active torsions:
REMARK  status: ('A' for Active; 'I' for Inactive)
REMARK    1  A    between atoms: C1_1  and  C2_2 
REMARK    2  A    between atoms: C2_2  and  O1_3 
REMARK    3  A    between atoms: O1_3  and  C3_4 
REMARK    4  A    between atoms: C3_4  and  C4_5 
REMARK    5  A    between atoms: C4_5  and  S1_6 
REMARK    6  A    between atoms: S1_6  and  N1_9 
ROOT
ATOM      1  C3  <0> d           0.746  -1.888  -1.280  0.00  0.00     0.033 C 
ATOM      2  H6  <0> d           1.288  -2.288  -0.423  0.00  0.00     0.075 H 
ATOM      3  H7  <0> d          -0.261  -2.304  -1.299  0.00  0.00     0.075 H 
ENDROOT
BRANCH   1   4
ATOM      4  O1  <0> d           0.671  -0.465  -1.174  0.00  0.00    -0.391 OA
BRANCH   4   5
ATOM      5  C2  <0> d           0.002  -0.004   0.002  0.00  0.00     0.016 C 
ATOM      6  H4  <0> d           0.529  -0.365   0.885  0.00  0.00     0.073 H 
ATOM      7  H5  <0> d          -1.020  -0.381   0.010  0.00  0.00     0.073 H 
BRANCH   5   8
ATOM      8  C1  <0> d          -0.019   1.526   0.010  0.00  0.00    -0.056 C 
ATOM      9  H1  <0> d           1.004   1.903   0.003  0.00  0.00     0.030 H 
ATOM     10  H2  <0> d          -0.546   1.887  -0.873  0.00  0.00     0.030 H 
ATOM     11  H3  <0> d          -0.529   1.877   0.907  0.00  0.00     0.030 H 
ENDBRANCH   5   8
ENDBRANCH   4   5
ENDBRANCH   1   4
BRANCH   1  12
ATOM     12  C4  <0> d           1.478  -2.265  -2.569  0.00  0.00     0.065 C 
ATOM     13  H8  <0> d           0.935  -1.865  -3.425  0.00  0.00     0.062 H 
ATOM     14  H9  <0> d           2.485  -1.849  -2.550  0.00  0.00     0.062 H 
BRANCH  12  15
ATOM     15  S1  <0> d           1.573  -4.072  -2.704  0.00  0.00     0.226 S 
ATOM     16  O2  <0> d           2.426  -4.594  -1.694  0.00  0.00    -0.206 OA
ATOM     17  O3  <0> d           0.276  -4.616  -2.909  0.00  0.00    -0.206 OA
BRANCH  15  18
ATOM     18  N1  <0> d           2.378  -4.351  -4.124  0.00  0.00    -0.328 N 
ATOM     19  H10 <0> d           2.677  -3.605  -4.667  0.00  0.00     0.168 HD
ATOM     20  H11 <0> d           2.550  -5.261  -4.413  0.00  0.00     0.168 HD
ENDBRANCH  15  18
ENDBRANCH  12  15
ENDBRANCH   1  12
TORSDOF 6
