REMARK  4 active torsions:
REMARK  status: ('A' for Active; 'I' for Inactive)
REMARK    1  A    between atoms: C1_1  and  N1_2 
REMARK    2  A    between atoms: N1_2  and  C2_3 
REMARK    3  A    between atoms: C4_5  and  N2_10 
REMARK    4  A    between atoms: C7_8  and  O1_9 
ROOT
ATOM      1  C2  <0> d          -3.634   1.617   0.028  0.00  0.00     0.063 A 
ATOM      2  C3  <0> d          -2.425   0.939   0.019  0.00  0.00    -0.030 A 
ATOM      3  C4  <0> d          -1.232   1.649   0.017  0.00  0.00     0.028 A 
ATOM      4  C5  <0> d          -1.251   3.037   0.030  0.00  0.00    -0.055 A 
ATOM      5  C6  <0> d          -2.456   3.715   0.034  0.00  0.00    -0.047 A 
ATOM      6  C7  <0> d          -3.648   3.010   0.036  0.00  0.00     0.092 A 
ATOM      7  H5  <0> d          -2.411  -0.141   0.013  0.00  0.00     0.090 H 
ATOM      8  H6  <0> d          -0.322   3.589   0.033  0.00  0.00     0.087 H 
ATOM      9  H7  <0> d          -2.468   4.795   0.040  0.00  0.00     0.087 H 
ENDROOT
BRANCH   1  10
ATOM     10  N1  <0> d          -4.838   0.904   0.029  0.00  0.00    -0.392 N 
ATOM     11  H4  <0> d          -5.797   1.443   0.037  0.00  0.00     0.159 HD
BRANCH  10  12
ATOM     12  C1  <0> d          -4.822  -0.561   0.021  0.00  0.00    -0.021 C 
ATOM     13  H1  <0> d          -5.854  -0.939   0.023  0.00  0.00     0.056 H 
ATOM     14  H2  <0> d          -4.295  -0.927   0.915  0.00  0.00     0.056 H 
ATOM     15  H3  <0> d          -4.303  -0.916  -0.882  0.00  0.00     0.056 H 
ENDBRANCH  10  12
ENDBRANCH   1  10
BRANCH   6  16
ATOM     16  O1  <0> d          -4.834   3.679   0.045  0.00  0.00    -0.358 OA
ATOM     17  H8  <0> d          -4.845   4.779   0.051  0.00  0.00     0.217 HD
ENDBRANCH   6  16
BRANCH   3  18
ATOM     18  N2  <0> d          -0.011   0.966   0.007  0.00  0.00    -0.399 N 
ATOM     19  H9  <0> d           0.934   1.529   0.006  0.00  0.00     0.156 HD
ATOM     20  H10 <0> d           0.004  -0.134   0.001  0.00  0.00     0.156 HD
ENDBRANCH   3  18
TORSDOF 4
