REMARK  7 active torsions:
REMARK  status: ('A' for Active; 'I' for Inactive)
REMARK    1  A    between atoms: C1_1  and  C2_2 
REMARK    2  A    between atoms: C2_2  and  C3_4 
REMARK    3  A    between atoms: C2_2  and  O3_9 
REMARK    4  A    between atoms: C3_4  and  O1_5 
REMARK    5  A    between atoms: C3_4  and  O2_7 
REMARK    6  A    between atoms: O1_5  and  C4_6 
REMARK    7  A    between atoms: O2_7  and  C5_8 
ROOT
ATOM      1  C3  <0> d           1.308   1.942  -0.328  0.00  0.00     0.154 C 
ATOM      2  H5  <0> d           1.544   3.002  -0.502  0.00  0.00     0.133 H 
ENDROOT
BRANCH   1   3
ATOM      3  C2  <0> d          -0.177   1.618  -0.508  0.00  0.00     0.079 C 
ATOM      4  H1  <0> d          -0.382   0.558  -0.298  0.00  0.00     0.089 H 
BRANCH   3   5
ATOM      5  C1  <0> d          -1.011   2.533   0.392  0.00  0.00    -0.048 C 
ATOM      6  H2  <0> d          -2.078   2.300   0.263  0.00  0.00     0.031 H 
ATOM      7  H3  <0> d          -0.829   3.582   0.118  0.00  0.00     0.031 H 
ATOM      8  H4  <0> d          -0.725   2.373   1.442  0.00  0.00     0.031 H 
ENDBRANCH   3   5
BRANCH   3   9
ATOM      9  O3  <0> d          -0.548   1.825  -1.872  0.00  0.00    -0.391 OA
ATOM     10  H12 <0> d          -0.053   1.252  -2.670  0.00  0.00     0.210 HD
ENDBRANCH   3   9
ENDBRANCH   1   3
BRANCH   1  11
ATOM     11  O1  <0> d           1.706   1.625   1.007  0.00  0.00    -0.363 OA
BRANCH  11  12
ATOM     12  C4  <0> d           2.828   2.377   1.473  0.00  0.00     0.007 C 
ATOM     13  H6  <0> d           3.070   2.075   2.503  0.00  0.00     0.066 H 
ATOM     14  H7  <0> d           2.583   3.450   1.454  0.00  0.00     0.066 H 
ATOM     15  H8  <0> d           3.694   2.187   0.822  0.00  0.00     0.066 H 
ENDBRANCH  11  12
ENDBRANCH   1  11
BRANCH   1  16
ATOM     16  O2  <0> d           2.078   1.171  -1.252  0.00  0.00    -0.363 OA
BRANCH  16  17
ATOM     17  C5  <0> d           3.430   1.613  -1.392  0.00  0.00     0.007 C 
ATOM     18  H9  <0> d           3.952   0.971  -2.116  0.00  0.00     0.066 H 
ATOM     19  H10 <0> d           3.938   1.555  -0.418  0.00  0.00     0.066 H 
ATOM     20  H11 <0> d           3.440   2.653  -1.750  0.00  0.00     0.066 H 
ENDBRANCH  16  17
ENDBRANCH   1  16
TORSDOF 7
