REMARK  2 active torsions:
REMARK  status: ('A' for Active; 'I' for Inactive)
REMARK    1  A    between atoms: C3_3  and  N2_9 
REMARK    2  A    between atoms: C4_4  and  N1_8 
ROOT
ATOM      1  C1  <0> d           1.228  -2.065  -0.021  0.00  0.00    -0.043 A 
ATOM      2  C2  <0> d           1.211  -0.682  -0.013  0.00  0.00    -0.053 A 
ATOM      3  C3  <0> d           0.002  -0.004   0.002  0.00  0.00     0.052 A 
ATOM      4  C4  <0> d          -1.195  -0.719   0.015  0.00  0.00     0.055 A 
ATOM      5  C5  <0> d          -1.171  -2.105   0.002  0.00  0.00    -0.018 A 
ATOM      6  C6  <0> d           0.041  -2.776  -0.013  0.00  0.00     0.118 A 
ATOM      7  F1  <0> d           0.063  -4.127  -0.021  0.00  0.00    -0.206 F 
ATOM      8  H1  <0> d           2.171  -2.592  -0.032  0.00  0.00     0.088 H 
ATOM      9  H2  <0> d           2.139  -0.130  -0.019  0.00  0.00     0.087 H 
ATOM     10  H3  <0> d          -2.096  -2.662   0.008  0.00  0.00     0.091 H 
ENDROOT
BRANCH   3  11
ATOM     11  N2  <0> d          -0.017   1.397   0.010  0.00  0.00    -0.397 N 
ATOM     12  H6  <0> d           0.816   1.894   0.004  0.00  0.00     0.156 HD
ATOM     13  H7  <0> d          -0.864   1.871   0.016  0.00  0.00     0.156 HD
ENDBRANCH   3  11
BRANCH   4  14
ATOM     14  N1  <0> d          -2.419  -0.039   0.037  0.00  0.00    -0.397 N 
ATOM     15  H4  <0> d          -2.435   0.931   0.043  0.00  0.00     0.156 HD
ATOM     16  H5  <0> d          -3.251  -0.538   0.046  0.00  0.00     0.156 HD
ENDBRANCH   4  14
TORSDOF 2
