REMARK  1 active torsions:
REMARK  status: ('A' for Active; 'I' for Inactive)
REMARK    1  A    between atoms: C1_1  and  C2_2 
ROOT
ATOM      1  C2  <0> d          -0.718   1.572   1.248  0.00  0.00     0.170 A 
ATOM      2  N1  <0> d          -2.228   2.218   2.591  0.00  0.00    -0.021 NA
ATOM      3  N2  <0> d          -1.099   2.224   3.210  0.00  0.00    -0.021 NA
ATOM      4  N3  <0> d          -0.169   1.834   2.409  0.00  0.00    -0.112 NA
ATOM      5  N4  <0> d          -2.023   1.828   1.387  0.00  0.00    -0.112 NA
ENDROOT
BRANCH   1   6
ATOM      6  C1  <0> d          -0.013   1.086   0.008  0.00  0.00    -0.016 C 
ATOM      7  H1  <0> d           0.002  -0.004   0.002  0.00  0.00     0.038 H 
ATOM      8  H2  <0> d           1.010   1.463   0.000  0.00  0.00     0.038 H 
ATOM      9  H3  <0> d          -0.540   1.447  -0.875  0.00  0.00     0.038 H 
ENDBRANCH   1   6
TORSDOF 1
