REMARK  3 active torsions:
REMARK  status: ('A' for Active; 'I' for Inactive)
REMARK    1  A    between atoms: C1_1  and  O1_2 
REMARK    2  A    between atoms: O1_2  and  C2_3 
REMARK    3  A    between atoms: C2_3  and  C3_5 
ROOT
ATOM      1  C3  <0> d           1.174   1.837   0.001  0.00  0.00     0.119 A 
ATOM      2  H1  <0> d           1.780   1.667   0.890  0.00  0.00     0.092 H 
ATOM      3  C4  <0> d           0.583   3.260   0.013  0.00  0.00     0.058 A 
ATOM      4  O3  <0> d          -0.858   3.044   0.026  0.00  0.00    -0.301 OA
ATOM      5  C5  <0> d          -1.112   1.730   0.016  0.00  0.00     0.361 A 
ATOM      6  O4  <0> d          -2.237   1.272   0.019  0.00  0.00    -0.238 OA
ATOM      7  N1  <0> d          -0.011   0.966   0.007  0.00  0.00    -0.321 N 
ATOM      8  H5  <0> d           0.896   3.796   0.909  0.00  0.00     0.079 H 
ATOM      9  H6  <0> d           0.881   3.806  -0.881  0.00  0.00     0.079 H 
ATOM     10  H7  <0> d           0.002  -0.004   0.002  0.00  0.00     0.165 HD
ENDROOT
BRANCH   1  11
ATOM     11  C2  <0> d           1.990   1.611  -1.246  0.00  0.00     0.283 C 
ATOM     12  O2  <0> d           1.492   1.073  -2.205  0.00  0.00    -0.263 OA
BRANCH  11  13
ATOM     13  O1  <0> d           3.272   2.008  -1.289  0.00  0.00    -0.325 OA
BRANCH  13  14
ATOM     14  C1  <0> d           3.998   1.758  -2.522  0.00  0.00     0.013 C 
ATOM     15  H2  <0> d           3.503   2.273  -3.345  0.00  0.00     0.067 H 
ATOM     16  H3  <0> d           5.019   2.126  -2.423  0.00  0.00     0.067 H 
ATOM     17  H4  <0> d           4.016   0.686  -2.722  0.00  0.00     0.067 H 
ENDBRANCH  13  14
ENDBRANCH  11  13
ENDBRANCH   1  11
TORSDOF 3
