REMARK  1 active torsions:
REMARK  status: ('A' for Active; 'I' for Inactive)
REMARK    1  A    between atoms: C7_9  and  O1_11 
ROOT
ATOM      1  C1  <0> d          -0.017   1.403   0.010  0.00  0.00    -0.079 C 
ATOM      2  C2  <0> d           1.153   2.119   0.002  0.00  0.00    -0.058 C 
ATOM      3  C3  <0> d           2.325   1.354  -0.079  0.00  0.00     0.048 C 
ATOM      4  N1  <0> d           3.526   1.522   0.377  0.00  0.00    -0.265 NA
ATOM      5  C4  <0> d           4.250   0.388   0.357  0.00  0.00    -0.000 C 
ATOM      6  C5  <0> d           3.621  -0.611  -0.275  0.00  0.00    -0.070 C 
ATOM      7  C6  <0> d           2.333  -0.007  -0.765  0.00  0.00     0.052 C 
ATOM      8  H1  <0> d           2.352   0.108  -1.848  0.00  0.00     0.066 H 
ATOM      9  C7  <0> d           1.097  -0.729  -0.314  0.00  0.00     0.057 C 
ATOM     10  C8  <0> d           0.002  -0.004   0.002  0.00  0.00    -0.054 C 
ATOM     11  H2  <0> d          -0.963   1.925   0.026  0.00  0.00     0.083 H 
ATOM     12  H3  <0> d           1.169   3.197   0.055  0.00  0.00     0.086 H 
ATOM     13  H4  <0> d           5.231   0.294   0.801  0.00  0.00     0.114 H 
ATOM     14  H5  <0> d           3.963  -1.627  -0.404  0.00  0.00     0.080 H 
ATOM     15  H6  <0> d          -0.904  -0.531   0.262  0.00  0.00     0.087 H 
ENDROOT
BRANCH   9  16
ATOM     16  O1  <0> d           1.079  -2.076  -0.227  0.00  0.00    -0.364 OA
ATOM     17  H7  <0> d           0.235  -2.440   0.073  0.00  0.00     0.217 HD
ENDBRANCH   9  16
TORSDOF 1
