REMARK  2 active torsions:
REMARK  status: ('A' for Active; 'I' for Inactive)
REMARK    1  A    between atoms: C1_1  and  C2_2 
REMARK    2  A    between atoms: C2_2  and  N1_3 
ROOT
ATOM      1  N1  <0> d          -0.749   3.044   1.275  0.00  0.00    -0.331 N 
ATOM      2  C3  <0> d           0.137   3.850   1.894  0.00  0.00     0.068 A 
ATOM      3  N2  <0> d          -0.186   5.098   1.691  0.00  0.00    -0.230 NA
ATOM      4  C4  <0> d          -1.295   5.158   0.932  0.00  0.00     0.175 A 
ATOM      5  C5  <0> d          -1.670   3.848   0.648  0.00  0.00     0.157 A 
ATOM      6  C6  <0> d          -2.791   3.424  -0.136  0.00  0.00     0.121 C 
ATOM      7  N3  <0> d          -3.680   3.088  -0.758  0.00  0.00    -0.190 NA
ATOM      8  C7  <0> d          -1.961   6.347   0.493  0.00  0.00     0.123 C 
ATOM      9  N4  <0> d          -2.490   7.290   0.144  0.00  0.00    -0.190 NA
ATOM     10  H6  <0> d           0.986   3.514   2.471  0.00  0.00     0.143 H 
ENDROOT
BRANCH   1  11
ATOM     11  C2  <0> d          -0.729   1.579   1.267  0.00  0.00    -0.002 C 
ATOM     12  H4  <0> d          -1.751   1.202   1.275  0.00  0.00     0.064 H 
ATOM     13  H5  <0> d          -0.202   1.218   2.150  0.00  0.00     0.064 H 
BRANCH  11  14
ATOM     14  C1  <0> d          -0.013   1.086   0.008  0.00  0.00    -0.061 C 
ATOM     15  H1  <0> d           0.002  -0.004   0.002  0.00  0.00     0.029 H 
ATOM     16  H2  <0> d           1.010   1.463   0.000  0.00  0.00     0.029 H 
ATOM     17  H3  <0> d          -0.540   1.447  -0.875  0.00  0.00     0.029 H 
ENDBRANCH  11  14
ENDBRANCH   1  11
TORSDOF 2
