REMARK  6 active torsions:
REMARK  status: ('A' for Active; 'I' for Inactive)
REMARK    1  A    between atoms: C1_1  and  C2_2 
REMARK    2  A    between atoms: C2_2  and  C3_3 
REMARK    3  A    between atoms: C3_3  and  C4_5 
REMARK    4  A    between atoms: C3_3  and  N1_6 
REMARK    5  A    between atoms: C5_7  and  N3_12 
REMARK    6  A    between atoms: C7_9  and  C8_11 
ROOT
ATOM      1  N1  <0> d          -0.092   0.997   2.451  0.00  0.00    -0.250 N 
ATOM      2  C5  <0> d          -0.693   0.210   3.372  0.00  0.00     0.119 A 
ATOM      3  C6  <0> d           0.243  -0.120   4.304  0.00  0.00    -0.014 A 
ATOM      4  C7  <0> d           1.444   0.494   3.940  0.00  0.00     0.054 A 
ATOM      5  N2  <0> d           1.246   1.162   2.832  0.00  0.00    -0.175 NA
ATOM      6  H10 <0> d           0.084  -0.743   5.172  0.00  0.00     0.092 H 
ENDROOT
BRANCH   1   7
ATOM      7  C3  <0> d          -0.729   1.579   1.267  0.00  0.00     0.033 C 
ATOM      8  H1  <0> d          -1.776   1.277   1.232  0.00  0.00     0.075 H 
BRANCH   7   9
ATOM      9  C2  <0> d          -0.013   1.086   0.008  0.00  0.00    -0.048 C 
ATOM     10  H5  <0> d           0.002  -0.004   0.002  0.00  0.00     0.035 H 
ATOM     11  H6  <0> d           1.010   1.463   0.000  0.00  0.00     0.035 H 
BRANCH   9  12
ATOM     12  C1  <0> d          -0.753   1.593  -1.232  0.00  0.00    -0.075 C 
ATOM     13  H2  <0> d          -1.775   1.215  -1.224  0.00  0.00     0.027 H 
ATOM     14  H3  <0> d          -0.767   2.683  -1.226  0.00  0.00     0.027 H 
ATOM     15  H4  <0> d          -0.242   1.241  -2.128  0.00  0.00     0.027 H 
ENDBRANCH   9  12
ENDBRANCH   7   9
BRANCH   7  16
ATOM     16  C4  <0> d          -0.641   3.105   1.339  0.00  0.00    -0.055 C 
ATOM     17  H7  <0> d          -1.115   3.538   0.458  0.00  0.00     0.030 H 
ATOM     18  H8  <0> d          -1.151   3.457   2.235  0.00  0.00     0.030 H 
ATOM     19  H9  <0> d           0.406   3.407   1.374  0.00  0.00     0.030 H 
ENDBRANCH   7  16
ENDBRANCH   1   7
BRANCH   2  20
ATOM     20  N3  <0> d          -2.026  -0.193   3.366  0.00  0.00    -0.384 N 
ATOM     21  H14 <0> d          -2.616   0.095   2.652  0.00  0.00     0.157 HD
ATOM     22  H15 <0> d          -2.364  -0.761   4.075  0.00  0.00     0.157 HD
ENDBRANCH   2  20
BRANCH   4  23
ATOM     23  C8  <0> d           2.746   0.403   4.693  0.00  0.00    -0.034 C 
ATOM     24  H11 <0> d           2.801   1.212   5.422  0.00  0.00     0.035 H 
ATOM     25  H12 <0> d           2.801  -0.555   5.209  0.00  0.00     0.035 H 
ATOM     26  H13 <0> d           3.578   0.487   3.994  0.00  0.00     0.035 H 
ENDBRANCH   4  23
TORSDOF 6
