REMARK  2 active torsions:
REMARK  status: ('A' for Active; 'I' for Inactive)
REMARK    1  A    between atoms: C1_1  and  C2_2 
REMARK    2  A    between atoms: C2_2  and  C3_4 
ROOT
ATOM      1  C3  <0> d          -0.000  -0.750  -1.307  0.00  0.00     0.197 A 
ATOM      2  H1  <0> d          -0.679  -0.277  -2.016  0.00  0.00     0.128 H 
ATOM      3  N1  <0> d          -0.371  -2.159  -1.099  0.00  0.00    -0.155 NA
ATOM      4  N2  <0> d           0.573  -2.868  -1.457  0.00  0.00    -0.133 NA
ATOM      5  C4  <0> d           1.637  -2.165  -1.921  0.00  0.00     0.171 A 
ATOM      6  N3  <0> d           1.357  -0.823  -1.862  0.00  0.00    -0.216 N 
ATOM      7  N4  <0> d           2.460  -0.122  -2.345  0.00  0.00    -0.180 NA
ATOM      8  C5  <0> d           3.387  -0.983  -2.690  0.00  0.00     0.026 A 
ATOM      9  C6  <0> d           2.913  -2.277  -2.439  0.00  0.00    -0.017 A 
ATOM     10  H5  <0> d           4.355  -0.735  -3.099  0.00  0.00     0.117 H 
ATOM     11  H6  <0> d           3.448  -3.198  -2.621  0.00  0.00     0.091 H 
ENDROOT
BRANCH   1  12
ATOM     12  C2  <0> d           0.002  -0.004   0.002  0.00  0.00     0.170 C 
ATOM     13  O1  <0> d           0.020  -0.613   1.044  0.00  0.00    -0.294 OA
BRANCH  12  14
ATOM     14  C1  <0> d          -0.018   1.503   0.010  0.00  0.00    -0.017 C 
ATOM     15  H2  <0> d           1.004   1.880   0.003  0.00  0.00     0.037 H 
ATOM     16  H3  <0> d          -0.545   1.864  -0.873  0.00  0.00     0.037 H 
ATOM     17  H4  <0> d          -0.529   1.854   0.907  0.00  0.00     0.037 H 
ENDBRANCH  12  14
ENDBRANCH   1  12
TORSDOF 2
