REMARK  7 active torsions:
REMARK  status: ('A' for Active; 'I' for Inactive)
REMARK    1  A    between atoms: C1_1  and  O1_2 
REMARK    2  A    between atoms: O1_2  and  C2_3 
REMARK    3  A    between atoms: C2_3  and  C3_4 
REMARK    4  A    between atoms: C3_4  and  C4_5 
REMARK    5  A    between atoms: C4_5  and  C5_7 
REMARK    6  A    between atoms: C5_7  and  O3_8 
REMARK    7  A    between atoms: O3_8  and  C6_9 
ROOT
ATOM      1  C3  <0> d          -1.667  -2.011   0.007  0.00  0.00     0.012 C 
ATOM      2  H6  <0> d          -1.267  -2.415  -0.815  0.00  0.00     0.047 H 
ATOM      3  H7  <0> d          -1.214  -2.461   0.890  0.00  0.00     0.047 H 
ENDROOT
BRANCH   1   4
ATOM      4  C2  <0> d          -3.175  -2.269   0.020  0.00  0.00     0.025 C 
ATOM      5  H4  <0> d          -3.611  -1.829   0.917  0.00  0.00     0.074 H 
ATOM      6  H5  <0> d          -3.628  -1.819  -0.863  0.00  0.00     0.074 H 
BRANCH   4   7
ATOM      7  O1  <0> d          -3.417  -3.678   0.015  0.00  0.00    -0.396 OA
BRANCH   7   8
ATOM      8  C1  <0> d          -4.802  -4.029   0.026  0.00  0.00     0.004 C 
ATOM      9  H1  <0> d          -5.272  -3.626   0.923  0.00  0.00     0.066 H 
ATOM     10  H2  <0> d          -5.289  -3.616  -0.857  0.00  0.00     0.066 H 
ATOM     11  H3  <0> d          -4.901  -5.115   0.021  0.00  0.00     0.066 H 
ENDBRANCH   7   8
ENDBRANCH   4   7
ENDBRANCH   1   4
BRANCH   1  12
ATOM     12  C4  <0> d          -1.412  -0.526   0.013  0.00  0.00     0.152 C 
ATOM     13  O2  <0> d          -2.340   0.246   0.026  0.00  0.00    -0.296 OA
BRANCH  12  14
ATOM     14  C5  <0> d           0.002  -0.004   0.002  0.00  0.00     0.073 C 
ATOM     15  H8  <0> d           0.470  -0.327  -0.821  0.00  0.00     0.086 H 
ATOM     16  H9  <0> d           0.529  -0.365   0.885  0.00  0.00     0.086 H 
BRANCH  14  17
ATOM     17  O3  <0> d          -0.017   1.425   0.010  0.00  0.00    -0.389 OA
BRANCH  17  18
ATOM     18  C6  <0> d           1.280   2.024   0.001  0.00  0.00     0.004 C 
ATOM     19  H10 <0> d           1.834   1.705   0.884  0.00  0.00     0.066 H 
ATOM     20  H11 <0> d           1.817   1.714  -0.896  0.00  0.00     0.066 H 
ATOM     21  H12 <0> d           1.179   3.109   0.007  0.00  0.00     0.066 H 
ENDBRANCH  17  18
ENDBRANCH  14  17
ENDBRANCH  12  14
ENDBRANCH   1  12
TORSDOF 7
