REMARK  5 active torsions:
REMARK  status: ('A' for Active; 'I' for Inactive)
REMARK    1  A    between atoms: C1_1  and  C2_2 
REMARK    2  A    between atoms: C2_2  and  C3_4 
REMARK    3  A    between atoms: C2_2  and  C4_8 
REMARK    4  A    between atoms: C3_4  and  S1_5 
REMARK    5  A    between atoms: S1_5  and  O2_7 
ROOT
ATOM      1  C2  <0> d           2.353   4.154   0.002  0.00  0.00     0.039 C 
ATOM      2  H1  <0> d           2.978   3.834   0.849  0.00  0.00     0.057 H 
ENDROOT
BRANCH   1   3
ATOM      3  C1  <0> d           3.088   3.891  -1.314  0.00  0.00    -0.063 C 
ATOM      4  H2  <0> d           4.039   4.445  -1.320  0.00  0.00     0.028 H 
ATOM      5  H3  <0> d           2.464   4.224  -2.156  0.00  0.00     0.028 H 
ATOM      6  H4  <0> d           3.291   2.814  -1.412  0.00  0.00     0.028 H 
ENDBRANCH   1   3
BRANCH   1   7
ATOM      7  C3  <0> d           1.032   3.383   0.010  0.00  0.00     0.040 C 
ATOM      8  H5  <0> d           0.462   3.641   0.915  0.00  0.00     0.057 H 
ATOM      9  H6  <0> d           0.445   3.651  -0.881  0.00  0.00     0.057 H 
BRANCH   7  10
ATOM     10  S1  <0> d           1.371   1.601  -0.002  0.00  0.00     0.151 S 
ATOM     11  O1  <0> d           1.935   1.217   1.244  0.00  0.00    -0.229 OA
BRANCH  10  12
ATOM     12  O2  <0> d          -0.011   0.963   0.007  0.00  0.00    -0.306 OA
ATOM     13  H7  <0> d          -0.111  -0.133   0.002  0.00  0.00     0.230 HD
ENDBRANCH  10  12
ENDBRANCH   7  10
ENDBRANCH   1   7
BRANCH   1  14
ATOM     14  C4  <0> d           2.075   5.628   0.136  0.00  0.00     0.177 C 
ATOM     15  O3  <0> d           0.937   6.023   0.229  0.00  0.00    -0.648 OA
ATOM     16  O4  <0> d           3.092   6.504   0.153  0.00  0.00    -0.648 OA
ENDBRANCH   1  14
TORSDOF 5
