REMARK  3 active torsions:
REMARK  status: ('A' for Active; 'I' for Inactive)
REMARK    1  A    between atoms: C1_1  and  C2_2 
REMARK    2  A    between atoms: C3_3  and  C7_10 
REMARK    3  A    between atoms: C7_10  and  C8_12 
ROOT
ATOM      1  C2  <0> d           0.002  -0.004   0.002  0.00  0.00     0.022 A 
ATOM      2  C3  <0> d          -1.190  -0.708   0.004  0.00  0.00     0.032 A 
ATOM      3  C4  <0> d          -1.161  -2.126  -0.004  0.00  0.00    -0.062 A 
ATOM      4  C5  <0> d           0.041  -2.760  -0.013  0.00  0.00    -0.016 A 
ATOM      5  C6  <0> d           1.226  -2.001  -0.015  0.00  0.00     0.245 A 
ATOM      6  O1  <0> d           2.307  -2.566  -0.023  0.00  0.00    -0.268 OA
ATOM      7  N1  <0> d           1.178  -0.656  -0.013  0.00  0.00    -0.327 N 
ATOM      8  H1  <0> d           2.005  -0.149  -0.018  0.00  0.00     0.169 HD
ATOM      9  H5  <0> d          -2.080  -2.693  -0.002  0.00  0.00     0.085 H 
ATOM     10  H6  <0> d           0.086  -3.839  -0.019  0.00  0.00     0.092 H 
ENDROOT
BRANCH   2  11
ATOM     11  C7  <0> d          -2.471   0.006   0.014  0.00  0.00     0.157 C 
ATOM     12  O2  <0> d          -2.489   1.219   0.021  0.00  0.00    -0.293 OA
BRANCH  11  13
ATOM     13  C8  <0> d          -3.764  -0.767   0.016  0.00  0.00    -0.017 C 
ATOM     14  H7  <0> d          -4.071  -0.959   1.045  0.00  0.00     0.038 H 
ATOM     15  H8  <0> d          -4.535  -0.186  -0.490  0.00  0.00     0.038 H 
ATOM     16  H9  <0> d          -3.622  -1.714  -0.504  0.00  0.00     0.038 H 
ENDBRANCH  11  13
ENDBRANCH   2  11
BRANCH   1  17
ATOM     17  C1  <0> d          -0.018   1.503   0.010  0.00  0.00    -0.036 C 
ATOM     18  H2  <0> d           1.004   1.880   0.003  0.00  0.00     0.035 H 
ATOM     19  H3  <0> d          -0.545   1.864  -0.873  0.00  0.00     0.035 H 
ATOM     20  H4  <0> d          -0.529   1.854   0.907  0.00  0.00     0.035 H 
ENDBRANCH   1  17
TORSDOF 3
