REMARK  3 active torsions:
REMARK  status: ('A' for Active; 'I' for Inactive)
REMARK    1  A    between atoms: C1_1  and  C2_2 
REMARK    2  A    between atoms: C6_6  and  C8_8 
REMARK       I    between atoms: C8_8  and  N1_10 
REMARK    3  A    between atoms: N1_10  and  C9_11 
ROOT
ATOM      1  C2  <0> d          -1.222   1.748   0.017  0.00  0.00    -0.061 A 
ATOM      2  C3  <0> d          -0.013   1.076   0.008  0.00  0.00    -0.077 A 
ATOM      3  C4  <0> d           1.178   1.781   0.000  0.00  0.00    -0.082 A 
ATOM      4  C5  <0> d           1.166   3.160   0.007  0.00  0.00    -0.068 A 
ATOM      5  C6  <0> d          -0.050   3.845   0.023  0.00  0.00     0.032 A 
ATOM      6  C7  <0> d          -1.248   3.127   0.031  0.00  0.00    -0.062 A 
ATOM      7  H4  <0> d           0.002  -0.004   0.002  0.00  0.00     0.084 H 
ATOM      8  H5  <0> d           2.118   1.250  -0.011  0.00  0.00     0.083 H 
ATOM      9  H6  <0> d           2.096   3.710   0.001  0.00  0.00     0.085 H 
ATOM     10  H7  <0> d          -2.192   3.651   0.043  0.00  0.00     0.085 H 
ENDROOT
BRANCH   5  11
ATOM     11  C8  <0> d          -0.070   5.323   0.031  0.00  0.00     0.251 C 
ATOM     12  O1  <0> d          -1.131   5.916   0.044  0.00  0.00    -0.268 OA
ATOM     13  N1  <0> d           1.088   6.013   0.024  0.00  0.00    -0.361 N 
ATOM     14  H8  <0> d           1.934   5.539   0.013  0.00  0.00     0.162 HD
BRANCH  13  15
ATOM     15  C9  <0> d           1.068   7.478   0.032  0.00  0.00    -0.018 C 
ATOM     16  H9  <0> d           0.541   7.839  -0.852  0.00  0.00     0.056 H 
ATOM     17  H10 <0> d           0.558   7.829   0.928  0.00  0.00     0.056 H 
ATOM     18  H11 <0> d           2.090   7.855   0.024  0.00  0.00     0.056 H 
ENDBRANCH  13  15
ENDBRANCH   5  11
BRANCH   1  19
ATOM     19  C1  <0> d          -2.514   0.972   0.019  0.00  0.00    -0.051 C 
ATOM     20  H1  <0> d          -2.820   0.779   1.047  0.00  0.00     0.033 H 
ATOM     21  H2  <0> d          -3.286   1.551  -0.488  0.00  0.00     0.033 H 
ATOM     22  H3  <0> d          -2.369   0.025  -0.500  0.00  0.00     0.033 H 
ENDBRANCH   1  19
TORSDOF 3
