REMARK  4 active torsions:
REMARK  status: ('A' for Active; 'I' for Inactive)
REMARK    1  A    between atoms: C1_1  and  C2_2 
REMARK    2  A    between atoms: C5_6  and  C10_13 
REMARK    3  A    between atoms: C6_8  and  C8_11 
REMARK    4  A    between atoms: C6_8  and  C9_12 
ROOT
ATOM      1  C2  <0> d           1.274   1.997   0.001  0.00  0.00     0.001 C 
ATOM      2  H1  <0> d           1.389   2.463   0.877  0.00  0.00     0.051 H 
ATOM      3  C3  <0> d           1.202   3.030  -1.128  0.00  0.00    -0.055 C 
ATOM      4  C4  <0> d          -0.060   3.879  -0.961  0.00  0.00    -0.060 C 
ATOM      5  C5  <0> d          -1.301   2.996  -1.105  0.00  0.00    -0.044 C 
ATOM      6  H2  <0> d          -1.273   2.485  -2.067  0.00  0.00     0.041 H 
ATOM      7  C6  <0> d          -1.323   1.961   0.019  0.00  0.00     0.017 C 
ATOM      8  C7  <0> d          -0.014   1.203   0.009  0.00  0.00     0.139 C 
ATOM      9  O1  <0> d           0.002  -0.004   0.002  0.00  0.00    -0.297 OA
ATOM     10  H6  <0> d           2.081   3.674  -1.088  0.00  0.00     0.034 H 
ATOM     11  H7  <0> d           1.171   2.518  -2.089  0.00  0.00     0.034 H 
ATOM     12  H8  <0> d          -0.057   4.342   0.026  0.00  0.00     0.033 H 
ATOM     13  H9  <0> d          -0.078   4.655  -1.726  0.00  0.00     0.033 H 
ENDROOT
BRANCH   7  14
ATOM     14  C8  <0> d          -2.482   0.988  -0.204  0.00  0.00    -0.062 C 
ATOM     15  H10 <0> d          -2.490   0.243   0.591  0.00  0.00     0.029 H 
ATOM     16  H11 <0> d          -3.424   1.537  -0.197  0.00  0.00     0.029 H 
ATOM     17  H12 <0> d          -2.360   0.491  -1.167  0.00  0.00     0.029 H 
ENDBRANCH   7  14
BRANCH   7  18
ATOM     18  C9  <0> d          -1.495   2.672   1.363  0.00  0.00    -0.062 C 
ATOM     19  H13 <0> d          -0.672   3.370   1.513  0.00  0.00     0.029 H 
ATOM     20  H14 <0> d          -2.439   3.217   1.368  0.00  0.00     0.029 H 
ATOM     21  H15 <0> d          -1.498   1.935   2.166  0.00  0.00     0.029 H 
ENDBRANCH   7  18
BRANCH   5  22
ATOM     22  C10 <0> d          -2.557   3.866  -1.025  0.00  0.00    -0.072 C 
ATOM     23  H16 <0> d          -2.540   4.603  -1.828  0.00  0.00     0.028 H 
ATOM     24  H17 <0> d          -3.441   3.237  -1.128  0.00  0.00     0.028 H 
ATOM     25  H18 <0> d          -2.585   4.377  -0.063  0.00  0.00     0.028 H 
ENDBRANCH   5  22
BRANCH   1  26
ATOM     26  C1  <0> d           2.456   1.054  -0.234  0.00  0.00    -0.066 C 
ATOM     27  H3  <0> d           2.335   0.551  -1.194  0.00  0.00     0.028 H 
ATOM     28  H4  <0> d           3.383   1.629  -0.240  0.00  0.00     0.028 H 
ATOM     29  H5  <0> d           2.493   0.312   0.563  0.00  0.00     0.028 H 
ENDBRANCH   1  26
TORSDOF 4
