REMARK  3 active torsions:
REMARK  status: ('A' for Active; 'I' for Inactive)
REMARK    1  A    between atoms: C1_1  and  O1_2 
REMARK    2  A    between atoms: O1_2  and  C2_3 
REMARK    3  A    between atoms: C2_3  and  C3_5 
ROOT
ATOM      1  C3  <0> d           2.380   1.357  -0.013  0.00  0.00     0.045 A 
ATOM      2  C4  <0> d           1.158   2.040   0.002  0.00  0.00    -0.050 A 
ATOM      3  C5  <0> d          -0.016   1.315   0.009  0.00  0.00     0.006 A 
ATOM      4  N1  <0> d           0.002  -0.004   0.002  0.00  0.00    -0.233 NA
ATOM      5  C6  <0> d           1.130  -0.689  -0.012  0.00  0.00     0.210 A 
ATOM      6  C7  <0> d           2.354  -0.040  -0.021  0.00  0.00    -0.011 A 
ATOM      7  F1  <0> d           1.091  -2.039  -0.019  0.00  0.00    -0.184 F 
ATOM      8  H4  <0> d           1.135   3.120   0.008  0.00  0.00     0.087 H 
ATOM      9  H5  <0> d          -0.963   1.834   0.017  0.00  0.00     0.114 H 
ATOM     10  H6  <0> d           3.274  -0.605  -0.033  0.00  0.00     0.092 H 
ENDROOT
BRANCH   1  11
ATOM     11  C2  <0> d           3.663   2.095  -0.021  0.00  0.00     0.293 C 
ATOM     12  O2  <0> d           4.714   1.485  -0.034  0.00  0.00    -0.259 OA
BRANCH  11  13
ATOM     13  O1  <0> d           3.667   3.441  -0.014  0.00  0.00    -0.323 OA
BRANCH  13  14
ATOM     14  C1  <0> d           4.962   4.098  -0.022  0.00  0.00     0.013 C 
ATOM     15  H1  <0> d           5.526   3.799   0.861  0.00  0.00     0.067 H 
ATOM     16  H2  <0> d           5.510   3.808  -0.919  0.00  0.00     0.067 H 
ATOM     17  H3  <0> d           4.822   5.178  -0.015  0.00  0.00     0.067 H 
ENDBRANCH  13  14
ENDBRANCH  11  13
ENDBRANCH   1  11
TORSDOF 3
