REMARK  5 active torsions:
REMARK  status: ('A' for Active; 'I' for Inactive)
REMARK    1  A    between atoms: C1_1  and  C2_2 
REMARK    2  A    between atoms: C2_2  and  O1_3 
REMARK    3  A    between atoms: O1_3  and  C3_4 
REMARK    4  A    between atoms: C3_4  and  C4_5 
REMARK    5  A    between atoms: C9_10  and  O2_11 
ROOT
ATOM      1  C4  <0> d           0.023  -0.705   1.199  0.00  0.00    -0.002 A 
ATOM      2  C5  <0> d           0.042  -2.087   1.188  0.00  0.00    -0.072 A 
ATOM      3  C6  <0> d           0.040  -2.770  -0.013  0.00  0.00    -0.082 A 
ATOM      4  C7  <0> d           0.018  -2.074  -1.208  0.00  0.00    -0.080 A 
ATOM      5  C8  <0> d          -0.006  -0.693  -1.203  0.00  0.00    -0.050 A 
ATOM      6  C9  <0> d           0.002  -0.004   0.002  0.00  0.00     0.074 A 
ATOM      7  H8  <0> d           0.058  -2.633   2.120  0.00  0.00     0.084 H 
ATOM      8  H9  <0> d           0.054  -3.850  -0.019  0.00  0.00     0.083 H 
ATOM      9  H10 <0> d           0.017  -2.610  -2.145  0.00  0.00     0.083 H 
ATOM     10  H11 <0> d          -0.027  -0.149  -2.136  0.00  0.00     0.087 H 
ENDROOT
BRANCH   1  11
ATOM     11  C3  <0> d           0.025   0.039   2.509  0.00  0.00     0.046 C 
ATOM     12  H6  <0> d           0.906   0.678   2.563  0.00  0.00     0.082 H 
ATOM     13  H7  <0> d          -0.873   0.653   2.579  0.00  0.00     0.082 H 
BRANCH  11  14
ATOM     14  O1  <0> d           0.048  -0.897   3.589  0.00  0.00    -0.387 OA
BRANCH  14  15
ATOM     15  C2  <0> d           0.051  -0.291   4.883  0.00  0.00     0.017 C 
ATOM     16  H4  <0> d           0.933   0.341   4.986  0.00  0.00     0.073 H 
ATOM     17  H5  <0> d          -0.846   0.316   5.003  0.00  0.00     0.073 H 
BRANCH  15  18
ATOM     18  C1  <0> d           0.076  -1.381   5.956  0.00  0.00    -0.056 C 
ATOM     19  H1  <0> d           0.079  -0.919   6.943  0.00  0.00     0.030 H 
ATOM     20  H2  <0> d          -0.806  -2.013   5.853  0.00  0.00     0.030 H 
ATOM     21  H3  <0> d           0.974  -1.988   5.837  0.00  0.00     0.030 H 
ENDBRANCH  15  18
ENDBRANCH  14  15
ENDBRANCH  11  14
ENDBRANCH   1  11
BRANCH   6  22
ATOM     22  O2  <0> d          -0.016   1.355   0.009  0.00  0.00    -0.360 OA
ATOM     23  H12 <0> d           0.862   1.760   0.003  0.00  0.00     0.217 HD
ENDBRANCH   6  22
TORSDOF 5
