REMARK  2 active torsions:
REMARK  status: ('A' for Active; 'I' for Inactive)
REMARK    1  A    between atoms: C1_1  and  C2_2 
REMARK    2  A    between atoms: C5_6  and  N3_11 
ROOT
ATOM      1  C2  <0> d          -0.018   1.503   0.010  0.00  0.00     0.049 A 
ATOM      2  C3  <0> d          -1.127   2.276   0.019  0.00  0.00     0.010 A 
ATOM      3  N1  <0> d          -0.710   3.579   0.028  0.00  0.00    -0.313 N 
ATOM      4  C4  <0> d          -1.389   4.766   0.040  0.00  0.00     0.011 A 
ATOM      5  C5  <0> d          -0.717   5.943   0.040  0.00  0.00     0.042 A 
ATOM      6  C6  <0> d           0.692   5.954   0.026  0.00  0.00    -0.053 A 
ATOM      7  C7  <0> d           1.374   4.778   0.014  0.00  0.00    -0.036 A 
ATOM      8  C8  <0> d           0.659   3.563   0.015  0.00  0.00     0.134 A 
ATOM      9  N2  <0> d           1.055   2.296   0.004  0.00  0.00    -0.234 NA
ATOM     10  H4  <0> d          -2.150   1.931   0.021  0.00  0.00     0.115 H 
ATOM     11  H5  <0> d          -2.469   4.766   0.051  0.00  0.00     0.115 H 
ATOM     12  H6  <0> d           1.228   6.892   0.026  0.00  0.00     0.087 H 
ATOM     13  H7  <0> d           2.454   4.774   0.004  0.00  0.00     0.089 H 
ENDROOT
BRANCH   1  14
ATOM     14  C1  <0> d           0.002  -0.004   0.002  0.00  0.00    -0.034 C 
ATOM     15  H1  <0> d          -1.030  -0.385   0.010  0.00  0.00     0.035 H 
ATOM     16  H2  <0> d           0.534  -0.368   0.893  0.00  0.00     0.035 H 
ATOM     17  H3  <0> d           0.517  -0.359  -0.903  0.00  0.00     0.035 H 
ENDBRANCH   1  14
BRANCH   5  18
ATOM     18  N3  <0> d          -1.425   7.152   0.052  0.00  0.00    -0.398 N 
ATOM     19  H8  <0> d          -0.881   8.109   0.052  0.00  0.00     0.156 HD
ATOM     20  H9  <0> d          -2.525   7.146   0.063  0.00  0.00     0.156 HD
ENDBRANCH   5  18
TORSDOF 2
