REMARK  1 active torsions:
REMARK  status: ('A' for Active; 'I' for Inactive)
REMARK    1  A    between atoms: C6_6  and  O1_7 
ROOT
ATOM      1  C1  <0> d          -1.247   3.136   0.030  0.00  0.00    -0.049 A 
ATOM      2  C2  <0> d          -0.061   3.843   0.021  0.00  0.00    -0.054 A 
ATOM      3  C3  <0> d           1.154   3.168   0.005  0.00  0.00     0.034 A 
ATOM      4  C4  <0> d           1.179   1.782   0.000  0.00  0.00    -0.029 A 
ATOM      5  C5  <0> d          -0.013   1.076   0.008  0.00  0.00    -0.043 A 
ATOM      6  C6  <0> d          -1.224   1.750   0.017  0.00  0.00     0.066 A 
ATOM      7  C7  <0> d           2.477   1.018  -0.007  0.00  0.00    -0.037 C 
ATOM      8  C8  <0> d           3.615   1.902  -0.515  0.00  0.00    -0.047 C 
ATOM      9  C9  <0> d           3.611   3.218   0.273  0.00  0.00    -0.007 C 
ATOM     10  N1  <0> d           2.345   3.907  -0.009  0.00  0.00    -0.389 N 
ATOM     11  H1  <0> d          -2.190   3.662   0.043  0.00  0.00     0.087 H 
ATOM     12  H2  <0> d          -0.077   4.923   0.027  0.00  0.00     0.087 H 
ATOM     13  H3  <0> d           0.002  -0.004   0.002  0.00  0.00     0.088 H 
ATOM     14  H5  <0> d           2.704   0.686   1.006  0.00  0.00     0.040 H 
ATOM     15  H6  <0> d           2.379   0.148  -0.657  0.00  0.00     0.040 H 
ATOM     16  H7  <0> d           3.470   2.111  -1.575  0.00  0.00     0.035 H 
ATOM     17  H8  <0> d           4.568   1.393  -0.371  0.00  0.00     0.035 H 
ATOM     18  H9  <0> d           4.449   3.840  -0.043  0.00  0.00     0.064 H 
ATOM     19  H10 <0> d           3.688   3.009   1.340  0.00  0.00     0.064 H 
ATOM     20  H11 <0> d           2.333   4.857  -0.203  0.00  0.00     0.159 HD
ENDROOT
BRANCH   6  21
ATOM     21  O1  <0> d          -2.390   1.050   0.019  0.00  0.00    -0.361 OA
ATOM     22  H4  <0> d          -2.723   0.843   0.903  0.00  0.00     0.217 HD
ENDBRANCH   6  21
TORSDOF 1
