REMARK  1 active torsions:
REMARK  status: ('A' for Active; 'I' for Inactive)
REMARK    1  A    between atoms: N1_4  and  C5_6 
ROOT
ATOM      1  C1  <0> d          -2.706   3.639   0.036  0.00  0.00    -0.066 A 
ATOM      2  C2  <0> d          -3.396   2.410   0.032  0.00  0.00    -0.066 A 
ATOM      3  C3  <0> d          -2.473   1.427   0.021  0.00  0.00    -0.014 A 
ATOM      4  N1  <0> d          -1.235   2.005   0.019  0.00  0.00    -0.316 N 
ATOM      5  C4  <0> d          -1.387   3.363   0.033  0.00  0.00    -0.014 A 
ATOM      6  H1  <0> d          -3.153   4.622   0.044  0.00  0.00     0.085 H 
ATOM      7  H2  <0> d          -4.468   2.279   0.037  0.00  0.00     0.085 H 
ATOM      8  H3  <0> d          -2.677   0.367   0.017  0.00  0.00     0.112 H 
ATOM      9  H4  <0> d          -0.588   4.090   0.038  0.00  0.00     0.112 H 
ENDROOT
BRANCH   4  10
ATOM     10  C5  <0> d          -0.016   1.321   0.009  0.00  0.00     0.150 A 
ATOM     11  N3  <0> d           0.002  -0.004   0.002  0.00  0.00    -0.240 NA
ATOM     12  C8  <0> d           1.156  -0.648  -0.013  0.00  0.00     0.021 A 
ATOM     13  C7  <0> d           2.344   0.059  -0.020  0.00  0.00     0.019 A 
ATOM     14  H7  <0> d           1.171  -1.728  -0.019  0.00  0.00     0.117 H 
ATOM     15  N2  <0> d           2.330   1.381  -0.013  0.00  0.00    -0.268 NA
ATOM     16  H6  <0> d           3.286  -0.470  -0.032  0.00  0.00     0.117 H 
ATOM     17  C6  <0> d           1.181   2.030   0.002  0.00  0.00     0.046 A 
ATOM     18  H5  <0> d           1.170   3.110   0.007  0.00  0.00     0.120 H 
ENDBRANCH   4  10
TORSDOF 1
