REMARK  3 active torsions:
REMARK  status: ('A' for Active; 'I' for Inactive)
REMARK    1  A    between atoms: C1_1  and  C2_2 
REMARK    2  A    between atoms: C2_2  and  C3_3 
REMARK    3  A    between atoms: C4_4  and  C8_10 
ROOT
ATOM      1  C3  <0> d           0.707  -0.490  -1.238  0.00  0.00     0.042 A 
ATOM      2  C4  <0> d          -0.018  -0.716  -2.392  0.00  0.00    -0.037 A 
ATOM      3  C5  <0> d           0.640  -1.163  -3.528  0.00  0.00    -0.072 A 
ATOM      4  C6  <0> d           2.009  -1.367  -3.460  0.00  0.00    -0.043 A 
ATOM      5  C7  <0> d           2.669  -1.120  -2.270  0.00  0.00     0.126 A 
ATOM      6  N1  <0> d           2.011  -0.690  -1.210  0.00  0.00    -0.241 NA
ATOM      7 Cl1  <0> d           4.384  -1.372  -2.171  0.00  0.00    -0.062 Cl
ATOM      8  H6  <0> d           0.098  -1.348  -4.444  0.00  0.00     0.084 H 
ATOM      9  H7  <0> d           2.553  -1.715  -4.326  0.00  0.00     0.088 H 
ENDROOT
BRANCH   1  10
ATOM     10  C2  <0> d           0.002  -0.004   0.002  0.00  0.00    -0.028 C 
ATOM     11  H4  <0> d           0.529  -0.365   0.885  0.00  0.00     0.041 H 
ATOM     12  H5  <0> d          -1.020  -0.381   0.010  0.00  0.00     0.041 H 
BRANCH  10  13
ATOM     13  C1  <0> d          -0.019   1.526   0.010  0.00  0.00    -0.071 C 
ATOM     14  H1  <0> d           1.004   1.903   0.003  0.00  0.00     0.028 H 
ATOM     15  H2  <0> d          -0.546   1.887  -0.873  0.00  0.00     0.028 H 
ATOM     16  H3  <0> d          -0.529   1.877   0.907  0.00  0.00     0.028 H 
ENDBRANCH  10  13
ENDBRANCH   1  10
BRANCH   2  17
ATOM     17  C8  <0> d          -1.506  -0.479  -2.416  0.00  0.00    -0.049 C 
ATOM     18  H8  <0> d          -1.706   0.550  -2.712  0.00  0.00     0.033 H 
ATOM     19  H9  <0> d          -1.971  -1.159  -3.130  0.00  0.00     0.033 H 
ATOM     20  H10 <0> d          -1.919  -0.658  -1.423  0.00  0.00     0.033 H 
ENDBRANCH   2  17
TORSDOF 3
