REMARK  3 active torsions:
REMARK  status: ('A' for Active; 'I' for Inactive)
REMARK    1  A    between atoms: C1_1  and  C4_8 
REMARK    2  A    between atoms: C1_1  and  C2_2 
REMARK    3  A    between atoms: C4_8  and  O4_10 
ROOT
ATOM      1  C1  <0> d          -0.018   1.503   0.010  0.00  0.00     0.059 C 
ATOM      2  H1  <0> d           1.004   1.880   0.003  0.00  0.00     0.058 H 
ATOM      3  H2  <0> d          -0.529   1.854   0.907  0.00  0.00     0.058 H 
ENDROOT
BRANCH   1   4
ATOM      4  C4  <0> d           0.002  -0.004   0.002  0.00  0.00     0.145 C 
ATOM      5  O3  <0> d          -0.521  -0.610  -0.902  0.00  0.00    -0.650 OA
BRANCH   4   6
ATOM      6  O4  <0> d           0.602  -0.673   1.000  0.00  0.00    -0.776 OA
ATOM      7  H3  <0> d           0.564  -1.635   0.907  0.00  0.00     0.167 HD
ENDBRANCH   4   6
ENDBRANCH   1   4
BRANCH   1   8
ATOM      8  C2  <0> d          -0.747   2.002  -1.211  0.00  0.00     0.131 A 
ATOM      9  C3  <0> d          -2.137   2.256  -1.287  0.00  0.00     0.255 A 
ATOM     10  N1  <0> d          -2.431   2.677  -2.485  0.00  0.00    -0.074 NA
ATOM     11  O2  <0> d          -3.024   2.089  -0.273  0.00  0.00    -0.166 OA
ATOM     12  O1  <0> d          -1.224   2.708  -3.231  0.00  0.00    -0.104 OA
ATOM     13  N2  <0> d          -0.197   2.271  -2.356  0.00  0.00    -0.105 NA
ENDBRANCH   1   8
TORSDOF 3
