REMARK  3 active torsions:
REMARK  status: ('A' for Active; 'I' for Inactive)
REMARK    1  A    between atoms: C1_1  and  C2_2 
REMARK    2  A    between atoms: C2_2  and  C3_3 
REMARK    3  A    between atoms: C6_9  and  C7_11 
ROOT
ATOM      1  C3  <0> d           0.707  -0.490  -1.238  0.00  0.00     0.041 A 
ATOM      2  C4  <0> d           2.032  -0.802  -1.191  0.00  0.00     0.006 A 
ATOM      3  C5  <0> d           2.662  -1.254  -2.369  0.00  0.00     0.248 A 
ATOM      4  O1  <0> d           3.846  -1.545  -2.370  0.00  0.00    -0.268 OA
ATOM      5  N1  <0> d           1.925  -1.360  -3.495  0.00  0.00    -0.312 N 
ATOM      6  H1  <0> d           2.336  -1.669  -4.318  0.00  0.00     0.170 HD
ATOM      7  C6  <0> d           0.617  -1.035  -3.476  0.00  0.00     0.103 A 
ATOM      8  N2  <0> d           0.033  -0.621  -2.383  0.00  0.00    -0.240 NA
ATOM      9  H7  <0> d           2.589  -0.705  -0.271  0.00  0.00     0.095 H 
ENDROOT
BRANCH   1  10
ATOM     10  C2  <0> d           0.002  -0.004   0.002  0.00  0.00    -0.028 C 
ATOM     11  H5  <0> d           0.529  -0.365   0.885  0.00  0.00     0.041 H 
ATOM     12  H6  <0> d          -1.020  -0.381   0.010  0.00  0.00     0.041 H 
BRANCH  10  13
ATOM     13  C1  <0> d          -0.019   1.526   0.010  0.00  0.00    -0.071 C 
ATOM     14  H2  <0> d           1.004   1.903   0.003  0.00  0.00     0.028 H 
ATOM     15  H3  <0> d          -0.546   1.887  -0.873  0.00  0.00     0.028 H 
ATOM     16  H4  <0> d          -0.529   1.877   0.907  0.00  0.00     0.028 H 
ENDBRANCH  10  13
ENDBRANCH   1  10
BRANCH   7  17
ATOM     17  C7  <0> d          -0.192  -1.158  -4.741  0.00  0.00    -0.021 C 
ATOM     18  H8  <0> d          -0.623  -2.157  -4.801  0.00  0.00     0.037 H 
ATOM     19  H9  <0> d          -0.991  -0.417  -4.736  0.00  0.00     0.037 H 
ATOM     20  H10 <0> d           0.455  -0.990  -5.603  0.00  0.00     0.037 H 
ENDBRANCH   7  17
TORSDOF 3
