REMARK  1 active torsions:
REMARK  status: ('A' for Active; 'I' for Inactive)
REMARK    1  A    between atoms: C4_4  and  C6_6 
ROOT
ATOM      1  C1  <0> d           1.690  -1.765  -0.027  0.00  0.00    -0.064 C 
ATOM      2  C2  <0> d           1.449  -1.334  -1.495  0.00  0.00    -0.064 C 
ATOM      3  C3  <0> d           0.139  -0.521  -1.441  0.00  0.00    -0.055 C 
ATOM      4  C4  <0> d           0.002  -0.004   0.002  0.00  0.00     0.009 C 
ATOM      5  C5  <0> d           1.233  -0.520   0.775  0.00  0.00    -0.055 C 
ATOM      6  H1  <0> d           2.749  -1.970   0.187  0.00  0.00     0.033 H 
ATOM      7  H2  <0> d           1.082  -2.633   0.266  0.00  0.00     0.033 H 
ATOM      8  H3  <0> d           2.297  -0.726  -1.843  0.00  0.00     0.033 H 
ATOM      9  H4  <0> d           1.355  -2.228  -2.129  0.00  0.00     0.033 H 
ATOM     10  H5  <0> d           0.196   0.315  -2.153  0.00  0.00     0.034 H 
ATOM     11  H6  <0> d          -0.708  -1.172  -1.706  0.00  0.00     0.034 H 
ATOM     12  H7  <0> d          -0.940  -0.335   0.464  0.00  0.00     0.052 H 
ATOM     13  H8  <0> d           0.981  -0.819   1.803  0.00  0.00     0.034 H 
ATOM     14  H9  <0> d           2.047   0.220   0.798  0.00  0.00     0.034 H 
ENDROOT
BRANCH   4  15
ATOM     15  C6  <0> d          -0.018   1.503   0.010  0.00  0.00     0.178 A 
ATOM     16  N4  <0> d          -1.080   2.271   0.019  0.00  0.00    -0.111 NA
ATOM     17  N3  <0> d          -0.684   3.497   0.026  0.00  0.00    -0.021 NA
ATOM     18  N2  <0> d           0.602   3.531   0.015  0.00  0.00    -0.021 NA
ATOM     19  N1  <0> d           1.050   2.321   0.004  0.00  0.00    -0.111 NA
ENDBRANCH   4  15
TORSDOF 1
