REMARK  1 active torsions:
REMARK  status: ('A' for Active; 'I' for Inactive)
REMARK    1  A    between atoms: C5_5  and  O1_7 
ROOT
ATOM      1  C1  <0> d          -1.997   2.422  -3.535  0.00  0.00    -0.080 A 
ATOM      2  C2  <0> d          -2.198   3.088  -2.343  0.00  0.00    -0.076 A 
ATOM      3  C3  <0> d          -1.561   2.666  -1.186  0.00  0.00    -0.045 A 
ATOM      4  C4  <0> d          -0.721   1.575  -1.225  0.00  0.00    -0.015 A 
ATOM      5  C5  <0> d          -0.516   0.903  -2.426  0.00  0.00     0.072 A 
ATOM      6  C6  <0> d          -1.155   1.328  -3.580  0.00  0.00    -0.050 A 
ATOM      7  C7  <0> d          -0.013   1.086   0.008  0.00  0.00    -0.023 C 
ATOM      8  C8  <0> d          -0.694   1.559   1.254  0.00  0.00    -0.102 C 
ATOM      9  C9  <0> d          -1.482   2.585   1.291  0.00  0.00    -0.102 C 
ATOM     10  C10 <0> d          -1.808   3.419   0.092  0.00  0.00    -0.025 C 
ATOM     11  H1  <0> d          -2.497   2.756  -4.433  0.00  0.00     0.083 H 
ATOM     12  H2  <0> d          -2.857   3.943  -2.311  0.00  0.00     0.084 H 
ATOM     13  H3  <0> d          -0.996   0.804  -4.511  0.00  0.00     0.087 H 
ATOM     14  H5  <0> d           0.002  -0.004   0.002  0.00  0.00     0.046 H 
ATOM     15  H6  <0> d           1.012   1.456   0.000  0.00  0.00     0.046 H 
ATOM     16  H7  <0> d          -0.519   1.016   2.171  0.00  0.00     0.076 H 
ATOM     17  H8  <0> d          -1.929   2.853   2.237  0.00  0.00     0.076 H 
ATOM     18  H9  <0> d          -1.187   4.316   0.102  0.00  0.00     0.046 H 
ATOM     19  H10 <0> d          -2.856   3.713   0.136  0.00  0.00     0.046 H 
ENDROOT
BRANCH   5  20
ATOM     20  O1  <0> d           0.312  -0.173  -2.467  0.00  0.00    -0.360 OA
ATOM     21  H4  <0> d          -0.129  -1.017  -2.298  0.00  0.00     0.217 HD
ENDBRANCH   5  20
TORSDOF 1
