REMARK  0 active torsions:
REMARK  status: ('A' for Active; 'I' for Inactive)
ROOT
ATOM      1  C1  <0> d           0.002  -0.004   0.002  0.00  0.00     0.066 A 
ATOM      2  C2  <0> d           1.463  -0.404  -0.014  0.00  0.00     0.153 A 
ATOM      3  O1  <0> d           1.921  -1.521  -0.025  0.00  0.00    -0.296 OA
ATOM      4  C3  <0> d           2.220   0.906  -0.014  0.00  0.00     0.050 A 
ATOM      5  N1  <0> d           1.232   1.984   0.001  0.00  0.00    -0.354 N 
ATOM      6  C4  <0> d          -0.018   1.503   0.010  0.00  0.00     0.225 A 
ATOM      7  O2  <0> d          -1.023   2.183   0.019  0.00  0.00    -0.273 OA
ATOM      8  H1  <0> d          -0.463  -0.348   0.818  0.00  0.00     0.058 H 
ATOM      9  H2  <0> d          -0.501  -0.381  -0.888  0.00  0.00     0.058 H 
ATOM     10  H3  <0> d           2.805   0.952   0.795  0.00  0.00     0.075 H 
ATOM     11  H4  <0> d           2.833   0.979  -0.912  0.00  0.00     0.075 H 
ATOM     12  H5  <0> d           1.455   2.928   0.004  0.00  0.00     0.162 HD
ENDROOT
TORSDOF 0
