REMARK  2 active torsions:
REMARK  status: ('A' for Active; 'I' for Inactive)
REMARK    1  A    between atoms: C1_1  and  C2_2 
REMARK    2  A    between atoms: C2_2  and  C3_3 
ROOT
ATOM      1  C3  <0> d          -2.143   1.058   1.278  0.00  0.00     0.053 A 
ATOM      2  C4  <0> d          -2.504  -0.042   1.900  0.00  0.00    -0.065 A 
ATOM      3  C5  <0> d          -3.994  -0.194   1.660  0.00  0.00     0.034 A 
ATOM      4  C6  <0> d          -4.324   1.012   0.801  0.00  0.00     0.267 A 
ATOM      5  O1  <0> d          -5.404   1.318   0.353  0.00  0.00    -0.265 OA
ATOM      6  O2  <0> d          -3.163   1.667   0.646  0.00  0.00    -0.283 OA
ATOM      7  H6  <0> d          -1.868  -0.704   2.470  0.00  0.00     0.081 H 
ATOM      8  H7  <0> d          -4.544  -0.161   2.600  0.00  0.00     0.054 H 
ATOM      9  H8  <0> d          -4.205  -1.119   1.124  0.00  0.00     0.054 H 
ENDROOT
BRANCH   1  10
ATOM     10  C2  <0> d          -0.729   1.579   1.267  0.00  0.00    -0.024 C 
ATOM     11  H4  <0> d          -0.202   1.218   2.150  0.00  0.00     0.042 H 
ATOM     12  H5  <0> d          -0.744   2.669   1.273  0.00  0.00     0.042 H 
BRANCH  10  13
ATOM     13  C1  <0> d          -0.013   1.086   0.008  0.00  0.00    -0.071 C 
ATOM     14  H1  <0> d           0.002  -0.004   0.002  0.00  0.00     0.028 H 
ATOM     15  H2  <0> d           1.010   1.463   0.000  0.00  0.00     0.028 H 
ATOM     16  H3  <0> d          -0.540   1.447  -0.875  0.00  0.00     0.028 H 
ENDBRANCH  10  13
ENDBRANCH   1  10
TORSDOF 2
