REMARK  2 active torsions:
REMARK  status: ('A' for Active; 'I' for Inactive)
REMARK    1  A    between atoms: C1_1  and  C2_2 
REMARK    2  A    between atoms: C5_6  and  C6_8 
ROOT
ATOM      1  C2  <0> d           0.002  -0.004   0.002  0.00  0.00     0.122 A 
ATOM      2  N1  <0> d          -0.006  -0.638  -1.155  0.00  0.00    -0.246 NA
ATOM      3  C3  <0> d           0.017  -1.959  -1.208  0.00  0.00     0.007 A 
ATOM      4  C4  <0> d           0.038  -2.683  -0.024  0.00  0.00    -0.031 A 
ATOM      5  C5  <0> d           0.040  -1.980   1.181  0.00  0.00     0.136 A 
ATOM      6  N2  <0> d           0.022  -0.649   1.149  0.00  0.00    -0.227 NA
ATOM      7  H4  <0> d           0.015  -2.467  -2.161  0.00  0.00     0.114 H 
ATOM      8  H5  <0> d           0.052  -3.763  -0.035  0.00  0.00     0.089 H 
ENDROOT
BRANCH   1   9
ATOM      9  C1  <0> d          -0.018   1.503   0.010  0.00  0.00    -0.019 C 
ATOM     10  H1  <0> d          -0.033   1.875  -1.025  0.00  0.00     0.037 H 
ATOM     11  H2  <0> d           0.880   1.879   0.522  0.00  0.00     0.037 H 
ATOM     12  H3  <0> d          -0.916   1.854   0.539  0.00  0.00     0.037 H 
ENDBRANCH   1   9
BRANCH   5  13
ATOM     13  C6  <0> d           0.063  -2.702   2.476  0.00  0.00     0.229 C 
ATOM     14  O1  <0> d           0.079  -3.916   2.494  0.00  0.00    -0.643 OA
ATOM     15  O2  <0> d           0.065  -2.012   3.632  0.00  0.00    -0.643 OA
ENDBRANCH   5  13
TORSDOF 2
