REMARK  1 active torsions:
REMARK  status: ('A' for Active; 'I' for Inactive)
REMARK    1  A    between atoms: C3_3  and  N3_13 
ROOT
ATOM      1  C1  <0> d          -0.017   1.377   0.010  0.00  0.00    -0.079 A 
ATOM      2  C2  <0> d           1.168   2.092   0.002  0.00  0.00    -0.055 A 
ATOM      3  C3  <0> d           2.385   1.426  -0.013  0.00  0.00     0.055 A 
ATOM      4  C4  <0> d           2.410   0.034  -0.021  0.00  0.00     0.089 A 
ATOM      5  C5  <0> d           1.214  -0.682  -0.013  0.00  0.00     0.065 A 
ATOM      6  C6  <0> d           0.002  -0.004   0.002  0.00  0.00    -0.055 A 
ATOM      7  N1  <0> d           1.552  -2.033  -0.024  0.00  0.00    -0.306 N 
ATOM      8  H1  <0> d           0.927  -2.774  -0.021  0.00  0.00     0.170 HD
ATOM      9  C7  <0> d           2.894  -2.135  -0.037  0.00  0.00     0.325 A 
ATOM     10  O1  <0> d           3.518  -3.180  -0.049  0.00  0.00    -0.247 OA
ATOM     11  N2  <0> d           3.442  -0.905  -0.035  0.00  0.00    -0.305 N 
ATOM     12  H2  <0> d           4.391  -0.705  -0.044  0.00  0.00     0.171 HD
ATOM     13  H3  <0> d          -0.961   1.901   0.026  0.00  0.00     0.083 H 
ATOM     14  H4  <0> d           1.145   3.172   0.008  0.00  0.00     0.087 H 
ATOM     15  H5  <0> d          -0.926  -0.557   0.008  0.00  0.00     0.087 H 
ENDROOT
BRANCH   3  16
ATOM     16  N3  <0> d           3.582   2.150  -0.021  0.00  0.00    -0.397 N 
ATOM     17  H6  <0> d           3.562   3.120  -0.016  0.00  0.00     0.156 HD
ATOM     18  H7  <0> d           4.431   1.683  -0.032  0.00  0.00     0.156 HD
ENDBRANCH   3  16
TORSDOF 1
