REMARK  1 active torsions:
REMARK  status: ('A' for Active; 'I' for Inactive)
REMARK    1  A    between atoms: C6_9  and  N4_10 
ROOT
ATOM      1  C1  <0> d          -0.017   1.384   0.010  0.00  0.00    -0.018 A 
ATOM      2  C2  <0> d           1.301   1.822  -0.001  0.00  0.00     0.026 A 
ATOM      3  N1  <0> d           2.097   0.778  -0.014  0.00  0.00    -0.177 NA
ATOM      4  N2  <0> d           1.318  -0.384  -0.013  0.00  0.00    -0.200 N 
ATOM      5  C3  <0> d           0.002  -0.004   0.002  0.00  0.00     0.157 A 
ATOM      6  N3  <0> d          -0.975  -0.923   0.006  0.00  0.00    -0.202 NA
ATOM      7  C4  <0> d          -0.693  -2.213  -0.003  0.00  0.00     0.205 A 
ATOM      8  C5  <0> d           0.641  -2.644  -0.018  0.00  0.00     0.015 A 
ATOM      9  C6  <0> d           1.643  -1.716  -0.023  0.00  0.00     0.129 A 
ATOM     10  O1  <0> d          -1.697  -3.123   0.002  0.00  0.00    -0.170 OA
ATOM     11  H1  <0> d          -0.897   2.009   0.025  0.00  0.00     0.091 H 
ATOM     12  H2  <0> d           1.619   2.854   0.002  0.00  0.00     0.117 H 
ATOM     13  H3  <0> d           0.873  -3.698  -0.026  0.00  0.00     0.096 H 
ENDROOT
BRANCH   9  14
ATOM     14  N4  <0> d           2.963  -2.114  -0.038  0.00  0.00    -0.384 N 
ATOM     15  H4  <0> d           3.670  -1.450  -0.041  0.00  0.00     0.157 HD
ATOM     16  H5  <0> d           3.186  -3.058  -0.045  0.00  0.00     0.157 HD
ENDBRANCH   9  14
TORSDOF 1
