REMARK  5 active torsions:
REMARK  status: ('A' for Active; 'I' for Inactive)
REMARK    1  A    between atoms: C1_1  and  C2_2 
REMARK    2  A    between atoms: C2_2  and  N1_3 
REMARK    3  A    between atoms: C4_7  and  S1_8 
REMARK    4  A    between atoms: S1_8  and  C5_9 
REMARK    5  A    between atoms: C5_9  and  C6_10 
ROOT
ATOM      1  N1  <0> d           0.688  -0.476  -1.203  0.00  0.00    -0.318 N 
ATOM      2  C3  <0> d           0.115  -0.837  -2.392  0.00  0.00     0.089 A 
ATOM      3  N2  <0> d           1.077  -1.193  -3.194  0.00  0.00    -0.143 NA
ATOM      4  N3  <0> d           2.211  -1.084  -2.599  0.00  0.00    -0.123 NA
ATOM      5  C4  <0> d           2.032  -0.643  -1.375  0.00  0.00     0.191 A 
ATOM      6  H6  <0> d          -0.940  -0.828  -2.622  0.00  0.00     0.146 H 
ENDROOT
BRANCH   5   7
ATOM      7  S1  <0> d           3.288  -0.328  -0.180  0.00  0.00    -0.090 SA
BRANCH   7   8
ATOM      8  C5  <0> d           4.828  -0.749  -1.042  0.00  0.00    -0.019 C 
ATOM      9  H7  <0> d           4.802  -1.796  -1.343  0.00  0.00     0.049 H 
ATOM     10  H8  <0> d           4.934  -0.119  -1.925  0.00  0.00     0.049 H 
BRANCH   8  11
ATOM     11  C6  <0> d           6.016  -0.518  -0.105  0.00  0.00    -0.068 C 
ATOM     12  H9  <0> d           6.042   0.529   0.197  0.00  0.00     0.028 H 
ATOM     13  H10 <0> d           5.910  -1.148   0.778  0.00  0.00     0.028 H 
ATOM     14  H11 <0> d           6.941  -0.771  -0.622  0.00  0.00     0.028 H 
ENDBRANCH   8  11
ENDBRANCH   7   8
ENDBRANCH   5   7
BRANCH   1  15
ATOM     15  C2  <0> d           0.002  -0.004   0.002  0.00  0.00    -0.001 C 
ATOM     16  H4  <0> d           0.529  -0.365   0.885  0.00  0.00     0.064 H 
ATOM     17  H5  <0> d          -1.020  -0.381   0.010  0.00  0.00     0.064 H 
BRANCH  15  18
ATOM     18  C1  <0> d          -0.019   1.526   0.010  0.00  0.00    -0.061 C 
ATOM     19  H1  <0> d           1.004   1.903   0.003  0.00  0.00     0.029 H 
ATOM     20  H2  <0> d          -0.546   1.887  -0.873  0.00  0.00     0.029 H 
ATOM     21  H3  <0> d          -0.529   1.877   0.907  0.00  0.00     0.029 H 
ENDBRANCH  15  18
ENDBRANCH   1  15
TORSDOF 5
