REMARK  0 active torsions:
REMARK  status: ('A' for Active; 'I' for Inactive)
ROOT
ATOM      1  C1  <0> d           0.002  -0.004   0.002  0.00  0.00     0.047 A 
ATOM      2  C2  <0> d           1.209  -0.684  -0.013  0.00  0.00     0.084 A 
ATOM      3  C3  <0> d           2.375   0.074  -0.020  0.00  0.00     0.106 A 
ATOM      4  C4  <0> d           2.262   1.479  -0.012  0.00  0.00     0.201 A 
ATOM      5  N1  <0> d           3.525   1.971  -0.021  0.00  0.00    -0.221 NA
ATOM      6  C5  <0> d           4.379   0.988  -0.034  0.00  0.00     0.067 A 
ATOM      7  N2  <0> d           3.722  -0.203  -0.034  0.00  0.00    -0.346 N 
ATOM      8  H1  <0> d           4.140  -1.111  -0.042  0.00  0.00     0.167 HD
ATOM      9  N3  <0> d           1.052   2.031   0.003  0.00  0.00    -0.128 NA
ATOM     10  N4  <0> d          -0.016   1.317   0.009  0.00  0.00    -0.159 NA
ATOM     11 Cl1  <0> d           1.264  -2.419  -0.021  0.00  0.00    -0.080 Cl
ATOM     12  H2  <0> d          -0.927  -0.555   0.008  0.00  0.00     0.120 H 
ATOM     13  H3  <0> d           5.453   1.101  -0.044  0.00  0.00     0.143 H 
ENDROOT
TORSDOF 0
