REMARK  4 active torsions:
REMARK  status: ('A' for Active; 'I' for Inactive)
REMARK    1  A    between atoms: C1_1  and  C2_2 
REMARK    2  A    between atoms: C2_2  and  C3_3 
REMARK    3  A    between atoms: C3_3  and  C4_5 
REMARK    4  A    between atoms: C3_3  and  N1_7 
ROOT
ATOM      1  C3  <0> d          -0.729   1.579   1.267  0.00  0.00     0.099 C 
ATOM      2  H1  <0> d          -1.776   1.277   1.232  0.00  0.00     0.090 H 
ENDROOT
BRANCH   1   3
ATOM      3  C2  <0> d          -0.013   1.086   0.008  0.00  0.00    -0.040 C 
ATOM      4  H5  <0> d           0.002  -0.004   0.002  0.00  0.00     0.036 H 
ATOM      5  H6  <0> d           1.010   1.463   0.000  0.00  0.00     0.036 H 
BRANCH   3   6
ATOM      6  C1  <0> d          -0.753   1.593  -1.232  0.00  0.00    -0.074 C 
ATOM      7  H2  <0> d          -1.775   1.215  -1.224  0.00  0.00     0.027 H 
ATOM      8  H3  <0> d          -0.767   2.683  -1.226  0.00  0.00     0.027 H 
ATOM      9  H4  <0> d          -0.242   1.241  -2.128  0.00  0.00     0.027 H 
ENDBRANCH   3   6
ENDBRANCH   1   3
BRANCH   1  10
ATOM     10  C4  <0> d          -0.642   3.082   1.337  0.00  0.00     0.197 C 
ATOM     11  O1  <0> d          -0.067   3.696   0.470  0.00  0.00    -0.646 OA
ATOM     12  O2  <0> d          -1.204   3.739   2.364  0.00  0.00    -0.646 OA
ENDBRANCH   1  10
BRANCH   1  13
ATOM     13  N1  <0> d          -0.092   0.997   2.451  0.00  0.00    -0.352 N 
ATOM     14  C8  <0> d          -0.705   0.200   3.371  0.00  0.00    -0.020 A 
ATOM     15  C7  <0> d           0.203  -0.136   4.310  0.00  0.00    -0.067 A 
ATOM     16  H10 <0> d          -1.739  -0.110   3.352  0.00  0.00     0.111 H 
ATOM     17  C6  <0> d           1.422   0.477   3.956  0.00  0.00    -0.067 A 
ATOM     18  H9  <0> d           0.029  -0.760   5.174  0.00  0.00     0.085 H 
ATOM     19  C5  <0> d           1.213   1.159   2.811  0.00  0.00    -0.020 A 
ATOM     20  H8  <0> d           2.353   0.409   4.498  0.00  0.00     0.085 H 
ATOM     21  H7  <0> d           1.952   1.735   2.274  0.00  0.00     0.111 H 
ENDBRANCH   1  13
TORSDOF 4
