REMARK  2 active torsions:
REMARK  status: ('A' for Active; 'I' for Inactive)
REMARK    1  A    between atoms: C2_2  and  O4_14 
REMARK    2  A    between atoms: C5_9  and  O3_13 
ROOT
ATOM      1  C1  <0> d           0.497   3.506  -0.956  0.00  0.00     0.046 C 
ATOM      2  C2  <0> d          -0.389   2.243  -1.205  0.00  0.00     0.083 C 
ATOM      3  H1  <0> d          -0.110   1.741  -2.131  0.00  0.00     0.090 H 
ATOM      4  C3  <0> d          -0.017   1.405   0.010  0.00  0.00     0.092 C 
ATOM      5  H2  <0> d          -0.489   1.785   0.916  0.00  0.00     0.091 H 
ATOM      6  C4  <0> d           1.532   1.704  -0.003  0.00  0.00     0.092 C 
ATOM      7  H3  <0> d           1.935   1.302  -0.933  0.00  0.00     0.091 H 
ATOM      8  O1  <0> d           1.584   3.090  -0.082  0.00  0.00    -0.378 OA
ATOM      9  C5  <0> d           1.977   0.820   1.132  0.00  0.00     0.083 C 
ATOM     10  H4  <0> d           1.896   1.341   2.085  0.00  0.00     0.090 H 
ATOM     11  C6  <0> d           0.954  -0.355   1.052  0.00  0.00     0.046 C 
ATOM     12  O2  <0> d           0.002  -0.004   0.002  0.00  0.00    -0.378 OA
ATOM     13  H5  <0> d          -0.092   4.285  -0.474  0.00  0.00     0.078 H 
ATOM     14  H6  <0> d           0.898   3.872  -1.901  0.00  0.00     0.078 H 
ATOM     15  H7  <0> d           0.436  -0.465   2.004  0.00  0.00     0.078 H 
ATOM     16  H8  <0> d           1.467  -1.282   0.796  0.00  0.00     0.078 H 
ENDROOT
BRANCH   2  17
ATOM     17  O4  <0> d          -1.778   2.576  -1.199  0.00  0.00    -0.391 OA
ATOM     18  H10 <0> d          -2.059   3.110  -1.955  0.00  0.00     0.210 HD
ENDBRANCH   2  17
BRANCH   9  19
ATOM     19  O3  <0> d           3.310   0.350   0.920  0.00  0.00    -0.391 OA
ATOM     20  H9  <0> d           3.609  -0.292   1.577  0.00  0.00     0.210 HD
ENDBRANCH   9  19
TORSDOF 2
