REMARK  0 active torsions:
REMARK  status: ('A' for Active; 'I' for Inactive)
ROOT
ATOM      1  C1  <0> d           1.484   2.043  -2.669  0.00  0.00    -0.045 C 
ATOM      2  C2  <0> d           0.774   3.093  -3.545  0.00  0.00    -0.105 C 
ATOM      3  C3  <0> d          -0.123   3.767  -2.799  0.00  0.00    -0.101 C 
ATOM      4  C4  <0> d          -0.068   3.196  -1.482  0.00  0.00    -0.027 C 
ATOM      5  H1  <0> d          -0.535   2.248  -1.748  0.00  0.00     0.047 H 
ATOM      6  C5  <0> d           1.417   2.709  -1.300  0.00  0.00    -0.037 C 
ATOM      7  H2  <0> d           2.135   3.523  -1.201  0.00  0.00     0.042 H 
ATOM      8  C6  <0> d           1.227   1.949   0.001  0.00  0.00    -0.033 C 
ATOM      9  H3  <0> d           2.126   1.475   0.395  0.00  0.00     0.046 H 
ATOM     10  C7  <0> d           0.624   3.165   0.833  0.00  0.00    -0.051 C 
ATOM     11  C8  <0> d          -0.651   3.294  -0.104  0.00  0.00    -0.030 C 
ATOM     12  H4  <0> d          -1.370   4.088   0.095  0.00  0.00     0.046 H 
ATOM     13  C9  <0> d          -1.114   1.808   0.017  0.00  0.00    -0.101 C 
ATOM     14  C10 <0> d          -0.013   1.076   0.008  0.00  0.00    -0.101 C 
ATOM     15  H5  <0> d           2.517   1.902  -2.987  0.00  0.00     0.039 H 
ATOM     16  H6  <0> d           0.942   1.098  -2.672  0.00  0.00     0.039 H 
ATOM     17  H7  <0> d           0.966   3.263  -4.595  0.00  0.00     0.076 H 
ATOM     18  H8  <0> d          -0.752   4.584  -3.119  0.00  0.00     0.076 H 
ATOM     19  H9  <0> d           0.365   2.885   1.854  0.00  0.00     0.034 H 
ATOM     20  H10 <0> d           1.260   4.050   0.799  0.00  0.00     0.034 H 
ATOM     21  H11 <0> d          -2.130   1.450   0.094  0.00  0.00     0.076 H 
ATOM     22  H12 <0> d           0.002  -0.004   0.002  0.00  0.00     0.076 H 
ENDROOT
TORSDOF 0
