REMARK  3 active torsions:
REMARK  status: ('A' for Active; 'I' for Inactive)
REMARK    1  A    between atoms: C1_1  and  C2_2 
REMARK    2  A    between atoms: C2_2  and  N1_3 
REMARK    3  A    between atoms: N1_3  and  C3_4 
ROOT
ATOM      1  C3  <0> d           1.207   2.051   0.002  0.00  0.00     0.145 A 
ATOM      2  C4  <0> d          -0.017   1.381   0.010  0.00  0.00    -0.034 A 
ATOM      3  C5  <0> d           0.002  -0.004   0.002  0.00  0.00    -0.038 A 
ATOM      4  C6  <0> d           1.237  -0.640  -0.013  0.00  0.00     0.148 A 
ATOM      5  N2  <0> d           2.346   0.074  -0.020  0.00  0.00    -0.136 NA
ATOM      6  N3  <0> d           2.335   1.357  -0.013  0.00  0.00    -0.131 NA
ATOM      7 Cl1  <0> d           1.321  -2.374  -0.023  0.00  0.00    -0.061 Cl
ATOM      8  H7  <0> d          -0.950   1.925   0.017  0.00  0.00     0.089 H 
ATOM      9  H8  <0> d          -0.916  -0.573   0.007  0.00  0.00     0.088 H 
ENDROOT
BRANCH   1  10
ATOM     10  N1  <0> d           1.242   3.442   0.008  0.00  0.00    -0.374 N 
ATOM     11  H6  <0> d           2.094   3.905   0.003  0.00  0.00     0.161 HD
BRANCH  10  12
ATOM     12  C2  <0> d          -0.008   4.206   0.024  0.00  0.00    -0.009 C 
ATOM     13  H4  <0> d          -0.594   3.962  -0.862  0.00  0.00     0.063 H 
ATOM     14  H5  <0> d          -0.577   3.953   0.918  0.00  0.00     0.063 H 
BRANCH  12  15
ATOM     15  C1  <0> d           0.310   5.702   0.028  0.00  0.00    -0.061 C 
ATOM     16  H1  <0> d          -0.620   6.271   0.040  0.00  0.00     0.029 H 
ATOM     17  H2  <0> d           0.896   5.947   0.914  0.00  0.00     0.029 H 
ATOM     18  H3  <0> d           0.880   5.956  -0.866  0.00  0.00     0.029 H 
ENDBRANCH  12  15
ENDBRANCH  10  12
ENDBRANCH   1  10
TORSDOF 3
