REMARK  2 active torsions:
REMARK  status: ('A' for Active; 'I' for Inactive)
REMARK    1  A    between atoms: C1_1  and  N1_2 
REMARK    2  A    between atoms: C9_10  and  N2_11 
ROOT
ATOM      1  N1  <0> d           2.105   0.728  -0.014  0.00  0.00    -0.337 N 
ATOM      2  C2  <0> d           1.328   1.870  -0.001  0.00  0.00     0.045 A 
ATOM      3  C3  <0> d           1.627   3.227   0.004  0.00  0.00    -0.056 A 
ATOM      4  C4  <0> d           0.606   4.153   0.020  0.00  0.00    -0.081 A 
ATOM      5  C5  <0> d          -0.721   3.744   0.030  0.00  0.00    -0.082 A 
ATOM      6  C6  <0> d          -1.037   2.415   0.030  0.00  0.00    -0.071 A 
ATOM      7  C7  <0> d          -0.018   1.460   0.010  0.00  0.00    -0.006 A 
ATOM      8  C8  <0> d           0.002  -0.004   0.002  0.00  0.00    -0.029 A 
ATOM      9  C9  <0> d           1.300  -0.381  -0.012  0.00  0.00     0.101 A 
ATOM     10  H4  <0> d           2.656   3.555  -0.003  0.00  0.00     0.087 H 
ATOM     11  H5  <0> d           0.840   5.207   0.024  0.00  0.00     0.083 H 
ATOM     12  H6  <0> d          -1.509   4.483   0.042  0.00  0.00     0.083 H 
ATOM     13  H7  <0> d          -2.071   2.103   0.043  0.00  0.00     0.084 H 
ATOM     14  H8  <0> d          -0.857  -0.658   0.007  0.00  0.00     0.090 H 
ENDROOT
BRANCH   1  15
ATOM     15  C1  <0> d           3.570   0.706  -0.029  0.00  0.00    -0.012 C 
ATOM     16  H1  <0> d           3.923   0.706  -1.060  0.00  0.00     0.057 H 
ATOM     17  H2  <0> d           3.951   1.587   0.486  0.00  0.00     0.057 H 
ATOM     18  H3  <0> d           3.924  -0.192   0.477  0.00  0.00     0.057 H 
ENDBRANCH   1  15
BRANCH   9  19
ATOM     19  N2  <0> d           1.751  -1.696  -0.024  0.00  0.00    -0.385 N 
ATOM     20  H9  <0> d           1.114  -2.427  -0.022  0.00  0.00     0.157 HD
ATOM     21  H10 <0> d           2.703  -1.882  -0.035  0.00  0.00     0.157 HD
ENDBRANCH   9  19
TORSDOF 2
