REMARK  2 active torsions:
REMARK  status: ('A' for Active; 'I' for Inactive)
REMARK    1  A    between atoms: C3_3  and  C6_9 
REMARK    2  A    between atoms: C4_5  and  C5_7 
ROOT
ATOM      1  C1  <0> d          -2.063   1.621   0.029  0.00  0.00    -0.051 C 
ATOM      2  C2  <0> d          -0.939   1.683   1.080  0.00  0.00    -0.051 C 
ATOM      3  C3  <0> d          -0.013   1.086   0.008  0.00  0.00     0.043 C 
ATOM      4  H1  <0> d           0.002  -0.004   0.002  0.00  0.00     0.058 H 
ATOM      5  C4  <0> d          -0.959   1.695  -1.040  0.00  0.00     0.043 C 
ATOM      6  H2  <0> d          -0.696   2.713  -1.326  0.00  0.00     0.058 H 
ATOM      7  H3  <0> d          -2.719   2.491   0.039  0.00  0.00     0.034 H 
ATOM      8  H4  <0> d          -2.609   0.678   0.027  0.00  0.00     0.034 H 
ATOM      9  H5  <0> d          -1.101   1.025   1.934  0.00  0.00     0.034 H 
ATOM     10  H6  <0> d          -0.670   2.699   1.373  0.00  0.00     0.034 H 
ENDROOT
BRANCH   3  11
ATOM     11  C6  <0> d           1.368   1.690  -0.002  0.00  0.00     0.177 C 
ATOM     12  O2  <0> d           1.646   2.548  -0.805  0.00  0.00    -0.648 OA
ATOM     13  O4  <0> d           2.289   1.274   0.882  0.00  0.00    -0.648 OA
ENDBRANCH   3  11
BRANCH   5  14
ATOM     14  C5  <0> d          -1.204   0.798  -2.226  0.00  0.00     0.177 C 
ATOM     15  O1  <0> d          -0.673  -0.286  -2.283  0.00  0.00    -0.648 OA
ATOM     16  O3  <0> d          -2.011   1.203  -3.219  0.00  0.00    -0.648 OA
ENDBRANCH   5  14
TORSDOF 2
