REMARK  2 active torsions:
REMARK  status: ('A' for Active; 'I' for Inactive)
REMARK    1  A    between atoms: C1_1  and  O1_2 
REMARK    2  A    between atoms: O1_2  and  C2_3 
ROOT
ATOM      1  C2  <0> d           1.137  -0.683  -0.012  0.00  0.00     0.165 A 
ATOM      2  C3  <0> d           2.358  -0.022  -0.021  0.00  0.00    -0.011 A 
ATOM      3  C4  <0> d           2.373   1.363  -0.014  0.00  0.00     0.039 A 
ATOM      4  C5  <0> d           1.159   2.039   0.002  0.00  0.00    -0.045 A 
ATOM      5  C6  <0> d          -0.016   1.316   0.009  0.00  0.00     0.006 A 
ATOM      6  N1  <0> d           0.002  -0.004   0.002  0.00  0.00    -0.237 NA
ATOM      7 Cl1  <0> d           3.875   2.235  -0.023  0.00  0.00    -0.084 Cl
ATOM      8  H4  <0> d           3.283  -0.580  -0.033  0.00  0.00     0.092 H 
ATOM      9  H5  <0> d           1.135   3.119   0.008  0.00  0.00     0.088 H 
ATOM     10  H6  <0> d          -0.962   1.836   0.017  0.00  0.00     0.114 H 
ENDROOT
BRANCH   1  11
ATOM     11  O1  <0> d           1.108  -2.040  -0.019  0.00  0.00    -0.339 OA
BRANCH  11  12
ATOM     12  C1  <0> d          -0.179  -2.661  -0.011  0.00  0.00     0.012 C 
ATOM     13  H1  <0> d          -0.738  -2.352  -0.894  0.00  0.00     0.067 H 
ATOM     14  H2  <0> d          -0.059  -3.745  -0.018  0.00  0.00     0.067 H 
ATOM     15  H3  <0> d          -0.721  -2.361   0.886  0.00  0.00     0.067 H 
ENDBRANCH  11  12
ENDBRANCH   1  11
TORSDOF 2
