REMARK  1 active torsions:
REMARK  status: ('A' for Active; 'I' for Inactive)
REMARK    1  A    between atoms: C1_1  and  C2_2 
ROOT
ATOM      1  C2  <0> d          -0.718   1.572   1.248  0.00  0.00    -0.043 A 
ATOM      2  C3  <0> d          -2.083   1.791   1.233  0.00  0.00    -0.062 A 
ATOM      3  C4  <0> d          -2.689   2.236   2.410  0.00  0.00     0.012 A 
ATOM      4  C5  <0> d          -4.063   2.570   2.790  0.00  0.00    -0.054 A 
ATOM      5  C6  <0> d          -4.029   2.952   4.076  0.00  0.00    -0.020 A 
ATOM      6  N1  <0> d          -2.745   2.889   4.548  0.00  0.00    -0.350 N 
ATOM      7  H1  <0> d          -2.473   3.117   5.450  0.00  0.00     0.166 HD
ATOM      8  C7  <0> d          -1.900   2.455   3.555  0.00  0.00     0.137 A 
ATOM      9  N2  <0> d          -0.593   2.233   3.509  0.00  0.00    -0.242 NA
ATOM     10  C8  <0> d          -0.003   1.808   2.412  0.00  0.00     0.010 A 
ATOM     11  H5  <0> d          -2.664   1.619   0.339  0.00  0.00     0.085 H 
ATOM     12  H6  <0> d          -4.936   2.518   2.156  0.00  0.00     0.087 H 
ATOM     13  H7  <0> d          -4.888   3.262   4.653  0.00  0.00     0.111 H 
ATOM     14  H8  <0> d           1.064   1.640   2.418  0.00  0.00     0.115 H 
ENDROOT
BRANCH   1  15
ATOM     15  C1  <0> d          -0.013   1.086   0.008  0.00  0.00    -0.050 C 
ATOM     16  H2  <0> d           0.002  -0.004   0.002  0.00  0.00     0.033 H 
ATOM     17  H3  <0> d           1.010   1.463   0.000  0.00  0.00     0.033 H 
ATOM     18  H4  <0> d          -0.540   1.447  -0.875  0.00  0.00     0.033 H 
ENDBRANCH   1  15
TORSDOF 1
