REMARK  6 active torsions:
REMARK  status: ('A' for Active; 'I' for Inactive)
REMARK    1  A    between atoms: C1_1  and  C2_2 
REMARK    2  A    between atoms: C2_2  and  C3_3 
REMARK    3  A    between atoms: C3_3  and  C4_4 
REMARK    4  A    between atoms: C5_5  and  C6_6 
REMARK    5  A    between atoms: C7_7  and  C8_8 
REMARK    6  A    between atoms: C8_8  and  O1_9 
ROOT
ATOM      1  C4  <0> d          -3.596   1.620   0.028  0.00  0.00    -0.103 C 
ATOM      2  C5  <0> d          -2.436   0.972   0.019  0.00  0.00    -0.087 C 
ATOM      3  H8  <0> d          -3.610   2.700   0.034  0.00  0.00     0.076 H 
ATOM      4  H9  <0> d          -2.421  -0.108   0.013  0.00  0.00     0.083 H 
ENDROOT
BRANCH   1   5
ATOM      5  C3  <0> d          -4.890   0.849   0.030  0.00  0.00    -0.050 C 
ATOM      6  H6  <0> d          -5.429   1.041  -0.898  0.00  0.00     0.038 H 
ATOM      7  H7  <0> d          -4.678  -0.217   0.113  0.00  0.00     0.038 H 
BRANCH   5   8
ATOM      8  C2  <0> d          -5.746   1.293   1.218  0.00  0.00    -0.066 C 
ATOM      9  H4  <0> d          -5.208   1.100   2.146  0.00  0.00     0.032 H 
ATOM     10  H5  <0> d          -5.958   2.358   1.135  0.00  0.00     0.032 H 
BRANCH   8  11
ATOM     11  C1  <0> d          -7.061   0.510   1.220  0.00  0.00    -0.076 C 
ATOM     12  H1  <0> d          -7.600   0.702   0.292  0.00  0.00     0.027 H 
ATOM     13  H2  <0> d          -6.849  -0.556   1.303  0.00  0.00     0.027 H 
ATOM     14  H3  <0> d          -7.671   0.826   2.066  0.00  0.00     0.027 H 
ENDBRANCH   8  11
ENDBRANCH   5   8
ENDBRANCH   1   5
BRANCH   2  15
ATOM     15  C6  <0> d          -1.172   1.724   0.017  0.00  0.00    -0.085 C 
ATOM     16  C7  <0> d          -0.013   1.076   0.008  0.00  0.00    -0.081 C 
ATOM     17  H11 <0> d           0.002  -0.004   0.002  0.00  0.00     0.080 H 
ATOM     18  H10 <0> d          -1.187   2.804   0.023  0.00  0.00     0.083 H 
BRANCH  16  19
ATOM     19  C8  <0> d           1.282   1.847  -0.000  0.00  0.00     0.032 C 
ATOM     20  H12 <0> d           1.721   1.810  -0.997  0.00  0.00     0.080 H 
ATOM     21  H13 <0> d           1.089   2.884   0.273  0.00  0.00     0.080 H 
BRANCH  19  22
ATOM     22  O1  <0> d           2.188   1.267   0.941  0.00  0.00    -0.397 OA
ATOM     23  H14 <0> d           3.044   1.714   0.989  0.00  0.00     0.209 HD
ENDBRANCH  19  22
ENDBRANCH  16  19
ENDBRANCH   2  15
TORSDOF 6
