REMARK  2 active torsions:
REMARK  status: ('A' for Active; 'I' for Inactive)
REMARK    1  A    between atoms: C2_2  and  O1_9 
REMARK    2  A    between atoms: C4_5  and  N2_8 
ROOT
ATOM      1  C1  <0> d          -2.451   3.702   0.035  0.00  0.00    -0.025 A 
ATOM      2  C2  <0> d          -3.621   2.947   0.036  0.00  0.00     0.085 A 
ATOM      3  C3  <0> d          -3.534   1.565   0.028  0.00  0.00     0.036 A 
ATOM      4  N1  <0> d          -2.360   0.962   0.018  0.00  0.00    -0.239 NA
ATOM      5  C4  <0> d          -1.227   1.646   0.017  0.00  0.00     0.142 A 
ATOM      6  C5  <0> d          -1.237   3.038   0.030  0.00  0.00     0.082 A 
ATOM      7 Cl1  <0> d           0.253   3.928   0.035  0.00  0.00    -0.080 Cl
ATOM      8  H1  <0> d          -2.490   4.782   0.041  0.00  0.00     0.090 H 
ATOM      9  H2  <0> d          -4.437   0.974   0.029  0.00  0.00     0.119 H 
ENDROOT
BRANCH   5  10
ATOM     10  N2  <0> d          -0.011   0.966   0.007  0.00  0.00    -0.383 N 
ATOM     11  H3  <0> d           0.934   1.529   0.006  0.00  0.00     0.157 HD
ATOM     12  H4  <0> d           0.004  -0.134   0.001  0.00  0.00     0.157 HD
ENDBRANCH   5  10
BRANCH   2  13
ATOM     13  O1  <0> d          -4.835   3.559   0.045  0.00  0.00    -0.359 OA
ATOM     14  H5  <0> d          -5.756   2.957   0.046  0.00  0.00     0.217 HD
ENDBRANCH   2  13
TORSDOF 2
