REMARK  2 active torsions:
REMARK  status: ('A' for Active; 'I' for Inactive)
REMARK    1  A    between atoms: C1_1  and  C2_2 
REMARK    2  A    between atoms: C5_9  and  N3_11 
ROOT
ATOM      1  C2  <0> d           0.002  -0.004   0.002  0.00  0.00     0.114 C 
ATOM      2  H1  <0> d          -1.019  -0.385   0.010  0.00  0.00     0.089 H 
ATOM      3  C3  <0> d           0.723  -0.498  -1.236  0.00  0.00     0.242 C 
ATOM      4  O1  <0> d           0.123  -0.873  -2.216  0.00  0.00    -0.285 OA
ATOM      5  C4  <0> d           2.223  -0.497  -1.179  0.00  0.00     0.307 C 
ATOM      6  O2  <0> d           2.899  -0.408  -2.183  0.00  0.00    -0.264 OA
ATOM      7  N1  <0> d           2.784  -0.599   0.049  0.00  0.00    -0.152 N 
ATOM      8  C5  <0> d           1.989  -0.749   1.160  0.00  0.00     0.697 C 
ATOM      9  N2  <0> d           0.721  -0.495   1.180  0.00  0.00    -0.095 NA
ATOM     10  H7  <0> d           3.749  -0.566   0.145  0.00  0.00     0.188 HD
ENDROOT
BRANCH   1  11
ATOM     11  C1  <0> d          -0.019   1.526   0.010  0.00  0.00    -0.048 C 
ATOM     12  H2  <0> d           1.004   1.903   0.003  0.00  0.00     0.030 H 
ATOM     13  H3  <0> d          -0.546   1.887  -0.873  0.00  0.00     0.030 H 
ATOM     14  H4  <0> d          -0.529   1.877   0.907  0.00  0.00     0.030 H 
ENDBRANCH   1  11
BRANCH   8  15
ATOM     15  N3  <0> d           2.576  -1.197   2.320  0.00  0.00    -0.233 N 
ATOM     16  H5  <0> d           3.526  -1.397   2.337  0.00  0.00     0.174 HD
ATOM     17  H6  <0> d           2.042  -1.314   3.120  0.00  0.00     0.174 HD
ENDBRANCH   8  15
TORSDOF 2
