REMARK  1 active torsions:
REMARK  status: ('A' for Active; 'I' for Inactive)
REMARK    1  A    between atoms: C1_1  and  C2_2 
ROOT
ATOM      1  C2  <0> d           1.133  -0.684  -0.013  0.00  0.00     0.033 A 
ATOM      2  C3  <0> d           2.350  -0.031  -0.021  0.00  0.00    -0.022 A 
ATOM      3  C4  <0> d           2.372   1.358  -0.014  0.00  0.00     0.119 A 
ATOM      4  C5  <0> d           1.161   2.038   0.002  0.00  0.00    -0.029 A 
ATOM      5  C6  <0> d          -0.016   1.315   0.009  0.00  0.00     0.005 A 
ATOM      6  N1  <0> d           0.002  -0.004   0.002  0.00  0.00    -0.266 NA
ATOM      7  F1  <0> d           3.544   2.031  -0.021  0.00  0.00    -0.206 F 
ATOM      8  H4  <0> d           3.272  -0.593  -0.033  0.00  0.00     0.091 H 
ATOM      9  H5  <0> d           1.139   3.118   0.008  0.00  0.00     0.090 H 
ATOM     10  H6  <0> d          -0.962   1.836   0.017  0.00  0.00     0.114 H 
ENDROOT
BRANCH   1  11
ATOM     11  C1  <0> d           1.095  -2.190  -0.020  0.00  0.00    -0.035 C 
ATOM     12  H1  <0> d           1.077  -2.548  -1.050  0.00  0.00     0.035 H 
ATOM     13  H2  <0> d           1.981  -2.578   0.483  0.00  0.00     0.035 H 
ATOM     14  H3  <0> d           0.202  -2.534   0.500  0.00  0.00     0.035 H 
ENDBRANCH   1  11
TORSDOF 1
