REMARK  3 active torsions:
REMARK  status: ('A' for Active; 'I' for Inactive)
REMARK    1  A    between atoms: C1_1  and  C2_2 
REMARK    2  A    between atoms: C6_6  and  O1_8 
REMARK    3  A    between atoms: O1_8  and  C7_9 
ROOT
ATOM      1  C2  <0> d           3.486   1.920  -0.021  0.00  0.00     0.033 A 
ATOM      2  C3  <0> d           3.607   3.296  -0.016  0.00  0.00    -0.059 A 
ATOM      3  C4  <0> d           2.460   4.078  -0.001  0.00  0.00    -0.077 A 
ATOM      4  C5  <0> d           1.229   3.445   0.003  0.00  0.00    -0.032 A 
ATOM      5  C6  <0> d           1.183   2.057   0.002  0.00  0.00     0.164 A 
ATOM      6  N1  <0> d           2.298   1.346  -0.013  0.00  0.00    -0.230 NA
ATOM      7  H4  <0> d           4.583   3.758  -0.023  0.00  0.00     0.086 H 
ATOM      8  H5  <0> d           2.527   5.156   0.004  0.00  0.00     0.083 H 
ATOM      9  H6  <0> d           0.317   4.023   0.011  0.00  0.00     0.090 H 
ENDROOT
BRANCH   5  10
ATOM     10  O1  <0> d          -0.017   1.425   0.010  0.00  0.00    -0.339 OA
BRANCH  10  11
ATOM     11  C7  <0> d           0.002  -0.004   0.002  0.00  0.00     0.012 C 
ATOM     12  H7  <0> d          -1.020  -0.381   0.010  0.00  0.00     0.067 H 
ATOM     13  H8  <0> d           0.512  -0.356  -0.895  0.00  0.00     0.067 H 
ATOM     14  H9  <0> d           0.529  -0.365   0.885  0.00  0.00     0.067 H 
ENDBRANCH  10  11
ENDBRANCH   5  10
BRANCH   1  15
ATOM     15  C1  <0> d           4.726   1.065  -0.038  0.00  0.00    -0.035 C 
ATOM     16  H1  <0> d           5.015   0.864  -1.070  0.00  0.00     0.035 H 
ATOM     17  H2  <0> d           5.536   1.588   0.470  0.00  0.00     0.035 H 
ATOM     18  H3  <0> d           4.525   0.123   0.472  0.00  0.00     0.035 H 
ENDBRANCH   1  15
TORSDOF 3
