REMARK  4 active torsions:
REMARK  status: ('A' for Active; 'I' for Inactive)
REMARK    1  A    between atoms: C1_1  and  C2_2 
REMARK    2  A    between atoms: C2_2  and  C3_3 
REMARK    3  A    between atoms: C3_3  and  C4_4 
REMARK    4  A    between atoms: C4_4  and  C6_8 
REMARK       I    between atoms: C6_8  and  N2_10 
ROOT
ATOM      1  C4  <0> d          -2.482   0.853   0.018  0.00  0.00     0.107 C 
ATOM      2  H1  <0> d          -2.535   0.230  -0.875  0.00  0.00     0.077 H 
ATOM      3  C5  <0> d          -2.543  -0.001   1.216  0.00  0.00     0.073 C 
ATOM      4  N1  <0> d          -2.590  -0.660   2.140  0.00  0.00    -0.196 NA
ENDROOT
BRANCH   1   5
ATOM      5  C3  <0> d          -3.658   1.831   0.029  0.00  0.00    -0.042 C 
ATOM      6  H7  <0> d          -3.655   2.392   0.964  0.00  0.00     0.035 H 
ATOM      7  H8  <0> d          -3.565   2.521  -0.809  0.00  0.00     0.035 H 
BRANCH   5   8
ATOM      8  C2  <0> d          -4.970   1.053  -0.094  0.00  0.00    -0.067 C 
ATOM      9  H5  <0> d          -4.973   0.492  -1.029  0.00  0.00     0.032 H 
ATOM     10  H6  <0> d          -5.064   0.363   0.744  0.00  0.00     0.032 H 
BRANCH   8  11
ATOM     11  C1  <0> d          -6.146   2.031  -0.084  0.00  0.00    -0.076 C 
ATOM     12  H2  <0> d          -7.081   1.477  -0.172  0.00  0.00     0.027 H 
ATOM     13  H3  <0> d          -6.143   2.592   0.851  0.00  0.00     0.027 H 
ATOM     14  H4  <0> d          -6.053   2.721  -0.922  0.00  0.00     0.027 H 
ENDBRANCH   8  11
ENDBRANCH   5   8
ENDBRANCH   1   5
BRANCH   1  15
ATOM     15  C6  <0> d          -1.187   1.624   0.017  0.00  0.00     0.233 C 
ATOM     16  O1  <0> d          -1.204   2.837   0.023  0.00  0.00    -0.272 OA
ATOM     17  N2  <0> d          -0.011   0.966   0.007  0.00  0.00    -0.369 N 
ATOM     18  H9  <0> d           0.002  -0.004   0.002  0.00  0.00     0.159 HD
ATOM     19  H10 <0> d           0.822   1.462   0.002  0.00  0.00     0.159 HD
ENDBRANCH   1  15
TORSDOF 4
