REMARK  2 active torsions:
REMARK  status: ('A' for Active; 'I' for Inactive)
REMARK    1  A    between atoms: C1_1  and  N1_2 
REMARK    2  A    between atoms: N2_6  and  C6_9 
ROOT
ATOM      1  N1  <0> d          -2.160   1.173  -1.151  0.00  0.00    -0.338 N 
ATOM      2  C2  <0> d          -0.761   1.597  -1.228  0.00  0.00     0.000 C 
ATOM      3  C3  <0> d          -0.013   1.086   0.008  0.00  0.00    -0.035 C 
ATOM      4  C4  <0> d          -0.738   1.584   1.263  0.00  0.00     0.000 C 
ATOM      5  N2  <0> d          -2.142   1.160   1.202  0.00  0.00    -0.338 N 
ATOM      6  C5  <0> d          -2.769   0.985   0.029  0.00  0.00     0.319 C 
ATOM      7  O1  <0> d          -3.935   0.642   0.037  0.00  0.00    -0.247 OA
ATOM      8  H4  <0> d          -0.712   2.686  -1.259  0.00  0.00     0.064 H 
ATOM      9  H5  <0> d          -0.304   1.185  -2.127  0.00  0.00     0.064 H 
ATOM     10  H6  <0> d           0.002  -0.004   0.002  0.00  0.00     0.037 H 
ATOM     11  H7  <0> d           1.009   1.466   0.000  0.00  0.00     0.037 H 
ATOM     12  H8  <0> d          -0.263   1.162   2.149  0.00  0.00     0.064 H 
ATOM     13  H9  <0> d          -0.687   2.672   1.305  0.00  0.00     0.064 H 
ENDROOT
BRANCH   1  14
ATOM     14  C1  <0> d          -2.911   0.949  -2.389  0.00  0.00    -0.015 C 
ATOM     15  H1  <0> d          -2.799  -0.090  -2.699  0.00  0.00     0.056 H 
ATOM     16  H2  <0> d          -3.965   1.166  -2.219  0.00  0.00     0.056 H 
ATOM     17  H3  <0> d          -2.526   1.605  -3.171  0.00  0.00     0.056 H 
ENDBRANCH   1  14
BRANCH   5  18
ATOM     18  C6  <0> d          -2.873   0.923   2.449  0.00  0.00    -0.015 C 
ATOM     19  H10 <0> d          -3.893   0.617   2.220  0.00  0.00     0.056 H 
ATOM     20  H11 <0> d          -2.376   0.137   3.017  0.00  0.00     0.056 H 
ATOM     21  H12 <0> d          -2.892   1.840   3.038  0.00  0.00     0.056 H 
ENDBRANCH   5  18
TORSDOF 2
