REMARK  1 active torsions:
REMARK  status: ('A' for Active; 'I' for Inactive)
REMARK    1  A    between atoms: C1_1  and  N1_2 
ROOT
ATOM      1  N1  <0> d           2.392   0.008  -0.021  0.00  0.00    -0.328 N 
ATOM      2  C2  <0> d           2.398   1.355  -0.014  0.00  0.00     0.002 A 
ATOM      3  C3  <0> d           1.212   2.059   0.002  0.00  0.00     0.060 A 
ATOM      4  C4  <0> d          -0.016   1.356   0.009  0.00  0.00    -0.056 A 
ATOM      5  C5  <0> d           0.002  -0.004   0.002  0.00  0.00    -0.016 A 
ATOM      6  C6  <0> d           1.236  -0.681  -0.013  0.00  0.00     0.246 A 
ATOM      7  O1  <0> d           1.258  -1.900  -0.020  0.00  0.00    -0.268 OA
ATOM      8  C7  <0> d           1.224   3.491   0.009  0.00  0.00     0.101 C 
ATOM      9  N2  <0> d           1.233   4.627   0.014  0.00  0.00    -0.191 NA
ATOM     10  H4  <0> d           3.338   1.887  -0.021  0.00  0.00     0.114 H 
ATOM     11  H5  <0> d          -0.954   1.891   0.017  0.00  0.00     0.086 H 
ATOM     12  H6  <0> d          -0.923  -0.561   0.007  0.00  0.00     0.092 H 
ENDROOT
BRANCH   1  13
ATOM     13  C1  <0> d           3.664  -0.720  -0.038  0.00  0.00    -0.011 C 
ATOM     14  H1  <0> d           3.469  -1.792  -0.042  0.00  0.00     0.057 H 
ATOM     15  H2  <0> d           4.225  -0.449  -0.932  0.00  0.00     0.057 H 
ATOM     16  H3  <0> d           4.243  -0.459   0.848  0.00  0.00     0.057 H 
ENDBRANCH   1  13
TORSDOF 1
