REMARK  4 active torsions:
REMARK  status: ('A' for Active; 'I' for Inactive)
REMARK    1  A    between atoms: C1_1  and  C2_2 
REMARK    2  A    between atoms: C2_2  and  S1_3 
REMARK    3  A    between atoms: S1_3  and  C3_4 
REMARK    4  A    between atoms: N3_10  and  C5_11 
ROOT
ATOM      1  C3  <0> d           2.086   0.666  -0.014  0.00  0.00     0.191 A 
ATOM      2  N1  <0> d           1.345  -0.405  -0.013  0.00  0.00    -0.145 NA
ATOM      3  N2  <0> d           0.002  -0.004   0.002  0.00  0.00    -0.226 N 
ATOM      4  H1  <0> d          -0.772  -0.589   0.007  0.00  0.00     0.194 HD
ATOM      5  C4  <0> d          -0.016   1.345   0.009  0.00  0.00     0.344 A 
ATOM      6  O1  <0> d          -1.009   2.051   0.018  0.00  0.00    -0.245 OA
ATOM      7  N3  <0> d           1.263   1.769  -0.001  0.00  0.00    -0.280 N 
ENDROOT
BRANCH   1   8
ATOM      8  S1  <0> d           3.847   0.697  -0.030  0.00  0.00    -0.090 SA
BRANCH   8   9
ATOM      9  C2  <0> d           4.193  -1.080  -0.042  0.00  0.00    -0.019 C 
ATOM     10  H5  <0> d           3.766  -1.539   0.849  0.00  0.00     0.049 H 
ATOM     11  H6  <0> d           3.750  -1.530  -0.931  0.00  0.00     0.049 H 
BRANCH   9  12
ATOM     12  C1  <0> d           5.706  -1.305  -0.057  0.00  0.00    -0.068 C 
ATOM     13  H2  <0> d           5.914  -2.375  -0.065  0.00  0.00     0.028 H 
ATOM     14  H3  <0> d           6.133  -0.845  -0.948  0.00  0.00     0.028 H 
ATOM     15  H4  <0> d           6.149  -0.855   0.832  0.00  0.00     0.028 H 
ENDBRANCH   9  12
ENDBRANCH   8   9
ENDBRANCH   1   8
BRANCH   7  16
ATOM     16  C5  <0> d           1.703   3.167   0.002  0.00  0.00    -0.007 C 
ATOM     17  H7  <0> d           0.832   3.822   0.014  0.00  0.00     0.057 H 
ATOM     18  H8  <0> d           2.311   3.355   0.887  0.00  0.00     0.057 H 
ATOM     19  H9  <0> d           2.294   3.363  -0.893  0.00  0.00     0.057 H 
ENDBRANCH   7  16
TORSDOF 4
