REMARK  3 active torsions:
REMARK  status: ('A' for Active; 'I' for Inactive)
REMARK    1  A    between atoms: C3_4  and  C5_8 
REMARK    2  A    between atoms: C5_8  and  C6_9 
REMARK    3  A    between atoms: C6_9  and  C7_10 
ROOT
ATOM      1  C1  <0> d           3.707   7.464  -1.211  0.00  0.00     0.039 C 
ATOM      2  C2  <0> d           2.249   7.009  -1.317  0.00  0.00     0.040 C 
ATOM      3  O1  <0> d           2.193   5.583  -1.211  0.00  0.00    -0.382 OA
ATOM      4  C3  <0> d           2.755   5.077   0.003  0.00  0.00     0.059 C 
ATOM      5  H1  <0> d           2.191   5.459   0.853  0.00  0.00     0.086 H 
ATOM      6  C4  <0> d           4.214   5.532   0.109  0.00  0.00     0.043 C 
ATOM      7  O2  <0> d           4.269   6.958   0.003  0.00  0.00    -0.387 OA
ATOM      8  H2  <0> d           4.271   7.081  -2.061  0.00  0.00     0.077 H 
ATOM      9  H3  <0> d           3.749   8.553  -1.207  0.00  0.00     0.077 H 
ATOM     10  H4  <0> d           1.839   7.319  -2.278  0.00  0.00     0.077 H 
ATOM     11  H5  <0> d           1.668   7.457  -0.511  0.00  0.00     0.077 H 
ATOM     12  H6  <0> d           4.623   5.222   1.071  0.00  0.00     0.078 H 
ATOM     13  H7  <0> d           4.795   5.084  -0.697  0.00  0.00     0.078 H 
ENDROOT
BRANCH   4  14
ATOM     14  C5  <0> d           2.696   3.548  -0.005  0.00  0.00    -0.030 C 
ATOM     15  H8  <0> d           3.204   3.160   0.878  0.00  0.00     0.037 H 
ATOM     16  H9  <0> d           3.187   3.170  -0.901  0.00  0.00     0.037 H 
BRANCH  14  17
ATOM     17  C6  <0> d           1.235   3.094   0.007  0.00  0.00     0.018 C 
ATOM     18  H10 <0> d           0.727   3.482  -0.876  0.00  0.00     0.049 H 
ATOM     19  H11 <0> d           0.744   3.473   0.904  0.00  0.00     0.049 H 
BRANCH  17  20
ATOM     20  C7  <0> d           1.177   1.588  -0.001  0.00  0.00     0.172 C 
ATOM     21  O3  <0> d           2.199   0.944  -0.014  0.00  0.00    -0.648 OA
ATOM     22  O4  <0> d          -0.011   0.963   0.007  0.00  0.00    -0.648 OA
ENDBRANCH  17  20
ENDBRANCH  14  17
ENDBRANCH   4  14
TORSDOF 3
