REMARK  2 active torsions:
REMARK  status: ('A' for Active; 'I' for Inactive)
REMARK    1  A    between atoms: C1_1  and  C2_2 
REMARK    2  A    between atoms: C3_3  and  N3_9 
ROOT
ATOM      1  C2  <0> d          -1.223   2.416   0.021  0.00  0.00     0.024 A 
ATOM      2  C3  <0> d          -1.191   3.811   0.034  0.00  0.00     0.131 A 
ATOM      3  N1  <0> d          -0.013   4.428   0.026  0.00  0.00    -0.224 NA
ATOM      4  C4  <0> d           1.109   3.737   0.012  0.00  0.00     0.090 A 
ATOM      5  N2  <0> d           1.113   2.419   0.004  0.00  0.00    -0.229 NA
ATOM      6  C5  <0> d          -0.021   1.732   0.012  0.00  0.00     0.137 A 
ATOM      7 Cl1  <0> d           0.002  -0.004   0.002  0.00  0.00    -0.062 Cl
ATOM      8  H4  <0> d           2.051   4.265   0.005  0.00  0.00     0.146 H 
ENDROOT
BRANCH   1   9
ATOM      9  C1  <0> d          -2.535   1.673   0.023  0.00  0.00    -0.045 C 
ATOM     10  H1  <0> d          -2.846   1.488   1.051  0.00  0.00     0.033 H 
ATOM     11  H2  <0> d          -3.292   2.271  -0.484  0.00  0.00     0.033 H 
ATOM     12  H3  <0> d          -2.415   0.722  -0.497  0.00  0.00     0.033 H 
ENDBRANCH   1   9
BRANCH   2  13
ATOM     13  N3  <0> d          -2.368   4.542   0.050  0.00  0.00    -0.383 N 
ATOM     14  H5  <0> d          -2.337   5.511   0.055  0.00  0.00     0.157 HD
ATOM     15  H6  <0> d          -3.223   4.084   0.056  0.00  0.00     0.157 HD
ENDBRANCH   2  13
TORSDOF 2
