REMARK  2 active torsions:
REMARK  status: ('A' for Active; 'I' for Inactive)
REMARK    1  A    between atoms: C2_2  and  C3_3 
REMARK    2  A    between atoms: C8_8  and  N1_9 
ROOT
ATOM      1  C1  <0> d           0.018  -1.178  -0.004  0.00  0.00    -0.149 C 
ATOM      2  C2  <0> d           0.002  -0.004   0.002  0.00  0.00    -0.075 C 
ATOM      3  H1  <0> d           0.032  -2.228  -0.010  0.00  0.00     0.166 H 
ENDROOT
BRANCH   2   4
ATOM      4  C3  <0> d          -0.017   1.428   0.010  0.00  0.00     0.043 A 
ATOM      5  C8  <0> d           1.185   2.149   0.002  0.00  0.00     0.044 A 
ATOM      6  C7  <0> d           1.154   3.536   0.010  0.00  0.00    -0.056 A 
ATOM      7  C6  <0> d          -0.056   4.202   0.025  0.00  0.00    -0.081 A 
ATOM      8  H5  <0> d           2.078   4.096   0.004  0.00  0.00     0.086 H 
ATOM      9  C5  <0> d          -1.245   3.492   0.032  0.00  0.00    -0.081 A 
ATOM     10  H4  <0> d          -0.075   5.281   0.031  0.00  0.00     0.083 H 
ATOM     11  C4  <0> d          -1.232   2.113   0.019  0.00  0.00    -0.063 A 
ATOM     12  H3  <0> d          -2.187   4.021   0.043  0.00  0.00     0.083 H 
ATOM     13  H2  <0> d          -2.163   1.563   0.020  0.00  0.00     0.085 H 
BRANCH   5  14
ATOM     14  N1  <0> d           2.405   1.475  -0.013  0.00  0.00    -0.398 N 
ATOM     15  H6  <0> d           2.424   0.506  -0.019  0.00  0.00     0.156 HD
ATOM     16  H7  <0> d           3.236   1.977  -0.019  0.00  0.00     0.156 HD
ENDBRANCH   5  14
ENDBRANCH   2   4
TORSDOF 2
