REMARK  0 active torsions:
REMARK  status: ('A' for Active; 'I' for Inactive)
ROOT
ATOM      1  C1  <0> d           1.169   2.083   0.002  0.00  0.00    -0.062 A 
ATOM      2  C2  <0> d          -0.017   1.373   0.010  0.00  0.00    -0.072 A 
ATOM      3  C3  <0> d           0.002  -0.004   0.002  0.00  0.00    -0.018 A 
ATOM      4  C4  <0> d           1.216  -0.699  -0.013  0.00  0.00     0.049 A 
ATOM      5  C5  <0> d           2.415   0.012  -0.021  0.00  0.00    -0.046 A 
ATOM      6  C6  <0> d           2.391   1.405  -0.014  0.00  0.00     0.045 A 
ATOM      7  C7  <0> d           3.618   2.143  -0.022  0.00  0.00     0.099 C 
ATOM      8  N1  <0> d           4.592   2.728  -0.029  0.00  0.00    -0.191 NA
ATOM      9  C8  <0> d           0.916  -2.143  -0.018  0.00  0.00     0.294 A 
ATOM     10  O1  <0> d           1.750  -3.026  -0.031  0.00  0.00    -0.259 OA
ATOM     11  O2  <0> d          -0.412  -2.340  -0.006  0.00  0.00    -0.313 OA
ATOM     12  C9  <0> d          -1.084  -1.051   0.007  0.00  0.00     0.054 A 
ATOM     13  H1  <0> d           1.151   3.163   0.008  0.00  0.00     0.085 H 
ATOM     14  H2  <0> d          -0.960   1.899   0.017  0.00  0.00     0.084 H 
ATOM     15  H3  <0> d           3.358  -0.515  -0.033  0.00  0.00     0.087 H 
ATOM     16  H4  <0> d          -1.699  -0.937   0.912  0.00  0.00     0.082 H 
ATOM     17  H5  <0> d          -1.716  -0.928  -0.884  0.00  0.00     0.082 H 
ENDROOT
TORSDOF 0
