REMARK  5 active torsions:
REMARK  status: ('A' for Active; 'I' for Inactive)
REMARK    1  A    between atoms: C2_2  and  C3_3 
REMARK    2  A    between atoms: C3_3  and  C4_4 
REMARK    3  A    between atoms: C4_4  and  C5_5 
REMARK    4  A    between atoms: C5_5  and  C6_6 
REMARK    5  A    between atoms: C6_6  and  O1_7 
ROOT
ATOM      1  C1  <0> d           0.018  -1.178  -0.004  0.00  0.00    -0.154 C 
ATOM      2  C2  <0> d           0.002  -0.004   0.002  0.00  0.00    -0.117 C 
ATOM      3  H1  <0> d           0.032  -2.228  -0.010  0.00  0.00     0.166 H 
ENDROOT
BRANCH   2   4
ATOM      4  C3  <0> d          -0.018   1.468   0.010  0.00  0.00    -0.010 C 
ATOM      5  H2  <0> d           1.005   1.845   0.002  0.00  0.00     0.051 H 
ATOM      6  H3  <0> d          -0.545   1.829  -0.873  0.00  0.00     0.051 H 
BRANCH   4   7
ATOM      7  C4  <0> d          -0.734   1.961   1.269  0.00  0.00    -0.054 C 
ATOM      8  H4  <0> d          -1.757   1.584   1.277  0.00  0.00     0.034 H 
ATOM      9  H5  <0> d          -0.207   1.600   2.152  0.00  0.00     0.034 H 
BRANCH   7  10
ATOM     10  C5  <0> d          -0.755   3.491   1.277  0.00  0.00    -0.045 C 
ATOM     11  H6  <0> d           0.268   3.868   1.270  0.00  0.00     0.036 H 
ATOM     12  H7  <0> d          -1.282   3.852   0.394  0.00  0.00     0.036 H 
BRANCH  10  13
ATOM     13  C6  <0> d          -1.471   3.984   2.536  0.00  0.00     0.017 C 
ATOM     14  H8  <0> d          -2.494   3.607   2.544  0.00  0.00     0.073 H 
ATOM     15  H9  <0> d          -0.944   3.623   3.419  0.00  0.00     0.073 H 
BRANCH  13  16
ATOM     16  O1  <0> d          -1.490   5.413   2.544  0.00  0.00    -0.401 OA
ATOM     17  H10 <0> d          -1.930   5.796   3.315  0.00  0.00     0.209 HD
ENDBRANCH  13  16
ENDBRANCH  10  13
ENDBRANCH   7  10
ENDBRANCH   4   7
ENDBRANCH   2   4
TORSDOF 5
