REMARK  2 active torsions:
REMARK  status: ('A' for Active; 'I' for Inactive)
REMARK    1  A    between atoms: C1_1  and  C2_2 
REMARK    2  A    between atoms: N1_5  and  C5_7 
ROOT
ATOM      1  C5  <0> d          -0.018   1.468   0.010  0.00  0.00     0.094 C 
ATOM      2  C6  <0> d           0.002  -0.004   0.002  0.00  0.00     0.081 C 
ATOM      3  N3  <0> d           0.018  -1.140  -0.004  0.00  0.00    -0.195 NA
ATOM      4  H5  <0> d           1.005   1.845   0.002  0.00  0.00     0.089 H 
ATOM      5  H6  <0> d          -0.545   1.829  -0.873  0.00  0.00     0.089 H 
ENDROOT
BRANCH   1   6
ATOM      6  N1  <0> d          -0.704   1.940   1.215  0.00  0.00    -0.266 N 
ATOM      7  C4  <0> d          -0.202   2.797   2.131  0.00  0.00     0.022 A 
ATOM      8  C3  <0> d          -1.144   2.978   3.086  0.00  0.00     0.077 A 
ATOM      9  H4  <0> d           0.775   3.256   2.105  0.00  0.00     0.117 H 
ATOM     10  C2  <0> d          -2.258   2.205   2.743  0.00  0.00     0.074 A 
ATOM     11 Cl1  <0> d          -0.995   3.990   4.489  0.00  0.00    -0.081 Cl
ATOM     12  N2  <0> d          -1.998   1.587   1.619  0.00  0.00    -0.175 NA
BRANCH  10  13
ATOM     13  C1  <0> d          -3.541   2.106   3.529  0.00  0.00    -0.032 C 
ATOM     14  H1  <0> d          -4.236   2.873   3.188  0.00  0.00     0.035 H 
ATOM     15  H2  <0> d          -3.984   1.122   3.378  0.00  0.00     0.035 H 
ATOM     16  H3  <0> d          -3.330   2.252   4.588  0.00  0.00     0.035 H 
ENDBRANCH  10  13
ENDBRANCH   1   6
TORSDOF 2
