REMARK  2 active torsions:
REMARK  status: ('A' for Active; 'I' for Inactive)
REMARK    1  A    between atoms: C6_6  and  O1_12 
REMARK    2  A    between atoms: C9_9  and  N1_11 
ROOT
ATOM      1  C1  <0> d           2.398   0.029  -0.020  0.00  0.00    -0.080 A 
ATOM      2  C2  <0> d           1.235  -0.679  -0.013  0.00  0.00    -0.072 A 
ATOM      3  C3  <0> d           0.002  -0.004   0.002  0.00  0.00    -0.024 A 
ATOM      4  C4  <0> d          -1.214  -0.711   0.010  0.00  0.00    -0.070 A 
ATOM      5  C5  <0> d          -2.390  -0.029   0.025  0.00  0.00    -0.050 A 
ATOM      6  C6  <0> d          -2.411   1.369   0.032  0.00  0.00     0.066 A 
ATOM      7  C7  <0> d          -1.248   2.086   0.031  0.00  0.00    -0.038 A 
ATOM      8  C8  <0> d          -0.017   1.413   0.010  0.00  0.00     0.003 A 
ATOM      9  C9  <0> d           1.204   2.120   0.002  0.00  0.00     0.037 A 
ATOM     10  C10 <0> d           2.392   1.421  -0.012  0.00  0.00    -0.057 A 
ATOM     11  H1  <0> d           3.340  -0.498  -0.032  0.00  0.00     0.083 H 
ATOM     12  H2  <0> d           1.260  -1.758  -0.019  0.00  0.00     0.084 H 
ATOM     13  H3  <0> d          -1.213  -1.791   0.004  0.00  0.00     0.085 H 
ATOM     14  H4  <0> d          -3.322  -0.575   0.031  0.00  0.00     0.087 H 
ATOM     15  H5  <0> d          -1.276   3.166   0.037  0.00  0.00     0.089 H 
ATOM     16  H6  <0> d           3.328   1.959  -0.018  0.00  0.00     0.086 H 
ENDROOT
BRANCH   9  17
ATOM     17  N1  <0> d           1.209   3.514   0.009  0.00  0.00    -0.398 N 
ATOM     18  H7  <0> d           0.370   4.002   0.019  0.00  0.00     0.156 HD
ATOM     19  H8  <0> d           2.050   3.997   0.004  0.00  0.00     0.156 HD
ENDBRANCH   9  17
BRANCH   6  20
ATOM     20  O1  <0> d          -3.602   2.022   0.047  0.00  0.00    -0.361 OA
ATOM     21  H9  <0> d          -3.938   2.207   0.935  0.00  0.00     0.217 HD
ENDBRANCH   6  20
TORSDOF 2
