REMARK  3 active torsions:
REMARK  status: ('A' for Active; 'I' for Inactive)
REMARK    1  A    between atoms: C1_1  and  O1_2 
REMARK    2  A    between atoms: O1_2  and  C2_3 
REMARK    3  A    between atoms: C6_7  and  C8_9 
ROOT
ATOM      1  C8  <0> d          -0.810   1.641   6.006  0.00  0.00    -0.078 C 
ATOM      2  C9  <0> d          -1.313   1.987   7.009  0.00  0.00    -0.149 C 
ATOM      3  H8  <0> d          -1.763   2.297   7.906  0.00  0.00     0.166 H 
ENDROOT
BRANCH   1   4
ATOM      4  C6  <0> d          -0.197   1.218   4.784  0.00  0.00     0.019 A 
ATOM      5  C5  <0> d           0.953   0.429   4.813  0.00  0.00    -0.065 A 
ATOM      6  C4  <0> d           1.542   0.023   3.633  0.00  0.00    -0.079 A 
ATOM      7  H6  <0> d           1.382   0.135   5.760  0.00  0.00     0.085 H 
ATOM      8  C3  <0> d           0.995   0.396   2.419  0.00  0.00    -0.051 A 
ATOM      9  H5  <0> d           2.432  -0.588   3.657  0.00  0.00     0.083 H 
ATOM     10  C2  <0> d          -0.149   1.182   2.380  0.00  0.00     0.069 A 
ATOM     11  H4  <0> d           1.460   0.075   1.498  0.00  0.00     0.087 H 
ATOM     12  C7  <0> d          -0.744   1.599   3.558  0.00  0.00    -0.033 A 
ATOM     13  H7  <0> d          -1.631   2.214   3.529  0.00  0.00     0.090 H 
BRANCH  10  14
ATOM     14  O1  <0> d          -0.682   1.547   1.184  0.00  0.00    -0.356 OA
BRANCH  14  15
ATOM     15  C1  <0> d          -0.013   1.086   0.008  0.00  0.00     0.010 C 
ATOM     16  H1  <0> d           0.002  -0.004   0.002  0.00  0.00     0.066 H 
ATOM     17  H2  <0> d           1.010   1.463   0.000  0.00  0.00     0.066 H 
ATOM     18  H3  <0> d          -0.540   1.447  -0.875  0.00  0.00     0.066 H 
ENDBRANCH  14  15
ENDBRANCH  10  14
ENDBRANCH   1   4
TORSDOF 3
