REMARK  1 active torsions:
REMARK  status: ('A' for Active; 'I' for Inactive)
REMARK    1  A    between atoms: C7_7  and  N2_11 
ROOT
ATOM      1  C1  <0> d          -0.017   1.386   0.010  0.00  0.00    -0.082 A 
ATOM      2  C2  <0> d           1.163   2.100   0.002  0.00  0.00    -0.082 A 
ATOM      3  C3  <0> d           2.386   1.437  -0.013  0.00  0.00    -0.067 A 
ATOM      4  C4  <0> d           2.416   0.058  -0.021  0.00  0.00     0.048 A 
ATOM      5  C5  <0> d           1.212  -0.672  -0.013  0.00  0.00     0.025 A 
ATOM      6  C6  <0> d           0.002  -0.004   0.002  0.00  0.00    -0.068 A 
ATOM      7  C7  <0> d           1.609  -2.100  -0.025  0.00  0.00     0.136 A 
ATOM      8  N1  <0> d           2.926  -2.180  -0.038  0.00  0.00    -0.191 NA
ATOM      9  C8  <0> d           3.497  -0.963  -0.037  0.00  0.00     0.280 A 
ATOM     10  O1  <0> d           4.691  -0.737  -0.049  0.00  0.00    -0.265 OA
ATOM     11  H1  <0> d          -0.961   1.910   0.026  0.00  0.00     0.083 H 
ATOM     12  H2  <0> d           1.138   3.180   0.008  0.00  0.00     0.083 H 
ATOM     13  H3  <0> d           3.308   1.999  -0.020  0.00  0.00     0.085 H 
ATOM     14  H4  <0> d          -0.924  -0.559   0.007  0.00  0.00     0.085 H 
ENDROOT
BRANCH   7  15
ATOM     15  N2  <0> d           0.753  -3.158  -0.021  0.00  0.00    -0.383 N 
ATOM     16  H5  <0> d          -0.205  -3.006  -0.011  0.00  0.00     0.157 HD
ATOM     17  H6  <0> d           1.101  -4.063  -0.030  0.00  0.00     0.157 HD
ENDBRANCH   7  15
TORSDOF 1
