REMARK  8 active torsions:
REMARK  status: ('A' for Active; 'I' for Inactive)
REMARK    1  A    between atoms: C1_1  and  C2_2 
REMARK    2  A    between atoms: C2_2  and  C3_4 
REMARK    3  A    between atoms: C2_2  and  O2_10 
REMARK    4  A    between atoms: C3_4  and  O1_5 
REMARK    5  A    between atoms: O1_5  and  C4_6 
REMARK    6  A    between atoms: C4_6  and  C5_7 
REMARK    7  A    between atoms: C5_7  and  C6_8 
REMARK    8  A    between atoms: C5_7  and  C7_9 
ROOT
ATOM      1  C4  <0> d           2.823  -0.333   2.418  0.00  0.00     0.022 C 
ATOM      2  H7  <0> d           2.307  -0.054   3.337  0.00  0.00     0.074 H 
ATOM      3  H8  <0> d           2.958  -1.414   2.393  0.00  0.00     0.074 H 
ENDROOT
BRANCH   1   4
ATOM      4  O1  <0> d           2.044   0.076   1.292  0.00  0.00    -0.388 OA
BRANCH   4   5
ATOM      5  C3  <0> d           0.742  -0.511   1.242  0.00  0.00     0.043 C 
ATOM      6  H5  <0> d           0.184  -0.235   2.136  0.00  0.00     0.078 H 
ATOM      7  H6  <0> d           0.835  -1.596   1.191  0.00  0.00     0.078 H 
BRANCH   5   8
ATOM      8  C2  <0> d           0.002  -0.004   0.002  0.00  0.00     0.052 C 
ATOM      9  H1  <0> d          -1.020  -0.381   0.010  0.00  0.00     0.085 H 
BRANCH   8  10
ATOM     10  C1  <0> d          -0.019   1.526   0.010  0.00  0.00    -0.051 C 
ATOM     11  H2  <0> d           1.004   1.903   0.003  0.00  0.00     0.031 H 
ATOM     12  H3  <0> d          -0.546   1.887  -0.873  0.00  0.00     0.031 H 
ATOM     13  H4  <0> d          -0.529   1.877   0.907  0.00  0.00     0.031 H 
ENDBRANCH   8  10
BRANCH   8  14
ATOM     14  O2  <0> d           0.671  -0.465  -1.174  0.00  0.00    -0.394 OA
ATOM     15  H16 <0> d           0.256  -0.181  -1.999  0.00  0.00     0.210 HD
ENDBRANCH   8  14
ENDBRANCH   5   8
ENDBRANCH   4   5
ENDBRANCH   1   4
BRANCH   1  16
ATOM     16  C5  <0> d           4.189   0.354   2.371  0.00  0.00    -0.041 C 
ATOM     17  H9  <0> d           4.667   0.146   1.413  0.00  0.00     0.042 H 
BRANCH  16  18
ATOM     18  C6  <0> d           4.006   1.864   2.532  0.00  0.00    -0.071 C 
ATOM     19  H10 <0> d           4.980   2.353   2.498  0.00  0.00     0.028 H 
ATOM     20  H11 <0> d           3.381   2.243   1.724  0.00  0.00     0.028 H 
ATOM     21  H12 <0> d           3.529   2.072   3.490  0.00  0.00     0.028 H 
ENDBRANCH  16  18
BRANCH  16  22
ATOM     22  C7  <0> d           5.067  -0.178   3.505  0.00  0.00    -0.071 C 
ATOM     23  H13 <0> d           5.197  -1.254   3.389  0.00  0.00     0.028 H 
ATOM     24  H14 <0> d           6.041   0.311   3.471  0.00  0.00     0.028 H 
ATOM     25  H15 <0> d           4.590   0.029   4.462  0.00  0.00     0.028 H 
ENDBRANCH  16  22
ENDBRANCH   1  16
TORSDOF 8
