REMARK  2 active torsions:
REMARK  status: ('A' for Active; 'I' for Inactive)
REMARK    1  A    between atoms: C4_5  and  N3_8 
REMARK    2  A    between atoms: C5_6  and  N2_7 
ROOT
ATOM      1  C1  <0> d           0.002  -0.004   0.002  0.00  0.00    -0.038 A 
ATOM      2  C2  <0> d           1.216  -0.660  -0.013  0.00  0.00     0.006 A 
ATOM      3  N1  <0> d           2.352   0.012  -0.021  0.00  0.00    -0.246 NA
ATOM      4  C3  <0> d           2.382   1.333  -0.014  0.00  0.00     0.154 A 
ATOM      5  C4  <0> d           1.207   2.067   0.002  0.00  0.00     0.093 A 
ATOM      6  C5  <0> d          -0.017   1.388   0.010  0.00  0.00     0.057 A 
ATOM      7 Cl1  <0> d           3.910   2.157  -0.025  0.00  0.00    -0.060 Cl
ATOM      8  H1  <0> d          -0.922  -0.564   0.007  0.00  0.00     0.089 H 
ATOM      9  H2  <0> d           1.237  -1.740  -0.019  0.00  0.00     0.114 H 
ENDROOT
BRANCH   5  10
ATOM     10  N3  <0> d           1.243   3.468   0.009  0.00  0.00    -0.395 N 
ATOM     11  H5  <0> d           0.305   4.043   0.021  0.00  0.00     0.156 HD
ATOM     12  H6  <0> d           2.210   3.993   0.002  0.00  0.00     0.156 HD
ENDBRANCH   5  10
BRANCH   6  13
ATOM     13  N2  <0> d          -1.224   2.088   0.019  0.00  0.00    -0.397 N 
ATOM     14  H3  <0> d          -1.222   3.188   0.025  0.00  0.00     0.156 HD
ATOM     15  H4  <0> d          -2.177   1.539   0.021  0.00  0.00     0.156 HD
ENDBRANCH   6  13
TORSDOF 2
