REMARK  3 active torsions:
REMARK  status: ('A' for Active; 'I' for Inactive)
REMARK    1  A    between atoms: C1_1  and  C2_2 
REMARK    2  A    between atoms: C5_5  and  O1_9 
REMARK    3  A    between atoms: O1_9  and  C7_10 
ROOT
ATOM      1  C2  <0> d          -0.718   1.572   1.248  0.00  0.00     0.032 A 
ATOM      2  C3  <0> d           0.010   1.803   2.400  0.00  0.00    -0.057 A 
ATOM      3  C4  <0> d          -0.645   2.250   3.536  0.00  0.00    -0.046 A 
ATOM      4  C5  <0> d          -2.020   2.450   3.472  0.00  0.00     0.108 A 
ATOM      5  C6  <0> d          -2.683   2.197   2.278  0.00  0.00     0.159 A 
ATOM      6  N1  <0> d          -2.021   1.776   1.217  0.00  0.00    -0.239 NA
ATOM      7 Cl1  <0> d          -4.399   2.441   2.179  0.00  0.00    -0.059 Cl
ATOM      8  H4  <0> d           1.077   1.637   2.414  0.00  0.00     0.086 H 
ATOM      9  H5  <0> d          -0.101   2.439   4.450  0.00  0.00     0.088 H 
ENDROOT
BRANCH   4  10
ATOM     10  O1  <0> d          -2.705   2.889   4.561  0.00  0.00    -0.353 OA
BRANCH  10  11
ATOM     11  C7  <0> d          -1.949   3.127   5.750  0.00  0.00     0.011 C 
ATOM     12  H6  <0> d          -1.193   3.887   5.554  0.00  0.00     0.066 H 
ATOM     13  H7  <0> d          -2.615   3.472   6.541  0.00  0.00     0.066 H 
ATOM     14  H8  <0> d          -1.462   2.203   6.062  0.00  0.00     0.066 H 
ENDBRANCH  10  11
ENDBRANCH   4  10
BRANCH   1  15
ATOM     15  C1  <0> d          -0.013   1.086   0.008  0.00  0.00    -0.035 C 
ATOM     16  H1  <0> d           0.002  -0.004   0.002  0.00  0.00     0.035 H 
ATOM     17  H2  <0> d           1.010   1.463   0.000  0.00  0.00     0.035 H 
ATOM     18  H3  <0> d          -0.540   1.447  -0.875  0.00  0.00     0.035 H 
ENDBRANCH   1  15
TORSDOF 3
