REMARK  2 active torsions:
REMARK  status: ('A' for Active; 'I' for Inactive)
REMARK    1  A    between atoms: C2_2  and  O4_10 
REMARK    2  A    between atoms: C4_6  and  O3_9 
ROOT
ATOM      1  C1  <0> d          -0.751   1.933  -1.235  0.00  0.00     0.068 C 
ATOM      2  C2  <0> d          -0.017   1.425   0.010  0.00  0.00     0.149 C 
ATOM      3  H1  <0> d          -0.529   1.777   0.905  0.00  0.00     0.132 H 
ATOM      4  O1  <0> d           1.325   1.921  -0.000  0.00  0.00    -0.354 OA
ATOM      5  C3  <0> d           1.407   3.349  -0.043  0.00  0.00     0.068 C 
ATOM      6  C4  <0> d           0.673   3.858  -1.287  0.00  0.00     0.149 C 
ATOM      7  H2  <0> d           0.659   4.948  -1.282  0.00  0.00     0.132 H 
ATOM      8  O2  <0> d          -0.669   3.361  -1.277  0.00  0.00    -0.354 OA
ATOM      9  H3  <0> d          -0.286   1.515  -2.128  0.00  0.00     0.082 H 
ATOM     10  H4  <0> d          -1.797   1.630  -1.191  0.00  0.00     0.082 H 
ATOM     11  H5  <0> d           0.942   3.767   0.851  0.00  0.00     0.082 H 
ATOM     12  H6  <0> d           2.452   3.653  -0.086  0.00  0.00     0.082 H 
ENDROOT
BRANCH   2  13
ATOM     13  O4  <0> d           0.002  -0.004   0.002  0.00  0.00    -0.369 OA
ATOM     14  H8  <0> d           0.456  -0.395   0.761  0.00  0.00     0.212 HD
ENDBRANCH   2  13
BRANCH   6  15
ATOM     15  O3  <0> d           1.345   3.394  -2.460  0.00  0.00    -0.369 OA
ATOM     16  H7  <0> d           0.934   3.680  -3.287  0.00  0.00     0.212 HD
ENDBRANCH   6  15
TORSDOF 2
