REMARK  3 active torsions:
REMARK  status: ('A' for Active; 'I' for Inactive)
REMARK    1  A    between atoms: C1_1  and  C2_2 
REMARK    2  A    between atoms: C5_6  and  C7_8 
REMARK    3  A    between atoms: C7_8  and  C8_10 
ROOT
ATOM      1  C2  <0> d           2.377   1.369  -0.013  0.00  0.00    -0.058 A 
ATOM      2  C3  <0> d           1.164   2.039   0.002  0.00  0.00    -0.060 A 
ATOM      3  C4  <0> d          -0.016   1.310   0.009  0.00  0.00     0.003 A 
ATOM      4  N1  <0> d           0.002  -0.004   0.002  0.00  0.00    -0.257 NA
ATOM      5  C5  <0> d           1.143  -0.685  -0.013  0.00  0.00     0.102 A 
ATOM      6  C6  <0> d           2.368  -0.017  -0.020  0.00  0.00    -0.046 A 
ATOM      7  H4  <0> d           1.137   3.119   0.008  0.00  0.00     0.086 H 
ATOM      8  H5  <0> d          -0.963   1.830   0.017  0.00  0.00     0.114 H 
ATOM      9  H6  <0> d           3.295  -0.571  -0.032  0.00  0.00     0.088 H 
ENDROOT
BRANCH   5  10
ATOM     10  C7  <0> d           1.114  -2.161  -0.020  0.00  0.00     0.174 C 
ATOM     11  O1  <0> d           2.152  -2.787  -0.033  0.00  0.00    -0.291 OA
BRANCH  10  12
ATOM     12  C8  <0> d          -0.205  -2.889  -0.011  0.00  0.00    -0.015 C 
ATOM     13  H7  <0> d          -0.506  -3.045  -0.952  0.00  0.00     0.038 H 
ATOM     14  H8  <0> d          -0.088  -3.846   0.496  0.00  0.00     0.038 H 
ATOM     15  H9  <0> d          -0.948  -2.288   0.513  0.00  0.00     0.038 H 
ENDBRANCH  10  12
ENDBRANCH   5  10
BRANCH   1  16
ATOM     16  C1  <0> d           3.678   2.130  -0.021  0.00  0.00    -0.051 C 
ATOM     17  H1  <0> d           3.982   2.320  -1.051  0.00  0.00     0.033 H 
ATOM     18  H2  <0> d           3.547   3.079   0.499  0.00  0.00     0.033 H 
ATOM     19  H3  <0> d           4.446   1.543   0.482  0.00  0.00     0.033 H 
ENDBRANCH   1  16
TORSDOF 3
