REMARK  8 active torsions:
REMARK  status: ('A' for Active; 'I' for Inactive)
REMARK    1  A    between atoms: C1_1  and  C2_2 
REMARK    2  A    between atoms: C2_2  and  O1_3 
REMARK    3  A    between atoms: O1_3  and  C3_4 
REMARK    4  A    between atoms: C3_4  and  C8_11 
REMARK    5  A    between atoms: C4_5  and  C5_6 
REMARK    6  A    between atoms: C5_6  and  O3_8 
REMARK    7  A    between atoms: O3_8  and  C6_9 
REMARK    8  A    between atoms: C6_9  and  C7_10 
ROOT
ATOM      1  C3  <0> d           0.072   1.192   0.218  0.00  0.00     0.048 C 
ATOM      2  C4  <0> d          -0.032  -0.078  -0.214  0.00  0.00     0.017 C 
ATOM      3  H6  <0> d          -1.004  -0.542  -0.297  0.00  0.00     0.096 H 
ENDROOT
BRANCH   1   4
ATOM      4  O1  <0> d          -1.038   1.936   0.397  0.00  0.00    -0.356 OA
BRANCH   4   5
ATOM      5  C2  <0> d          -2.311   1.302   0.103  0.00  0.00     0.022 C 
ATOM      6  H4  <0> d          -2.330   0.993  -0.942  0.00  0.00     0.074 H 
ATOM      7  H5  <0> d          -2.438   0.429   0.743  0.00  0.00     0.074 H 
BRANCH   5   8
ATOM      8  C1  <0> d          -3.447   2.294   0.363  0.00  0.00    -0.056 C 
ATOM      9  H1  <0> d          -3.427   2.603   1.408  0.00  0.00     0.030 H 
ATOM     10  H2  <0> d          -3.320   3.167  -0.277  0.00  0.00     0.030 H 
ATOM     11  H3  <0> d          -4.402   1.818   0.143  0.00  0.00     0.030 H 
ENDBRANCH   5   8
ENDBRANCH   4   5
ENDBRANCH   1   4
BRANCH   1  12
ATOM     12  C8  <0> d           1.429   1.785   0.496  0.00  0.00    -0.032 C 
ATOM     13  H12 <0> d           1.854   2.170  -0.430  0.00  0.00     0.036 H 
ATOM     14  H13 <0> d           1.330   2.597   1.216  0.00  0.00     0.036 H 
ATOM     15  H14 <0> d           2.085   1.016   0.904  0.00  0.00     0.036 H 
ENDBRANCH   1  12
BRANCH   2  16
ATOM     16  C5  <0> d           1.132  -0.805  -0.560  0.00  0.00     0.285 C 
ATOM     17  O2  <0> d           2.214  -0.249  -0.576  0.00  0.00    -0.260 OA
BRANCH  16  18
ATOM     18  O3  <0> d           1.042  -2.115  -0.871  0.00  0.00    -0.318 OA
BRANCH  18  19
ATOM     19  C6  <0> d           2.257  -2.787  -1.210  0.00  0.00     0.026 C 
ATOM     20  H7  <0> d           2.705  -2.309  -2.081  0.00  0.00     0.074 H 
ATOM     21  H8  <0> d           2.949  -2.732  -0.369  0.00  0.00     0.074 H 
BRANCH  19  22
ATOM     22  C7  <0> d           1.957  -4.253  -1.530  0.00  0.00    -0.056 C 
ATOM     23  H9  <0> d           2.884  -4.765  -1.788  0.00  0.00     0.030 H 
ATOM     24  H10 <0> d           1.509  -4.730  -0.658  0.00  0.00     0.030 H 
ATOM     25  H11 <0> d           1.265  -4.307  -2.370  0.00  0.00     0.030 H 
ENDBRANCH  19  22
ENDBRANCH  18  19
ENDBRANCH  16  18
ENDBRANCH   2  16
TORSDOF 8
