REMARK  6 active torsions:
REMARK  status: ('A' for Active; 'I' for Inactive)
REMARK    1  A    between atoms: C1_1  and  C2_2 
REMARK    2  A    between atoms: C2_2  and  C3_3 
REMARK    3  A    between atoms: C3_3  and  C4_4 
REMARK       I    between atoms: C4_4  and  N1_6 
REMARK    4  A    between atoms: N1_6  and  C5_7 
REMARK    5  A    between atoms: C5_7  and  C6_8 
REMARK    6  A    between atoms: C6_8  and  C7_9 
ROOT
ATOM      1  C4  <0> d           1.147   1.655  -0.000  0.00  0.00     0.217 C 
ATOM      2  O1  <0> d           1.130   2.868   0.007  0.00  0.00    -0.274 OA
ATOM      3  N1  <0> d          -0.011   0.966   0.007  0.00  0.00    -0.361 N 
ATOM      4  H8  <0> d           0.002  -0.004   0.002  0.00  0.00     0.162 HD
ENDROOT
BRANCH   1   5
ATOM      5  C3  <0> d           2.462   0.920  -0.017  0.00  0.00     0.009 C 
ATOM      6  H6  <0> d           2.537   0.289   0.869  0.00  0.00     0.047 H 
ATOM      7  H7  <0> d           2.520   0.299  -0.910  0.00  0.00     0.047 H 
BRANCH   5   8
ATOM      8  C2  <0> d           3.611   1.930  -0.022  0.00  0.00    -0.061 C 
ATOM      9  H4  <0> d           3.537   2.560  -0.908  0.00  0.00     0.033 H 
ATOM     10  H5  <0> d           3.554   2.551   0.872  0.00  0.00     0.033 H 
BRANCH   8  11
ATOM     11  C1  <0> d           4.946   1.183  -0.039  0.00  0.00    -0.076 C 
ATOM     12  H1  <0> d           5.765   1.903  -0.043  0.00  0.00     0.027 H 
ATOM     13  H2  <0> d           5.021   0.552   0.847  0.00  0.00     0.027 H 
ATOM     14  H3  <0> d           5.004   0.562  -0.933  0.00  0.00     0.027 H 
ENDBRANCH   8  11
ENDBRANCH   5   8
ENDBRANCH   1   5
BRANCH   3  15
ATOM     15  C5  <0> d          -1.290   1.681   0.017  0.00  0.00    -0.005 C 
ATOM     16  H9  <0> d          -1.352   2.302   0.911  0.00  0.00     0.064 H 
ATOM     17  H10 <0> d          -1.360   2.312  -0.869  0.00  0.00     0.064 H 
BRANCH  15  18
ATOM     18  C6  <0> d          -2.439   0.671   0.017  0.00  0.00    -0.054 C 
ATOM     19  H11 <0> d          -2.377   0.050  -0.876  0.00  0.00     0.034 H 
ATOM     20  H12 <0> d          -2.369   0.040   0.903  0.00  0.00     0.034 H 
BRANCH  18  21
ATOM     21  C7  <0> d          -3.774   1.418   0.028  0.00  0.00    -0.075 C 
ATOM     22  H13 <0> d          -3.845   2.049  -0.859  0.00  0.00     0.027 H 
ATOM     23  H14 <0> d          -4.593   0.699   0.028  0.00  0.00     0.027 H 
ATOM     24  H15 <0> d          -3.836   2.039   0.921  0.00  0.00     0.027 H 
ENDBRANCH  18  21
ENDBRANCH  15  18
ENDBRANCH   3  15
TORSDOF 6
