REMARK  3 active torsions:
REMARK  status: ('A' for Active; 'I' for Inactive)
REMARK    1  A    between atoms: C1_1  and  C2_2 
REMARK    2  A    between atoms: C2_2  and  O1_3 
REMARK    3  A    between atoms: O1_3  and  C3_4 
ROOT
ATOM      1  C3  <0> d           1.176   2.086   0.002  0.00  0.00     0.068 A 
ATOM      2  C4  <0> d          -0.017   1.377   0.010  0.00  0.00    -0.049 A 
ATOM      3  C5  <0> d           0.002  -0.004   0.002  0.00  0.00    -0.059 A 
ATOM      4  C6  <0> d           1.209  -0.680  -0.013  0.00  0.00     0.034 A 
ATOM      5  C7  <0> d           2.399   0.025  -0.020  0.00  0.00    -0.059 A 
ATOM      6  C8  <0> d           2.385   1.406  -0.012  0.00  0.00    -0.049 A 
ATOM      7 Cl1  <0> d           1.230  -2.416  -0.023  0.00  0.00    -0.084 Cl
ATOM      8  H6  <0> d          -0.959   1.905   0.017  0.00  0.00     0.087 H 
ATOM      9  H7  <0> d          -0.926  -0.556   0.008  0.00  0.00     0.086 H 
ATOM     10  H8  <0> d           3.341  -0.505  -0.032  0.00  0.00     0.086 H 
ATOM     11  H9  <0> d           3.314   1.957  -0.018  0.00  0.00     0.087 H 
ENDROOT
BRANCH   1  12
ATOM     12  O1  <0> d           1.159   3.445   0.009  0.00  0.00    -0.352 OA
BRANCH  12  13
ATOM     13  C2  <0> d           2.425   4.109   0.001  0.00  0.00     0.023 C 
ATOM     14  H4  <0> d           2.993   3.819   0.884  0.00  0.00     0.074 H 
ATOM     15  H5  <0> d           2.977   3.828  -0.896  0.00  0.00     0.074 H 
BRANCH  13  16
ATOM     16  C1  <0> d           2.206   5.624   0.010  0.00  0.00    -0.056 C 
ATOM     17  H1  <0> d           1.637   5.914  -0.873  0.00  0.00     0.030 H 
ATOM     18  H2  <0> d           1.654   5.905   0.907  0.00  0.00     0.030 H 
ATOM     19  H3  <0> d           3.171   6.130   0.004  0.00  0.00     0.030 H 
ENDBRANCH  13  16
ENDBRANCH  12  13
ENDBRANCH   1  12
TORSDOF 3
