REMARK  7 active torsions:
REMARK  status: ('A' for Active; 'I' for Inactive)
REMARK    1  A    between atoms: C1_1  and  C2_2 
REMARK    2  A    between atoms: C2_2  and  C3_3 
REMARK    3  A    between atoms: C3_3  and  C4_4 
REMARK    4  A    between atoms: C4_4  and  C5_5 
REMARK    5  A    between atoms: C5_5  and  C6_7 
REMARK    6  A    between atoms: C5_5  and  O1_10 
REMARK    7  A    between atoms: C6_7  and  C7_8 
ROOT
ATOM      1  C4  <0> d          -3.564   1.998  -1.081  0.00  0.00    -0.041 C 
ATOM      2  H9  <0> d          -4.010   1.785  -0.110  0.00  0.00     0.036 H 
ATOM      3  H10 <0> d          -3.463   3.076  -1.206  0.00  0.00     0.036 H 
ENDROOT
BRANCH   1   4
ATOM      4  C3  <0> d          -4.458   1.437  -2.188  0.00  0.00    -0.063 C 
ATOM      5  H7  <0> d          -4.012   1.650  -3.159  0.00  0.00     0.033 H 
ATOM      6  H8  <0> d          -4.559   0.359  -2.063  0.00  0.00     0.033 H 
BRANCH   4   7
ATOM      7  C2  <0> d          -5.840   2.090  -2.107  0.00  0.00    -0.068 C 
ATOM      8  H5  <0> d          -6.286   1.877  -1.136  0.00  0.00     0.032 H 
ATOM      9  H6  <0> d          -5.739   3.168  -2.233  0.00  0.00     0.032 H 
BRANCH   7  10
ATOM     10  C1  <0> d          -6.734   1.530  -3.215  0.00  0.00    -0.077 C 
ATOM     11  H2  <0> d          -6.288   1.743  -4.186  0.00  0.00     0.027 H 
ATOM     12  H3  <0> d          -6.835   0.451  -3.090  0.00  0.00     0.027 H 
ATOM     13  H4  <0> d          -7.718   1.995  -3.157  0.00  0.00     0.027 H 
ENDBRANCH   7  10
ENDBRANCH   4   7
ENDBRANCH   1   4
BRANCH   1  14
ATOM     14  C5  <0> d          -2.182   1.345  -1.162  0.00  0.00     0.038 C 
ATOM     15  H1  <0> d          -2.291   0.261  -1.126  0.00  0.00     0.083 H 
BRANCH  14  16
ATOM     16  C6  <0> d          -1.328   1.812   0.018  0.00  0.00    -0.027 C 
ATOM     17  H11 <0> d          -1.853   1.605   0.951  0.00  0.00     0.042 H 
ATOM     18  H12 <0> d          -1.145   2.883  -0.066  0.00  0.00     0.042 H 
BRANCH  16  19
ATOM     19  C7  <0> d          -0.013   1.076   0.008  0.00  0.00    -0.110 C 
ATOM     20  C8  <0> d           1.113   1.746   0.001  0.00  0.00    -0.125 C 
ATOM     21  H14 <0> d           2.055   1.219  -0.011  0.00  0.00     0.066 H 
ATOM     22  H15 <0> d           1.098   2.826   0.007  0.00  0.00     0.066 H 
ATOM     23  H13 <0> d           0.002  -0.004   0.002  0.00  0.00     0.075 H 
ENDBRANCH  16  19
ENDBRANCH  14  16
BRANCH  14  24
ATOM     24  O1  <0> d          -1.549   1.720  -2.387  0.00  0.00    -0.395 OA
ATOM     25  H16 <0> d          -1.420   2.673  -2.487  0.00  0.00     0.210 HD
ENDBRANCH  14  24
ENDBRANCH   1  14
TORSDOF 7
