REMARK  5 active torsions:
REMARK  status: ('A' for Active; 'I' for Inactive)
REMARK    1  A    between atoms: C1_1  and  C2_2 
REMARK    2  A    between atoms: C2_2  and  C3_3 
REMARK    3  A    between atoms: C2_2  and  C4_4 
REMARK    4  A    between atoms: C4_4  and  C5_5 
REMARK    5  A    between atoms: C6_9  and  N4_11 
ROOT
ATOM      1  C4  <0> d          -1.433  -0.534   0.013  0.00  0.00    -0.003 C 
ATOM      2  H9  <0> d          -1.916  -0.257   0.950  0.00  0.00     0.045 H 
ATOM      3  H10 <0> d          -1.986  -0.102  -0.821  0.00  0.00     0.045 H 
ENDROOT
BRANCH   1   4
ATOM      4  C2  <0> d           0.002  -0.004   0.002  0.00  0.00    -0.055 C 
ATOM      5  H5  <0> d           0.512  -0.356  -0.895  0.00  0.00     0.039 H 
BRANCH   4   6
ATOM      6  C1  <0> d          -0.019   1.526   0.010  0.00  0.00    -0.073 C 
ATOM      7  H2  <0> d           1.004   1.903   0.003  0.00  0.00     0.028 H 
ATOM      8  H3  <0> d          -0.546   1.887  -0.873  0.00  0.00     0.028 H 
ATOM      9  H4  <0> d          -0.529   1.877   0.907  0.00  0.00     0.028 H 
ENDBRANCH   4   6
BRANCH   4  10
ATOM     10  C3  <0> d           0.742  -0.511   1.242  0.00  0.00    -0.073 C 
ATOM     11  H6  <0> d           0.232  -0.159   2.138  0.00  0.00     0.028 H 
ATOM     12  H7  <0> d           0.757  -1.601   1.236  0.00  0.00     0.028 H 
ATOM     13  H8  <0> d           1.765  -0.134   1.234  0.00  0.00     0.028 H 
ENDBRANCH   4  10
ENDBRANCH   1   4
BRANCH   1  14
ATOM     14  C5  <0> d          -1.416  -2.035  -0.119  0.00  0.00     0.166 A 
ATOM     15  N3  <0> d          -1.364  -2.900   0.895  0.00  0.00    -0.046 NA
ATOM     16  C6  <0> d          -1.367  -4.130   0.428  0.00  0.00     0.716 A 
ATOM     17  N2  <0> d          -1.413  -4.062  -0.919  0.00  0.00    -0.106 N 
ATOM     18  N1  <0> d          -1.444  -2.696  -1.245  0.00  0.00    -0.144 NA
ATOM     19  H1  <0> d          -1.422  -4.808  -1.539  0.00  0.00     0.208 HD
BRANCH  16  20
ATOM     20  N4  <0> d          -1.325  -5.288   1.184  0.00  0.00    -0.231 N 
ATOM     21  H11 <0> d          -1.327  -6.153   0.746  0.00  0.00     0.174 HD
ATOM     22  H12 <0> d          -1.294  -5.234   2.152  0.00  0.00     0.174 HD
ENDBRANCH  16  20
ENDBRANCH   1  14
TORSDOF 5
