REMARK  0 active torsions:
REMARK  status: ('A' for Active; 'I' for Inactive)
ROOT
ATOM      1  C1  <0> d           1.233  -0.635  -0.013  0.00  0.00    -0.065 A 
ATOM      2  C2  <0> d           0.002  -0.004   0.002  0.00  0.00    -0.064 A 
ATOM      3  C3  <0> d          -0.017   1.392   0.010  0.00  0.00     0.061 A 
ATOM      4  C4  <0> d           1.207   2.100   0.002  0.00  0.00     0.073 A 
ATOM      5  C5  <0> d           1.156   3.563   0.011  0.00  0.00    -0.039 A 
ATOM      6  C6  <0> d          -0.036   4.183   0.026  0.00  0.00    -0.018 A 
ATOM      7  N1  <0> d          -1.217   3.502   0.033  0.00  0.00    -0.333 N 
ATOM      8  H1  <0> d          -2.048   4.003   0.044  0.00  0.00     0.168 HD
ATOM      9  C7  <0> d          -1.268   2.155   0.032  0.00  0.00     0.257 A 
ATOM     10  O1  <0> d          -2.341   1.579   0.044  0.00  0.00    -0.267 OA
ATOM     11  N2  <0> d           2.360   1.440  -0.013  0.00  0.00    -0.260 NA
ATOM     12  C8  <0> d           2.395   0.124  -0.020  0.00  0.00     0.003 A 
ATOM     13  H2  <0> d           1.290  -1.713  -0.020  0.00  0.00     0.085 H 
ATOM     14  H3  <0> d          -0.915  -0.574   0.008  0.00  0.00     0.085 H 
ATOM     15  H4  <0> d           2.069   4.140   0.005  0.00  0.00     0.089 H 
ATOM     16  H5  <0> d          -0.059   5.263   0.032  0.00  0.00     0.111 H 
ATOM     17  H6  <0> d           3.351  -0.377  -0.032  0.00  0.00     0.114 H 
ENDROOT
TORSDOF 0
