REMARK  1 active torsions:
REMARK  status: ('A' for Active; 'I' for Inactive)
REMARK    1  A    between atoms: C1_1  and  C2_2 
ROOT
ATOM      1  C2  <0> d          -0.017   3.796   0.023  0.00  0.00    -0.021 A 
ATOM      2  C3  <0> d          -1.232   3.129   0.031  0.00  0.00    -0.073 A 
ATOM      3  C4  <0> d          -1.223   1.742   0.017  0.00  0.00    -0.065 A 
ATOM      4  C5  <0> d          -0.013   1.076   0.008  0.00  0.00     0.004 A 
ATOM      5  N1  <0> d           1.125   1.743   0.001  0.00  0.00    -0.248 NA
ATOM      6  C6  <0> d           1.155   3.062   0.007  0.00  0.00     0.131 A 
ATOM      7 Cl1  <0> d           2.684   3.886  -0.003  0.00  0.00    -0.062 Cl
ATOM      8  H4  <0> d          -2.163   3.676   0.043  0.00  0.00     0.084 H 
ATOM      9  H5  <0> d          -2.151   1.190   0.018  0.00  0.00     0.085 H 
ATOM     10  H6  <0> d           0.002  -0.004   0.002  0.00  0.00     0.114 H 
ENDROOT
BRANCH   1  11
ATOM     11  C1  <0> d           0.026   5.303   0.032  0.00  0.00    -0.048 C 
ATOM     12  H1  <0> d           0.026   5.672  -0.994  0.00  0.00     0.033 H 
ATOM     13  H2  <0> d          -0.849   5.688   0.556  0.00  0.00     0.033 H 
ATOM     14  H3  <0> d           0.930   5.638   0.539  0.00  0.00     0.033 H 
ENDBRANCH   1  11
TORSDOF 1
