REMARK  1 active torsions:
REMARK  status: ('A' for Active; 'I' for Inactive)
REMARK    1  A    between atoms: C1_1  and  C2_2 
ROOT
ATOM      1  C2  <0> d          -1.438   1.720   0.031  0.00  0.00     0.078 A 
ATOM      2  C3  <0> d          -0.017   1.402   0.010  0.00  0.00     0.114 A 
ATOM      3  C4  <0> d           1.245   2.121   0.002  0.00  0.00     0.263 A 
ATOM      4  O1  <0> d           1.282   3.338   0.008  0.00  0.00    -0.267 OA
ATOM      5  N1  <0> d           2.381   1.380  -0.014  0.00  0.00    -0.317 N 
ATOM      6  H1  <0> d           3.362   1.877  -0.021  0.00  0.00     0.170 HD
ATOM      7  C5  <0> d           2.308   0.027  -0.020  0.00  0.00     0.069 A 
ATOM      8  N2  <0> d           1.182  -0.629  -0.013  0.00  0.00    -0.217 NA
ATOM      9  C6  <0> d           0.002  -0.004   0.002  0.00  0.00     0.213 A 
ATOM     10  O2  <0> d          -1.285  -0.373   0.013  0.00  0.00    -0.192 OA
ATOM     11  N3  <0> d          -2.046   0.567   0.026  0.00  0.00    -0.130 NA
ATOM     12  H5  <0> d           3.230  -0.536  -0.032  0.00  0.00     0.143 H 
ENDROOT
BRANCH   1  13
ATOM     13  C1  <0> d          -2.070   3.088   0.047  0.00  0.00    -0.032 C 
ATOM     14  H2  <0> d          -1.282   3.856   0.047  0.00  0.00     0.035 H 
ATOM     15  H3  <0> d          -2.687   3.196   0.951  0.00  0.00     0.035 H 
ATOM     16  H4  <0> d          -2.702   3.211  -0.845  0.00  0.00     0.035 H 
ENDBRANCH   1  13
TORSDOF 1
