REMARK  0 active torsions:
REMARK  status: ('A' for Active; 'I' for Inactive)
ROOT
ATOM      1  C1  <0> d          -0.017   1.379   0.010  0.00  0.00    -0.083 A 
ATOM      2  C2  <0> d           1.168   2.094   0.002  0.00  0.00    -0.082 A 
ATOM      3  C3  <0> d           2.377   1.430  -0.013  0.00  0.00    -0.063 A 
ATOM      4  C4  <0> d           2.404   0.034  -0.021  0.00  0.00     0.044 A 
ATOM      5  C5  <0> d           1.204  -0.681  -0.013  0.00  0.00    -0.063 A 
ATOM      6  C6  <0> d           0.002  -0.004   0.002  0.00  0.00    -0.082 A 
ATOM      7  C7  <0> d           3.655  -0.662  -0.038  0.00  0.00     0.099 C 
ATOM      8  N1  <0> d           4.648  -1.214  -0.051  0.00  0.00    -0.191 NA
ATOM      9  H1  <0> d          -0.961   1.904   0.026  0.00  0.00     0.083 H 
ATOM     10  H2  <0> d           1.146   3.174   0.008  0.00  0.00     0.083 H 
ATOM     11  H3  <0> d           3.302   1.989  -0.020  0.00  0.00     0.085 H 
ATOM     12  H4  <0> d           1.217  -1.760  -0.019  0.00  0.00     0.085 H 
ATOM     13  H5  <0> d          -0.926  -0.555   0.008  0.00  0.00     0.083 H 
ENDROOT
TORSDOF 0
