REMARK  3 active torsions:
REMARK  status: ('A' for Active; 'I' for Inactive)
REMARK    1  A    between atoms: C1_1  and  O1_2 
REMARK    2  A    between atoms: O1_2  and  C2_3 
REMARK    3  A    between atoms: C5_6  and  N1_10 
ROOT
ATOM      1  C2  <0> d          -3.649   3.002   0.037  0.00  0.00     0.090 A 
ATOM      2  C3  <0> d          -2.457   3.712   0.035  0.00  0.00    -0.047 A 
ATOM      3  C4  <0> d          -1.252   3.038   0.030  0.00  0.00    -0.055 A 
ATOM      4  C5  <0> d          -1.232   1.649   0.017  0.00  0.00     0.027 A 
ATOM      5  C6  <0> d          -2.425   0.939   0.019  0.00  0.00    -0.034 A 
ATOM      6  C7  <0> d          -3.631   1.615   0.029  0.00  0.00     0.069 A 
ATOM      7 Cl1  <0> d          -5.123   0.727   0.030  0.00  0.00    -0.081 Cl
ATOM      8  H4  <0> d          -2.472   4.791   0.042  0.00  0.00     0.087 H 
ATOM      9  H5  <0> d          -0.324   3.590   0.033  0.00  0.00     0.087 H 
ATOM     10  H6  <0> d          -2.411  -0.141   0.013  0.00  0.00     0.089 H 
ENDROOT
BRANCH   1  11
ATOM     11  O1  <0> d          -4.835   3.667   0.046  0.00  0.00    -0.354 OA
BRANCH  11  12
ATOM     12  C1  <0> d          -4.779   5.095   0.054  0.00  0.00     0.010 C 
ATOM     13  H1  <0> d          -4.247   5.433   0.943  0.00  0.00     0.066 H 
ATOM     14  H2  <0> d          -4.255   5.443  -0.837  0.00  0.00     0.066 H 
ATOM     15  H3  <0> d          -5.792   5.498   0.061  0.00  0.00     0.066 H 
ENDBRANCH  11  12
ENDBRANCH   1  11
BRANCH   4  16
ATOM     16  N1  <0> d          -0.011   0.966   0.007  0.00  0.00    -0.399 N 
ATOM     17  H7  <0> d           0.002  -0.004   0.002  0.00  0.00     0.156 HD
ATOM     18  H8  <0> d           0.822   1.462   0.002  0.00  0.00     0.156 HD
ENDBRANCH   4  16
TORSDOF 3
