REMARK  1 active torsions:
REMARK  status: ('A' for Active; 'I' for Inactive)
REMARK    1  A    between atoms: C4_4  and  O1_11 
ROOT
ATOM      1  C1  <0> d          -1.129   3.857   2.370  0.00  0.00    -0.065 C 
ATOM      2  C2  <0> d          -2.288   4.151   1.409  0.00  0.00    -0.062 C 
ATOM      3  C3  <0> d          -3.076   2.868   1.220  0.00  0.00    -0.036 C 
ATOM      4  C4  <0> d          -2.241   1.708   0.779  0.00  0.00     0.061 C 
ATOM      5  C5  <0> d          -2.292   1.455  -0.734  0.00  0.00    -0.036 C 
ATOM      6  C6  <0> d          -0.823   1.629  -1.198  0.00  0.00    -0.062 C 
ATOM      7  C7  <0> d          -0.013   1.086   0.008  0.00  0.00    -0.059 C 
ATOM      8  C8  <0> d          -0.801   1.617   1.238  0.00  0.00    -0.024 C 
ATOM      9  H1  <0> d          -0.722   0.902   2.057  0.00  0.00     0.044 H 
ATOM     10  C9  <0> d          -0.156   2.921   1.666  0.00  0.00    -0.059 C 
ATOM     11  H2  <0> d          -1.511   3.380   3.272  0.00  0.00     0.033 H 
ATOM     12  H3  <0> d          -0.623   4.786   2.631  0.00  0.00     0.033 H 
ATOM     13  H4  <0> d          -2.930   4.925   1.829  0.00  0.00     0.033 H 
ATOM     14  H5  <0> d          -1.896   4.480   0.446  0.00  0.00     0.033 H 
ATOM     15  H6  <0> d          -3.853   3.043   0.476  0.00  0.00     0.037 H 
ATOM     16  H7  <0> d          -3.552   2.616   2.168  0.00  0.00     0.037 H 
ATOM     17  H8  <0> d          -2.935   2.187  -1.222  0.00  0.00     0.037 H 
ATOM     18  H9  <0> d          -2.639   0.443  -0.939  0.00  0.00     0.037 H 
ATOM     19  H10 <0> d          -0.595   2.681  -1.373  0.00  0.00     0.033 H 
ATOM     20  H11 <0> d          -0.628   1.037  -2.092  0.00  0.00     0.033 H 
ATOM     21  H12 <0> d           0.002  -0.004   0.002  0.00  0.00     0.033 H 
ATOM     22  H13 <0> d           1.002   1.483   0.001  0.00  0.00     0.033 H 
ATOM     23  H14 <0> d           0.670   2.700   2.342  0.00  0.00     0.033 H 
ATOM     24  H15 <0> d           0.238   3.425   0.784  0.00  0.00     0.033 H 
ENDROOT
BRANCH   4  25
ATOM     25  O1  <0> d          -2.875   0.561   1.349  0.00  0.00    -0.389 OA
ATOM     26  H16 <0> d          -3.798   0.448   1.081  0.00  0.00     0.210 HD
ENDBRANCH   4  25
TORSDOF 1
