REMARK  4 active torsions:
REMARK  status: ('A' for Active; 'I' for Inactive)
REMARK    1  A    between atoms: C1_1  and  C2_2 
REMARK    2  A    between atoms: C2_2  and  C5_5 
REMARK    3  A    between atoms: C5_5  and  O2_7 
REMARK    4  A    between atoms: O2_7  and  C6_8 
ROOT
ATOM      1  C2  <0> d           0.002  -0.004   0.002  0.00  0.00     0.044 A 
ATOM      2  C3  <0> d           1.351  -0.691  -0.218  0.00  0.00    -0.048 A 
ATOM      3  C4  <0> d           0.701  -0.708   1.167  0.00  0.00    -0.048 A 
ATOM      4  H4  <0> d           1.355  -1.623  -0.783  0.00  0.00     0.034 H 
ATOM      5  H5  <0> d           2.224  -0.053  -0.357  0.00  0.00     0.034 H 
ATOM      6  H6  <0> d           1.147  -0.080   1.939  0.00  0.00     0.034 H 
ATOM      7  H7  <0> d           0.278  -1.650   1.513  0.00  0.00     0.034 H 
ENDROOT
BRANCH   1   8
ATOM      8  C1  <0> d          -0.019   1.526   0.010  0.00  0.00    -0.060 C 
ATOM      9  H1  <0> d           1.004   1.903   0.003  0.00  0.00     0.029 H 
ATOM     10  H2  <0> d          -0.546   1.887  -0.873  0.00  0.00     0.029 H 
ATOM     11  H3  <0> d          -0.529   1.877   0.907  0.00  0.00     0.029 H 
ENDBRANCH   1   8
BRANCH   1  12
ATOM     12  C5  <0> d          -1.220  -0.667  -0.579  0.00  0.00     0.266 C 
ATOM     13  O1  <0> d          -1.613  -1.715  -0.122  0.00  0.00    -0.264 OA
BRANCH  12  14
ATOM     14  O2  <0> d          -1.871  -0.095  -1.603  0.00  0.00    -0.326 OA
BRANCH  14  15
ATOM     15  C6  <0> d          -3.022  -0.779  -2.104  0.00  0.00     0.013 C 
ATOM     16  H8  <0> d          -2.731  -1.768  -2.458  0.00  0.00     0.067 H 
ATOM     17  H9  <0> d          -3.759  -0.880  -1.308  0.00  0.00     0.067 H 
ATOM     18  H10 <0> d          -3.453  -0.210  -2.928  0.00  0.00     0.067 H 
ENDBRANCH  14  15
ENDBRANCH  12  14
ENDBRANCH   1  12
TORSDOF 4
