REMARK  0 active torsions:
REMARK  status: ('A' for Active; 'I' for Inactive)
ROOT
ATOM      1  C1  <0> d           1.476   1.922  -0.002  0.00  0.00    -0.048 C 
ATOM      2  C2  <0> d          -0.018   1.514   0.010  0.00  0.00    -0.009 C 
ATOM      3  C3  <0> d           0.002  -0.004   0.002  0.00  0.00     0.131 C 
ATOM      4  O1  <0> d          -0.880  -0.732   0.389  0.00  0.00    -0.298 OA
ATOM      5  C4  <0> d           1.333  -0.439  -0.581  0.00  0.00     0.014 C 
ATOM      6  H1  <0> d           1.174  -1.053  -1.353  0.00  0.00     0.052 H 
ATOM      7  C5  <0> d           2.097   0.861  -0.940  0.00  0.00     0.014 C 
ATOM      8  H2  <0> d           2.000   1.158  -1.890  0.00  0.00     0.052 H 
ATOM      9  C6  <0> d           3.540   0.628  -0.572  0.00  0.00     0.131 C 
ATOM     10  O2  <0> d           4.480   1.290  -0.941  0.00  0.00    -0.298 OA
ATOM     11  C7  <0> d           3.607  -0.577   0.336  0.00  0.00    -0.009 C 
ATOM     12  C8  <0> d           2.171  -1.076   0.547  0.00  0.00    -0.048 C 
ATOM     13  H3  <0> d           1.602   2.924  -0.412  0.00  0.00     0.034 H 
ATOM     14  H4  <0> d           1.905   1.854   0.998  0.00  0.00     0.034 H 
ATOM     15  H5  <0> d          -0.474   1.894  -0.795  0.00  0.00     0.044 H 
ATOM     16  H6  <0> d          -0.506   1.883   0.913  0.00  0.00     0.044 H 
ATOM     17  H7  <0> d           4.021  -0.314   1.208  0.00  0.00     0.044 H 
ATOM     18  H8  <0> d           4.206  -1.359  -0.130  0.00  0.00     0.044 H 
ATOM     19  H9  <0> d           1.799  -0.753   1.519  0.00  0.00     0.034 H 
ATOM     20  H10 <0> d           2.136  -2.163   0.473  0.00  0.00     0.034 H 
ENDROOT
TORSDOF 0
