REMARK  4 active torsions:
REMARK  status: ('A' for Active; 'I' for Inactive)
REMARK    1  A    between atoms: C1_1  and  C2_2 
REMARK    2  A    between atoms: C2_2  and  N1_3 
REMARK    3  A    between atoms: N1_3  and  C3_4 
REMARK    4  A    between atoms: C6_7  and  C7_10 
ROOT
ATOM      1  C3  <0> d           0.831  -1.841  -1.432  0.00  0.00     0.145 A 
ATOM      2  C4  <0> d           0.319  -2.762  -0.519  0.00  0.00    -0.035 A 
ATOM      3  C5  <0> d           0.487  -4.109  -0.793  0.00  0.00    -0.054 A 
ATOM      4  C6  <0> d           1.156  -4.459  -1.959  0.00  0.00     0.053 A 
ATOM      5  N2  <0> d           1.608  -3.521  -2.766  0.00  0.00    -0.153 NA
ATOM      6  N3  <0> d           1.451  -2.271  -2.521  0.00  0.00    -0.132 NA
ATOM      7  H7  <0> d          -0.194  -2.435   0.374  0.00  0.00     0.089 H 
ATOM      8  H8  <0> d           0.111  -4.865  -0.120  0.00  0.00     0.086 H 
ENDROOT
BRANCH   1   9
ATOM      9  N1  <0> d           0.688  -0.476  -1.203  0.00  0.00    -0.374 N 
ATOM     10  H6  <0> d           1.042   0.162  -1.842  0.00  0.00     0.161 HD
BRANCH   9  11
ATOM     11  C2  <0> d           0.002  -0.004   0.002  0.00  0.00    -0.009 C 
ATOM     12  H4  <0> d           0.529  -0.365   0.885  0.00  0.00     0.063 H 
ATOM     13  H5  <0> d          -1.020  -0.381   0.010  0.00  0.00     0.063 H 
BRANCH  11  14
ATOM     14  C1  <0> d          -0.019   1.526   0.010  0.00  0.00    -0.061 C 
ATOM     15  H1  <0> d           1.004   1.903   0.003  0.00  0.00     0.029 H 
ATOM     16  H2  <0> d          -0.546   1.887  -0.873  0.00  0.00     0.029 H 
ATOM     17  H3  <0> d          -0.529   1.877   0.907  0.00  0.00     0.029 H 
ENDBRANCH  11  14
ENDBRANCH   9  11
ENDBRANCH   1   9
BRANCH   4  18
ATOM     18  C7  <0> d           1.364  -5.912  -2.300  0.00  0.00    -0.034 C 
ATOM     19  H9  <0> d           0.522  -6.271  -2.892  0.00  0.00     0.035 H 
ATOM     20  H10 <0> d           2.284  -6.022  -2.874  0.00  0.00     0.035 H 
ATOM     21  H11 <0> d           1.437  -6.495  -1.382  0.00  0.00     0.035 H 
ENDBRANCH   4  18
TORSDOF 4
