REMARK  2 active torsions:
REMARK  status: ('A' for Active; 'I' for Inactive)
REMARK    1  A    between atoms: C1_1  and  C2_2 
REMARK    2  A    between atoms: N3_6  and  C4_7 
ROOT
ATOM      1  C2  <0> d           0.580   3.158   0.013  0.00  0.00     0.125 A 
ATOM      2  N1  <0> d          -0.722   3.072   0.025  0.00  0.00    -0.136 NA
ATOM      3  N2  <0> d          -1.074   1.835   0.017  0.00  0.00    -0.143 NA
ATOM      4  C3  <0> d          -0.013   1.076   0.008  0.00  0.00     0.088 A 
ATOM      5  N3  <0> d           1.068   1.894   0.002  0.00  0.00    -0.332 N 
ATOM      6  H4  <0> d           0.002  -0.004   0.002  0.00  0.00     0.146 H 
ENDROOT
BRANCH   1   7
ATOM      7  C1  <0> d           1.391   4.428   0.013  0.00  0.00    -0.019 C 
ATOM      8  H1  <0> d           0.715   5.295   0.024  0.00  0.00     0.037 H 
ATOM      9  H2  <0> d           2.017   4.463  -0.891  0.00  0.00     0.037 H 
ATOM     10  H3  <0> d           2.034   4.453   0.905  0.00  0.00     0.037 H 
ENDBRANCH   1   7
BRANCH   5  11
ATOM     11  C4  <0> d           2.477   1.492  -0.014  0.00  0.00    -0.012 C 
ATOM     12  H5  <0> d           2.545   0.395  -0.020  0.00  0.00     0.057 H 
ATOM     13  H6  <0> d           2.980   1.886   0.882  0.00  0.00     0.057 H 
ATOM     14  H7  <0> d           2.963   1.896  -0.914  0.00  0.00     0.057 H 
ENDBRANCH   5  11
TORSDOF 2
