REMARK  1 active torsions:
REMARK  status: ('A' for Active; 'I' for Inactive)
REMARK    1  A    between atoms: C1_1  and  C2_2 
ROOT
ATOM      1  C2  <0> d           1.235  -0.638  -0.013  0.00  0.00     0.053 A 
ATOM      2  C3  <0> d           0.002  -0.004   0.002  0.00  0.00    -0.055 A 
ATOM      3  C4  <0> d          -0.017   1.384   0.010  0.00  0.00    -0.040 A 
ATOM      4  C5  <0> d           1.200   2.051   0.002  0.00  0.00     0.148 A 
ATOM      5  N1  <0> d           2.326   1.362  -0.013  0.00  0.00    -0.138 NA
ATOM      6  N2  <0> d           2.342   0.079  -0.020  0.00  0.00    -0.154 NA
ATOM      7 Cl1  <0> d           1.241   3.787   0.011  0.00  0.00    -0.061 Cl
ATOM      8  H4  <0> d          -0.916  -0.573   0.008  0.00  0.00     0.086 H 
ATOM      9  H5  <0> d          -0.950   1.928   0.017  0.00  0.00     0.088 H 
ENDROOT
BRANCH   1  10
ATOM     10  C1  <0> d           1.310  -2.143  -0.021  0.00  0.00    -0.034 C 
ATOM     11  H1  <0> d           1.318  -2.501  -1.051  0.00  0.00     0.035 H 
ATOM     12  H2  <0> d           2.222  -2.464   0.482  0.00  0.00     0.035 H 
ATOM     13  H3  <0> d           0.445  -2.553   0.499  0.00  0.00     0.035 H 
ENDBRANCH   1  10
TORSDOF 1
