REMARK  1 active torsions:
REMARK  status: ('A' for Active; 'I' for Inactive)
REMARK    1  A    between atoms: C3_3  and  C5_6 
ROOT
ATOM      1  C1  <0> d           3.278  -3.432  -0.048  0.00  0.00    -0.059 A 
ATOM      2  C2  <0> d           3.204  -2.027  -0.045  0.00  0.00    -0.044 A 
ATOM      3  C3  <0> d           1.881  -1.704  -0.025  0.00  0.00     0.126 A 
ATOM      4  O1  <0> d           1.171  -2.850  -0.026  0.00  0.00    -0.319 OA
ATOM      5  C4  <0> d           2.012  -3.896  -0.040  0.00  0.00     0.019 A 
ATOM      6  H1  <0> d           4.179  -4.028  -0.060  0.00  0.00     0.086 H 
ATOM      7  H2  <0> d           4.035  -1.338  -0.054  0.00  0.00     0.088 H 
ATOM      8  H3  <0> d           1.722  -4.936  -0.044  0.00  0.00     0.123 H 
ENDROOT
BRANCH   3   9
ATOM      9  C5  <0> d           1.324  -0.342  -0.012  0.00  0.00     0.230 A 
ATOM     10  N3  <0> d           2.007   0.787  -0.013  0.00  0.00    -0.104 NA
ATOM     11  N2  <0> d           1.210   1.794   0.000  0.00  0.00    -0.021 NA
ATOM     12  N1  <0> d          -0.017   1.402   0.010  0.00  0.00    -0.021 NA
ATOM     13  N4  <0> d           0.024   0.014   0.002  0.00  0.00    -0.104 NA
ENDBRANCH   3   9
TORSDOF 1
