REMARK  5 active torsions:
REMARK  status: ('A' for Active; 'I' for Inactive)
REMARK    1  A    between atoms: C1_1  and  C2_2 
REMARK    2  A    between atoms: C2_2  and  C3_3 
REMARK    3  A    between atoms: C3_3  and  N1_4 
REMARK    4  A    between atoms: N1_4  and  C4_5 
REMARK    5  A    between atoms: C7_8  and  C10_11 
ROOT
ATOM      1  C4  <0> d           1.215  -0.681  -0.013  0.00  0.00     0.027 A 
ATOM      2  C5  <0> d           0.002  -0.004   0.002  0.00  0.00    -0.057 A 
ATOM      3  C6  <0> d          -0.017   1.377   0.010  0.00  0.00    -0.075 A 
ATOM      4  C7  <0> d           1.171   2.086   0.002  0.00  0.00    -0.062 A 
ATOM      5  C8  <0> d           2.380   1.416  -0.013  0.00  0.00    -0.075 A 
ATOM      6  C9  <0> d           2.406   0.035  -0.021  0.00  0.00    -0.057 A 
ATOM      7  H9  <0> d          -0.925  -0.557   0.008  0.00  0.00     0.086 H 
ATOM      8  H10 <0> d          -0.960   1.903   0.017  0.00  0.00     0.084 H 
ATOM      9  H11 <0> d           3.305   1.973  -0.019  0.00  0.00     0.084 H 
ATOM     10  H12 <0> d           3.351  -0.488  -0.032  0.00  0.00     0.086 H 
ENDROOT
BRANCH   1  11
ATOM     11  N1  <0> d           1.238  -2.077  -0.021  0.00  0.00    -0.390 N 
ATOM     12  H8  <0> d           0.294  -2.643  -0.014  0.00  0.00     0.159 HD
BRANCH  11  13
ATOM     13  C3  <0> d           2.518  -2.789  -0.037  0.00  0.00    -0.008 C 
ATOM     14  H6  <0> d           3.099  -2.518   0.857  0.00  0.00     0.063 H 
ATOM     15  H7  <0> d           3.082  -2.509  -0.939  0.00  0.00     0.063 H 
BRANCH  13  16
ATOM     16  C2  <0> d           2.263  -4.298  -0.042  0.00  0.00    -0.054 C 
ATOM     17  H4  <0> d           1.682  -4.568  -0.936  0.00  0.00     0.034 H 
ATOM     18  H5  <0> d           1.699  -4.577   0.861  0.00  0.00     0.034 H 
BRANCH  16  19
ATOM     19  C1  <0> d           3.600  -5.041  -0.059  0.00  0.00    -0.075 C 
ATOM     20  H1  <0> d           3.417  -6.125  -0.062  0.00  0.00     0.027 H 
ATOM     21  H2  <0> d           4.181  -4.770   0.835  0.00  0.00     0.027 H 
ATOM     22  H3  <0> d           4.164  -4.761  -0.961  0.00  0.00     0.027 H 
ENDBRANCH  16  19
ENDBRANCH  13  16
ENDBRANCH  11  13
ENDBRANCH   1  11
BRANCH   4  23
ATOM     23  C10 <0> d           1.146   3.593   0.010  0.00  0.00    -0.051 C 
ATOM     24  H13 <0> d           2.177   3.976   0.002  0.00  0.00     0.033 H 
ATOM     25  H14 <0> d           0.630   3.946   0.915  0.00  0.00     0.033 H 
ATOM     26  H15 <0> d           0.613   3.955  -0.881  0.00  0.00     0.033 H 
ENDBRANCH   4  23
TORSDOF 5
