REMARK  4 active torsions:
REMARK  status: ('A' for Active; 'I' for Inactive)
REMARK    1  A    between atoms: C1_1  and  C2_2 
REMARK    2  A    between atoms: C3_3  and  C4_4 
REMARK    3  A    between atoms: C5_5  and  C6_6 
REMARK    4  A    between atoms: C6_6  and  O1_7 
ROOT
ATOM      1  C4  <0> d          -1.296   1.794   0.018  0.00  0.00    -0.085 C 
ATOM      2  C5  <0> d          -2.438   1.114   0.020  0.00  0.00    -0.081 C 
ATOM      3  H6  <0> d          -1.311   2.874   0.024  0.00  0.00     0.083 H 
ATOM      4  H7  <0> d          -2.423   0.034   0.014  0.00  0.00     0.080 H 
ENDROOT
BRANCH   1   5
ATOM      5  C3  <0> d          -0.013   1.076   0.008  0.00  0.00    -0.087 C 
ATOM      6  C2  <0> d           1.129   1.756   0.001  0.00  0.00    -0.107 C 
ATOM      7  H4  <0> d           1.114   2.836   0.007  0.00  0.00     0.076 H 
ATOM      8  H5  <0> d           0.002  -0.004   0.002  0.00  0.00     0.083 H 
BRANCH   6   9
ATOM      9  C1  <0> d           2.444   1.020  -0.016  0.00  0.00    -0.060 C 
ATOM     10  H1  <0> d           2.502   0.399  -0.910  0.00  0.00     0.032 H 
ATOM     11  H2  <0> d           3.263   1.740  -0.020  0.00  0.00     0.032 H 
ATOM     12  H3  <0> d           2.519   0.390   0.870  0.00  0.00     0.032 H 
ENDBRANCH   6   9
ENDBRANCH   1   5
BRANCH   2  13
ATOM     13  C6  <0> d          -3.753   1.850   0.030  0.00  0.00     0.032 C 
ATOM     14  H8  <0> d          -4.196   1.790   1.024  0.00  0.00     0.080 H 
ATOM     15  H9  <0> d          -3.587   2.895  -0.231  0.00  0.00     0.080 H 
BRANCH  13  16
ATOM     16  O1  <0> d          -4.639   1.256  -0.922  0.00  0.00    -0.397 OA
ATOM     17  H10 <0> d          -5.506   1.680  -0.969  0.00  0.00     0.209 HD
ENDBRANCH  13  16
ENDBRANCH   2  13
TORSDOF 4
