REMARK  1 active torsions:
REMARK  status: ('A' for Active; 'I' for Inactive)
REMARK    1  A    between atoms: C1_1  and  N1_2 
ROOT
ATOM      1  N1  <0> d           0.002  -0.004   0.002  0.00  0.00    -0.355 N 
ATOM      2  C2  <0> d          -1.198  -0.849   0.003  0.00  0.00     0.013 C 
ATOM      3  C3  <0> d          -0.718  -2.248  -0.442  0.00  0.00     0.054 C 
ATOM      4  H1  <0> d          -1.258  -3.032   0.088  0.00  0.00     0.066 H 
ATOM      5  C4  <0> d           0.770  -2.219  -0.024  0.00  0.00     0.026 C 
ATOM      6  C5  <0> d           1.122  -0.747  -0.013  0.00  0.00     0.220 C 
ATOM      7  O1  <0> d           2.251  -0.303  -0.015  0.00  0.00    -0.273 OA
ATOM      8  C6  <0> d          -0.854  -2.412  -1.899  0.00  0.00     0.066 C 
ATOM      9  N2  <0> d          -0.958  -2.538  -3.023  0.00  0.00    -0.197 NA
ATOM     10  H5  <0> d          -1.624  -0.897   1.005  0.00  0.00     0.066 H 
ATOM     11  H6  <0> d          -1.933  -0.460  -0.702  0.00  0.00     0.066 H 
ATOM     12  H7  <0> d           0.896  -2.652   0.968  0.00  0.00     0.049 H 
ATOM     13  H8  <0> d           1.382  -2.749  -0.753  0.00  0.00     0.049 H 
ENDROOT
BRANCH   1  14
ATOM     14  C1  <0> d          -0.018   1.461   0.010  0.00  0.00    -0.016 C 
ATOM     15  H2  <0> d           1.005   1.838   0.002  0.00  0.00     0.056 H 
ATOM     16  H3  <0> d          -0.545   1.822  -0.873  0.00  0.00     0.056 H 
ATOM     17  H4  <0> d          -0.528   1.812   0.907  0.00  0.00     0.056 H 
ENDBRANCH   1  14
TORSDOF 1
