REMARK  4 active torsions:
REMARK  status: ('A' for Active; 'I' for Inactive)
REMARK    1  A    between atoms: C1_1  and  C2_2 
REMARK    2  A    between atoms: C2_2  and  N1_3 
REMARK    3  A    between atoms: C5_6  and  C8_9 
REMARK    4  A    between atoms: C6_7  and  C7_8 
ROOT
ATOM      1  N1  <0> d           0.688  -0.476  -1.203  0.00  0.00    -0.360 N 
ATOM      2  C3  <0> d           0.084  -0.829  -2.374  0.00  0.00    -0.020 A 
ATOM      3  C4  <0> d           1.042  -1.209  -3.244  0.00  0.00    -0.060 A 
ATOM      4  C5  <0> d           2.282  -1.087  -2.587  0.00  0.00    -0.038 A 
ATOM      5  C6  <0> d           2.035  -0.631  -1.342  0.00  0.00     0.013 A 
ATOM      6  H6  <0> d          -0.977  -0.807  -2.571  0.00  0.00     0.111 H 
ATOM      7  H7  <0> d           0.887  -1.545  -4.259  0.00  0.00     0.086 H 
ENDROOT
BRANCH   1   8
ATOM      8  C2  <0> d           0.002  -0.004   0.002  0.00  0.00    -0.004 C 
ATOM      9  H4  <0> d           0.529  -0.365   0.885  0.00  0.00     0.064 H 
ATOM     10  H5  <0> d          -1.020  -0.381   0.010  0.00  0.00     0.064 H 
BRANCH   8  11
ATOM     11  C1  <0> d          -0.019   1.526   0.010  0.00  0.00    -0.061 C 
ATOM     12  H1  <0> d           1.004   1.903   0.003  0.00  0.00     0.029 H 
ATOM     13  H2  <0> d          -0.546   1.887  -0.873  0.00  0.00     0.029 H 
ATOM     14  H3  <0> d          -0.529   1.877   0.907  0.00  0.00     0.029 H 
ENDBRANCH   8  11
ENDBRANCH   1   8
BRANCH   5  15
ATOM     15  C7  <0> d           3.070  -0.346  -0.284  0.00  0.00    -0.037 C 
ATOM     16  H8  <0> d           3.243  -1.246   0.307  0.00  0.00     0.035 H 
ATOM     17  H9  <0> d           4.002  -0.040  -0.760  0.00  0.00     0.035 H 
ATOM     18  H10 <0> d           2.715   0.453   0.366  0.00  0.00     0.035 H 
ENDBRANCH   5  15
BRANCH   4  19
ATOM     19  C8  <0> d           3.635  -1.401  -3.170  0.00  0.00    -0.049 C 
ATOM     20  H11 <0> d           4.043  -0.508  -3.643  0.00  0.00     0.033 H 
ATOM     21  H12 <0> d           4.306  -1.730  -2.375  0.00  0.00     0.033 H 
ATOM     22  H13 <0> d           3.536  -2.193  -3.912  0.00  0.00     0.033 H 
ENDBRANCH   4  19
TORSDOF 4
