REMARK  1 active torsions:
REMARK  status: ('A' for Active; 'I' for Inactive)
REMARK    1  A    between atoms: C6_6  and  N1_7 
ROOT
ATOM      1  C1  <0> d           0.002  -0.004   0.002  0.00  0.00    -0.055 A 
ATOM      2  C2  <0> d          -0.017   1.362   0.009  0.00  0.00    -0.050 A 
ATOM      3  C3  <0> d           1.183   2.075   0.002  0.00  0.00     0.092 A 
ATOM      4  C4  <0> d           2.405   1.384  -0.013  0.00  0.00     0.107 A 
ATOM      5  C5  <0> d           2.412  -0.002  -0.021  0.00  0.00    -0.023 A 
ATOM      6  C6  <0> d           1.212  -0.694  -0.014  0.00  0.00     0.028 A 
ATOM      7  O1  <0> d           3.373   2.327  -0.017  0.00  0.00    -0.302 OA
ATOM      8  C7  <0> d           2.782   3.533  -0.004  0.00  0.00     0.104 A 
ATOM      9  N2  <0> d           1.490   3.402   0.007  0.00  0.00    -0.234 NA
ATOM     10  H1  <0> d          -0.928  -0.553   0.008  0.00  0.00     0.087 H 
ATOM     11  H2  <0> d          -0.959   1.890   0.017  0.00  0.00     0.087 H 
ATOM     12  H3  <0> d           3.349  -0.539  -0.034  0.00  0.00     0.091 H 
ATOM     13  H6  <0> d           3.306   4.477  -0.004  0.00  0.00     0.155 H 
ENDROOT
BRANCH   6  14
ATOM     14  N1  <0> d           1.215  -2.092  -0.021  0.00  0.00    -0.399 N 
ATOM     15  H4  <0> d           0.376  -2.579  -0.015  0.00  0.00     0.156 HD
ATOM     16  H5  <0> d           2.056  -2.575  -0.032  0.00  0.00     0.156 HD
ENDBRANCH   6  14
TORSDOF 1
