REMARK  1 active torsions:
REMARK  status: ('A' for Active; 'I' for Inactive)
REMARK    1  A    between atoms: C5_6  and  C6_7 
REMARK       I    between atoms: C6_7  and  N2_9 
ROOT
ATOM      1  C1  <0> d          -2.520   1.238   0.021  0.00  0.00    -0.051 A 
ATOM      2  C2  <0> d          -3.703   1.950   0.030  0.00  0.00     0.006 A 
ATOM      3  N1  <0> d          -3.700   3.269   0.037  0.00  0.00    -0.233 NA
ATOM      4  C3  <0> d          -2.579   3.966   0.036  0.00  0.00     0.210 A 
ATOM      5  C4  <0> d          -1.349   3.331   0.032  0.00  0.00    -0.012 A 
ATOM      6  C5  <0> d          -1.307   1.934   0.019  0.00  0.00     0.037 A 
ATOM      7  F1  <0> d          -2.633   5.316   0.043  0.00  0.00    -0.184 F 
ATOM      8  H1  <0> d          -2.531   0.158   0.015  0.00  0.00     0.087 H 
ATOM      9  H2  <0> d          -4.644   1.420   0.031  0.00  0.00     0.114 H 
ATOM     10  H3  <0> d          -0.434   3.906   0.036  0.00  0.00     0.092 H 
ENDROOT
BRANCH   6  11
ATOM     11  C6  <0> d          -0.014   1.211   0.009  0.00  0.00     0.249 C 
ATOM     12  O1  <0> d           0.002  -0.004   0.002  0.00  0.00    -0.268 OA
ATOM     13  N2  <0> d           1.143   1.901   0.001  0.00  0.00    -0.366 N 
ATOM     14  H4  <0> d           1.990   1.427  -0.009  0.00  0.00     0.159 HD
ATOM     15  H5  <0> d           1.130   2.870   0.007  0.00  0.00     0.159 HD
ENDBRANCH   6  11
TORSDOF 1
