REMARK  2 active torsions:
REMARK  status: ('A' for Active; 'I' for Inactive)
REMARK    1  A    between atoms: C1_1  and  C2_2 
REMARK    2  A    between atoms: C7_7  and  C8_8 
ROOT
ATOM      1  C2  <0> d           0.002  -0.004   0.002  0.00  0.00    -0.054 A 
ATOM      2  C3  <0> d          -0.006  -0.682  -1.198  0.00  0.00    -0.049 A 
ATOM      3  C4  <0> d           0.018  -2.070  -1.204  0.00  0.00     0.062 A 
ATOM      4  C5  <0> d           0.038  -2.774   0.012  0.00  0.00     0.085 A 
ATOM      5  C6  <0> d           0.041  -2.066   1.216  0.00  0.00    -0.047 A 
ATOM      6  C7  <0> d           0.023  -0.699   1.202  0.00  0.00    -0.054 A 
ATOM      7  N1  <0> d           0.053  -4.096  -0.296  0.00  0.00    -0.242 NA
ATOM      8  C9  <0> d           0.042  -4.244  -1.589  0.00  0.00     0.065 A 
ATOM      9  N2  <0> d           0.021  -3.028  -2.199  0.00  0.00    -0.349 N 
ATOM     10  H1  <0> d           0.009  -2.859  -3.184  0.00  0.00     0.167 HD
ATOM     11  H5  <0> d          -0.026  -0.136  -2.130  0.00  0.00     0.087 H 
ATOM     12  H6  <0> d           0.056  -2.597   2.156  0.00  0.00     0.088 H 
ATOM     13  H10 <0> d           0.050  -5.194  -2.103  0.00  0.00     0.143 H 
ENDROOT
BRANCH   1  14
ATOM     14  C1  <0> d          -0.018   1.503   0.010  0.00  0.00    -0.051 C 
ATOM     15  H2  <0> d           1.004   1.880   0.003  0.00  0.00     0.033 H 
ATOM     16  H3  <0> d          -0.545   1.864  -0.873  0.00  0.00     0.033 H 
ATOM     17  H4  <0> d          -0.529   1.854   0.907  0.00  0.00     0.033 H 
ENDBRANCH   1  14
BRANCH   6  18
ATOM     18  C8  <0> d           0.025   0.060   2.504  0.00  0.00    -0.051 C 
ATOM     19  H7  <0> d          -1.002   0.229   2.828  0.00  0.00     0.033 H 
ATOM     20  H8  <0> d           0.554  -0.519   3.261  0.00  0.00     0.033 H 
ATOM     21  H9  <0> d           0.525   1.018   2.365  0.00  0.00     0.033 H 
ENDBRANCH   6  18
TORSDOF 2
