REMARK  2 active torsions:
REMARK  status: ('A' for Active; 'I' for Inactive)
REMARK    1  A    between atoms: C1_1  and  C2_2 
REMARK    2  A    between atoms: C2_2  and  O1_11 
ROOT
ATOM      1  C2  <0> d          -0.793   1.613   1.237  0.00  0.00     0.062 C 
ATOM      2  C3  <0> d          -0.013   1.086   0.008  0.00  0.00    -0.030 C 
ATOM      3  C4  <0> d          -0.824   1.631  -1.211  0.00  0.00    -0.035 C 
ATOM      4  H1  <0> d          -0.627   1.157  -2.172  0.00  0.00     0.046 H 
ATOM      5  C5  <0> d          -2.289   1.512  -0.653  0.00  0.00    -0.050 C 
ATOM      6  C6  <0> d          -1.982   2.409   0.602  0.00  0.00    -0.008 C 
ATOM      7  H2  <0> d          -2.824   2.643   1.253  0.00  0.00     0.050 H 
ATOM      8  C7  <0> d          -1.305   3.599  -0.089  0.00  0.00    -0.099 C 
ATOM      9  C8  <0> d          -0.637   3.151  -1.133  0.00  0.00    -0.102 C 
ATOM     10  H6  <0> d           0.002  -0.004   0.002  0.00  0.00     0.038 H 
ATOM     11  H7  <0> d           1.003   1.482   0.000  0.00  0.00     0.038 H 
ATOM     12  H8  <0> d          -3.027   1.961  -1.317  0.00  0.00     0.035 H 
ATOM     13  H9  <0> d          -2.551   0.489  -0.382  0.00  0.00     0.035 H 
ATOM     14  H10 <0> d          -1.365   4.630   0.227  0.00  0.00     0.077 H 
ATOM     15  H11 <0> d          -0.057   3.752  -1.817  0.00  0.00     0.076 H 
ENDROOT
BRANCH   1  16
ATOM     16  C1  <0> d          -1.315   0.449   2.082  0.00  0.00    -0.047 C 
ATOM     17  H3  <0> d          -0.474  -0.138   2.450  0.00  0.00     0.031 H 
ATOM     18  H4  <0> d          -1.882   0.840   2.927  0.00  0.00     0.031 H 
ATOM     19  H5  <0> d          -1.960  -0.183   1.472  0.00  0.00     0.031 H 
ENDBRANCH   1  16
BRANCH   1  20
ATOM     20  O1  <0> d           0.030   2.477   2.023  0.00  0.00    -0.390 OA
ATOM     21  H12 <0> d           0.819   2.048   2.383  0.00  0.00     0.210 HD
ENDBRANCH   1  20
TORSDOF 2
