REMARK  2 active torsions:
REMARK  status: ('A' for Active; 'I' for Inactive)
REMARK    1  A    between atoms: C1_1  and  C2_2 
REMARK    2  A    between atoms: C10_11  and  N2_12 
ROOT
ATOM      1  C2  <0> d          -2.438   3.849   0.044  0.00  0.00    -0.022 A 
ATOM      2  C3  <0> d          -1.226   3.136   0.030  0.00  0.00     0.001 A 
ATOM      3  C4  <0> d          -1.206   1.732   0.017  0.00  0.00    -0.070 A 
ATOM      4  C5  <0> d          -0.013   1.076   0.008  0.00  0.00    -0.082 A 
ATOM      5  C6  <0> d           1.190   1.780   0.000  0.00  0.00    -0.081 A 
ATOM      6  C7  <0> d           1.207   3.141   0.006  0.00  0.00    -0.054 A 
ATOM      7  C8  <0> d          -0.004   3.855   0.021  0.00  0.00     0.067 A 
ATOM      8  N1  <0> d          -0.014   5.191   0.027  0.00  0.00    -0.258 NA
ATOM      9  C9  <0> d          -1.134   5.869   0.042  0.00  0.00     0.029 A 
ATOM     10  C10 <0> d          -2.380   5.229   0.050  0.00  0.00     0.050 A 
ATOM     11  H4  <0> d          -2.131   1.175   0.019  0.00  0.00     0.084 H 
ATOM     12  H5  <0> d           0.002  -0.004   0.002  0.00  0.00     0.083 H 
ATOM     13  H6  <0> d           2.123   1.237  -0.011  0.00  0.00     0.083 H 
ATOM     14  H7  <0> d           2.148   3.671   0.000  0.00  0.00     0.087 H 
ATOM     15  H8  <0> d          -1.097   6.949   0.046  0.00  0.00     0.118 H 
ENDROOT
BRANCH   1  16
ATOM     16  C1  <0> d          -3.762   3.128   0.053  0.00  0.00    -0.048 C 
ATOM     17  H1  <0> d          -4.071   2.950   1.083  0.00  0.00     0.033 H 
ATOM     18  H2  <0> d          -4.511   3.739  -0.451  0.00  0.00     0.033 H 
ATOM     19  H3  <0> d          -3.660   2.175  -0.466  0.00  0.00     0.033 H 
ENDBRANCH   1  16
BRANCH  10  20
ATOM     20  N2  <0> d          -3.556   5.982   0.066  0.00  0.00    -0.398 N 
ATOM     21  H9  <0> d          -4.418   5.536   0.072  0.00  0.00     0.156 HD
ATOM     22  H10 <0> d          -3.512   6.951   0.070  0.00  0.00     0.156 HD
ENDBRANCH  10  20
TORSDOF 2
