REMARK  4 active torsions:
REMARK  status: ('A' for Active; 'I' for Inactive)
REMARK    1  A    between atoms: C4_4  and  C7_7 
REMARK    2  A    between atoms: C7_7  and  C8_9 
REMARK    3  A    between atoms: C7_7  and  O2_11 
REMARK    4  A    between atoms: C8_9  and  O1_10 
ROOT
ATOM      1  C1  <0> d           1.208  -0.679  -0.014  0.00  0.00    -0.083 A 
ATOM      2  C2  <0> d           0.002  -0.004   0.002  0.00  0.00    -0.082 A 
ATOM      3  C3  <0> d          -0.017   1.378   0.010  0.00  0.00    -0.074 A 
ATOM      4  C4  <0> d           1.171   2.086   0.002  0.00  0.00    -0.028 A 
ATOM      5  C5  <0> d           2.377   1.411  -0.014  0.00  0.00    -0.074 A 
ATOM      6  C6  <0> d           2.396   0.029  -0.021  0.00  0.00    -0.082 A 
ATOM      7  H2  <0> d           1.223  -1.759  -0.020  0.00  0.00     0.083 H 
ATOM      8  H3  <0> d          -0.926  -0.557   0.008  0.00  0.00     0.083 H 
ATOM      9  H4  <0> d          -0.959   1.905   0.017  0.00  0.00     0.084 H 
ATOM     10  H5  <0> d           3.305   1.963  -0.019  0.00  0.00     0.084 H 
ATOM     11  H6  <0> d           3.339  -0.499  -0.033  0.00  0.00     0.083 H 
ENDROOT
BRANCH   4  12
ATOM     12  C7  <0> d           1.151   3.592   0.010  0.00  0.00     0.081 C 
ATOM     13  H1  <0> d           0.177   3.944  -0.331  0.00  0.00     0.093 H 
BRANCH  12  14
ATOM     14  C8  <0> d           1.407   4.098   1.431  0.00  0.00     0.044 C 
ATOM     15  H7  <0> d           0.684   3.651   2.112  0.00  0.00     0.078 H 
ATOM     16  H8  <0> d           2.416   3.822   1.738  0.00  0.00     0.078 H 
BRANCH  14  17
ATOM     17  O1  <0> d           1.273   5.521   1.461  0.00  0.00    -0.398 OA
ATOM     18  H9  <0> d           1.423   5.911   2.333  0.00  0.00     0.209 HD
ENDBRANCH  14  17
ENDBRANCH  12  14
BRANCH  12  19
ATOM     19  O2  <0> d           2.168   4.087  -0.863  0.00  0.00    -0.389 OA
ATOM     20  H10 <0> d           3.063   3.813  -0.620  0.00  0.00     0.210 HD
ENDBRANCH  12  19
ENDBRANCH   4  12
TORSDOF 4
