REMARK  5 active torsions:
REMARK  status: ('A' for Active; 'I' for Inactive)
REMARK    1  A    between atoms: C2_2  and  C3_3 
REMARK    2  A    between atoms: C3_3  and  C4_4 
REMARK    3  A    between atoms: C4_4  and  C5_5 
REMARK    4  A    between atoms: C4_4  and  O1_8 
REMARK    5  A    between atoms: C5_5  and  C6_6 
ROOT
ATOM      1  C4  <0> d          -0.013   1.086   0.008  0.00  0.00     0.041 C 
ATOM      2  H6  <0> d           0.002  -0.004   0.002  0.00  0.00     0.083 H 
ENDROOT
BRANCH   1   3
ATOM      3  C3  <0> d          -0.753   1.593  -1.232  0.00  0.00    -0.026 C 
ATOM      4  H4  <0> d          -1.798   1.290  -1.179  0.00  0.00     0.042 H 
ATOM      5  H5  <0> d          -0.691   2.680  -1.272  0.00  0.00     0.042 H 
BRANCH   3   6
ATOM      6  C2  <0> d          -0.121   1.007  -2.468  0.00  0.00    -0.110 C 
ATOM      7  C1  <0> d          -0.855   0.345  -3.328  0.00  0.00    -0.125 C 
ATOM      8  H1  <0> d          -1.913   0.218  -3.150  0.00  0.00     0.066 H 
ATOM      9  H2  <0> d          -0.402  -0.075  -4.214  0.00  0.00     0.066 H 
ATOM     10  H3  <0> d           0.937   1.133  -2.646  0.00  0.00     0.075 H 
ENDBRANCH   3   6
ENDBRANCH   1   3
BRANCH   1  11
ATOM     11  C5  <0> d          -0.729   1.579   1.267  0.00  0.00    -0.026 C 
ATOM     12  H7  <0> d          -0.666   2.666   1.318  0.00  0.00     0.042 H 
ATOM     13  H8  <0> d          -1.776   1.277   1.232  0.00  0.00     0.042 H 
BRANCH  11  14
ATOM     14  C6  <0> d          -0.074   0.981   2.485  0.00  0.00    -0.110 C 
ATOM     15  C7  <0> d           0.367   1.760   3.441  0.00  0.00    -0.125 C 
ATOM     16  H10 <0> d           0.261   2.831   3.357  0.00  0.00     0.066 H 
ATOM     17  H11 <0> d           0.837   1.331   4.314  0.00  0.00     0.066 H 
ATOM     18  H9  <0> d           0.032  -0.091   2.569  0.00  0.00     0.075 H 
ENDBRANCH  11  14
ENDBRANCH   1  11
BRANCH   1  19
ATOM     19  O1  <0> d           1.328   1.580  -0.002  0.00  0.00    -0.395 OA
ATOM     20  H12 <0> d           1.391   2.545   0.002  0.00  0.00     0.210 HD
ENDBRANCH   1  19
TORSDOF 5
