REMARK  0 active torsions:
REMARK  status: ('A' for Active; 'I' for Inactive)
ROOT
ATOM      1  C1  <0> d          -1.222   2.033   0.019  0.00  0.00    -0.037 A 
ATOM      2  C2  <0> d          -1.193   3.419   0.032  0.00  0.00    -0.024 A 
ATOM      3  C3  <0> d           0.028   4.070   0.023  0.00  0.00     0.212 A 
ATOM      4  N1  <0> d           1.159   3.386   0.009  0.00  0.00    -0.189 NA
ATOM      5  C4  <0> d           1.170   2.065   0.002  0.00  0.00     0.251 A 
ATOM      6  C5  <0> d          -0.016   1.347   0.009  0.00  0.00     0.174 A 
ATOM      7  F1  <0> d           0.002  -0.004   0.002  0.00  0.00    -0.201 F 
ATOM      8  F2  <0> d           2.350   1.407  -0.013  0.00  0.00    -0.181 F 
ATOM      9  F3  <0> d           0.065   5.420   0.030  0.00  0.00    -0.184 F 
ATOM     10  H1  <0> d          -2.161   1.500   0.020  0.00  0.00     0.088 H 
ATOM     11  H2  <0> d          -2.113   3.985   0.045  0.00  0.00     0.090 H 
ENDROOT
TORSDOF 0
