REMARK  5 active torsions:
REMARK  status: ('A' for Active; 'I' for Inactive)
REMARK    1  A    between atoms: C1_1  and  C2_2 
REMARK    2  A    between atoms: C2_2  and  C3_3 
REMARK    3  A    between atoms: C4_4  and  C6_9 
REMARK    4  A    between atoms: C5_7  and  N2_8 
REMARK    5  A    between atoms: C6_9  and  C7_10 
ROOT
ATOM      1  C3  <0> d           0.000   1.080   2.488  0.00  0.00     0.021 A 
ATOM      2  C4  <0> d           1.048   1.707   3.190  0.00  0.00     0.072 A 
ATOM      3  N1  <0> d           1.364   0.912   4.174  0.00  0.00    -0.130 NA
ATOM      4  O1  <0> d           0.682  -0.087   4.181  0.00  0.00    -0.195 OA
ATOM      5  C5  <0> d          -0.206  -0.084   3.175  0.00  0.00     0.174 A 
ENDROOT
BRANCH   1   6
ATOM      6  C2  <0> d          -0.729   1.579   1.267  0.00  0.00    -0.038 C 
ATOM      7  H4  <0> d          -0.744   2.669   1.273  0.00  0.00     0.039 H 
ATOM      8  H5  <0> d          -1.751   1.202   1.275  0.00  0.00     0.039 H 
BRANCH   6   9
ATOM      9  C1  <0> d          -0.013   1.086   0.008  0.00  0.00    -0.072 C 
ATOM     10  H1  <0> d           0.002  -0.004   0.002  0.00  0.00     0.028 H 
ATOM     11  H2  <0> d           1.010   1.463   0.000  0.00  0.00     0.028 H 
ATOM     12  H3  <0> d          -0.540   1.447  -0.875  0.00  0.00     0.028 H 
ENDBRANCH   6   9
ENDBRANCH   1   6
BRANCH   5  13
ATOM     13  N2  <0> d          -1.140  -1.062   2.889  0.00  0.00    -0.378 N 
ATOM     14  H6  <0> d          -1.736  -0.957   2.130  0.00  0.00     0.158 HD
ATOM     15  H7  <0> d          -1.200  -1.853   3.447  0.00  0.00     0.158 HD
ENDBRANCH   5  13
BRANCH   2  16
ATOM     16  C6  <0> d           1.681   3.036   2.867  0.00  0.00    -0.025 C 
ATOM     17  H8  <0> d           2.724   3.028   3.184  0.00  0.00     0.042 H 
ATOM     18  H9  <0> d           1.629   3.211   1.792  0.00  0.00     0.042 H 
BRANCH  16  19
ATOM     19  C7  <0> d           0.932   4.149   3.602  0.00  0.00    -0.071 C 
ATOM     20  H10 <0> d          -0.111   4.157   3.285  0.00  0.00     0.028 H 
ATOM     21  H11 <0> d           0.984   3.974   4.676  0.00  0.00     0.028 H 
ATOM     22  H12 <0> d           1.390   5.111   3.368  0.00  0.00     0.028 H 
ENDBRANCH  16  19
ENDBRANCH   2  16
TORSDOF 5
