REMARK  0 active torsions:
REMARK  status: ('A' for Active; 'I' for Inactive)
ROOT
ATOM      1  C1  <0> d          -0.017   1.381   0.010  0.00  0.00    -0.045 A 
ATOM      2  C2  <0> d           1.172   2.092   0.002  0.00  0.00    -0.073 A 
ATOM      3  C3  <0> d           2.373   1.422  -0.013  0.00  0.00    -0.044 A 
ATOM      4  C4  <0> d           2.406   0.025  -0.021  0.00  0.00    -0.027 A 
ATOM      5  C5  <0> d           1.204  -0.685  -0.013  0.00  0.00    -0.035 A 
ATOM      6  C6  <0> d           0.002  -0.004   0.002  0.00  0.00     0.117 A 
ATOM      7  F1  <0> d          -1.161  -0.692   0.009  0.00  0.00    -0.206 F 
ATOM      8  C7  <0> d           3.813  -0.418  -0.037  0.00  0.00    -0.076 A 
ATOM      9  C8  <0> d           4.637   0.615  -0.040  0.00  0.00    -0.098 A 
ATOM     10  C9  <0> d           3.811   1.880  -0.025  0.00  0.00    -0.025 A 
ATOM     11  H1  <0> d          -0.960   1.908   0.026  0.00  0.00     0.088 H 
ATOM     12  H2  <0> d           1.156   3.171   0.008  0.00  0.00     0.084 H 
ATOM     13  H3  <0> d           1.214  -1.765  -0.019  0.00  0.00     0.089 H 
ATOM     14  H4  <0> d           4.128  -1.451  -0.045  0.00  0.00     0.084 H 
ATOM     15  H5  <0> d           5.715   0.564  -0.050  0.00  0.00     0.077 H 
ATOM     16  H6  <0> d           4.011   2.471  -0.918  0.00  0.00     0.046 H 
ATOM     17  H7  <0> d           4.029   2.462   0.871  0.00  0.00     0.046 H 
ENDROOT
TORSDOF 0
