REMARK  2 active torsions:
REMARK  status: ('A' for Active; 'I' for Inactive)
REMARK    1  A    between atoms: C1_1  and  C2_2 
REMARK    2  A    between atoms: N1_4  and  C6_11 
ROOT
ATOM      1  C2  <0> d          -1.197   3.037   0.030  0.00  0.00     0.022 A 
ATOM      2  C3  <0> d          -0.020   3.700   0.022  0.00  0.00    -0.005 A 
ATOM      3  N1  <0> d           1.154   2.997   0.007  0.00  0.00    -0.313 N 
ATOM      4  C4  <0> d           1.147   1.652  -0.000  0.00  0.00     0.328 A 
ATOM      5  O1  <0> d           2.202   1.047  -0.013  0.00  0.00    -0.246 OA
ATOM      6  N2  <0> d          -0.011   0.966   0.007  0.00  0.00    -0.275 N 
ATOM      7  H1  <0> d           0.002  -0.034   0.006  0.00  0.00     0.173 HD
ATOM      8  C5  <0> d          -1.189   1.621   0.017  0.00  0.00     0.256 A 
ATOM      9  O2  <0> d          -2.237   1.001   0.018  0.00  0.00    -0.267 OA
ATOM     10  H5  <0> d          -0.006   4.780   0.028  0.00  0.00     0.112 H 
ENDROOT
BRANCH   1  11
ATOM     11  C1  <0> d          -2.500   3.794   0.046  0.00  0.00    -0.045 C 
ATOM     12  H2  <0> d          -2.823   3.982  -0.978  0.00  0.00     0.033 H 
ATOM     13  H3  <0> d          -3.256   3.204   0.564  0.00  0.00     0.033 H 
ATOM     14  H4  <0> d          -2.362   4.743   0.563  0.00  0.00     0.033 H 
ENDBRANCH   1  11
BRANCH   3  15
ATOM     15  C6  <0> d           2.430   3.717  -0.001  0.00  0.00    -0.010 C 
ATOM     16  H6  <0> d           3.251   3.000  -0.012  0.00  0.00     0.057 H 
ATOM     17  H7  <0> d           2.486   4.347  -0.888  0.00  0.00     0.057 H 
ATOM     18  H8  <0> d           2.502   4.338   0.892  0.00  0.00     0.057 H 
ENDBRANCH   3  15
TORSDOF 2
