REMARK  3 active torsions:
REMARK  status: ('A' for Active; 'I' for Inactive)
REMARK    1  A    between atoms: C1_1  and  O1_2 
REMARK    2  A    between atoms: O1_2  and  C2_3 
REMARK    3  A    between atoms: C7_8  and  C8_9 
ROOT
ATOM      1  C8  <0> d          -0.049  -2.805  -0.013  0.00  0.00    -0.075 C 
ATOM      2  C9  <0> d           0.941  -3.435  -0.025  0.00  0.00    -0.149 C 
ATOM      3  H7  <0> d           1.827  -3.999  -0.037  0.00  0.00     0.166 H 
ENDROOT
BRANCH   1   4
ATOM      4  C7  <0> d          -1.257  -2.036   0.003  0.00  0.00     0.053 A 
ATOM      5  C2  <0> d          -1.200  -0.637   0.010  0.00  0.00     0.087 A 
ATOM      6  C3  <0> d          -2.373   0.099   0.019  0.00  0.00    -0.046 A 
ATOM      7  C4  <0> d          -3.596  -0.545   0.028  0.00  0.00    -0.043 A 
ATOM      8  H4  <0> d          -2.332   1.178   0.021  0.00  0.00     0.087 H 
ATOM      9  C5  <0> d          -3.658  -1.930   0.027  0.00  0.00     0.117 A 
ATOM     10  H5  <0> d          -4.508   0.034   0.035  0.00  0.00     0.088 H 
ATOM     11  C6  <0> d          -2.496  -2.677   0.017  0.00  0.00    -0.025 A 
ATOM     12  F1  <0> d          -4.858  -2.550   0.035  0.00  0.00    -0.206 F 
ATOM     13  H6  <0> d          -2.547  -3.756   0.017  0.00  0.00     0.090 H 
BRANCH   5  14
ATOM     14  O1  <0> d           0.002  -0.004   0.002  0.00  0.00    -0.354 OA
BRANCH  14  15
ATOM     15  C1  <0> d          -0.017   1.425   0.010  0.00  0.00     0.010 C 
ATOM     16  H1  <0> d           1.005   1.802   0.002  0.00  0.00     0.066 H 
ATOM     17  H2  <0> d          -0.544   1.786  -0.873  0.00  0.00     0.066 H 
ATOM     18  H3  <0> d          -0.527   1.776   0.907  0.00  0.00     0.066 H 
ENDBRANCH  14  15
ENDBRANCH   5  14
ENDBRANCH   1   4
TORSDOF 3
