REMARK  1 active torsions:
REMARK  status: ('A' for Active; 'I' for Inactive)
REMARK    1  A    between atoms: C2_2  and  C3_3 
ROOT
ATOM      1  C1  <0> d          -3.245  -3.603   0.011  0.00  0.00    -0.149 C 
ATOM      2  C2  <0> d          -2.275  -2.941   0.006  0.00  0.00    -0.076 C 
ATOM      3  H1  <0> d          -4.112  -4.195   0.016  0.00  0.00     0.166 H 
ENDROOT
BRANCH   2   4
ATOM      4  C3  <0> d          -1.092  -2.135  -0.001  0.00  0.00     0.035 A 
ATOM      5  C11 <0> d           0.177  -2.738  -0.016  0.00  0.00     0.021 A 
ATOM      6  N1  <0> d           1.274  -2.025  -0.022  0.00  0.00    -0.259 NA
ATOM      7  H7  <0> d           0.249  -3.816  -0.023  0.00  0.00     0.117 H 
ATOM      8  C10 <0> d           1.244  -0.688  -0.013  0.00  0.00     0.066 A 
ATOM      9  C5  <0> d           0.002  -0.004   0.002  0.00  0.00    -0.006 A 
ATOM     10  C9  <0> d           2.434   0.060  -0.020  0.00  0.00    -0.054 A 
ATOM     11  C4  <0> d          -1.190  -0.749   0.009  0.00  0.00    -0.051 A 
ATOM     12  C6  <0> d          -0.017   1.401   0.010  0.00  0.00    -0.071 A 
ATOM     13  H2  <0> d          -2.152  -0.259   0.021  0.00  0.00     0.087 H 
ATOM     14  C7  <0> d           1.157   2.090   0.002  0.00  0.00    -0.082 A 
ATOM     15  H3  <0> d          -0.958   1.931   0.017  0.00  0.00     0.084 H 
ATOM     16  C8  <0> d           2.379   1.420  -0.012  0.00  0.00    -0.081 A 
ATOM     17  H4  <0> d           1.142   3.170   0.008  0.00  0.00     0.083 H 
ATOM     18  H5  <0> d           3.297   1.989  -0.018  0.00  0.00     0.083 H 
ATOM     19  H6  <0> d           3.390  -0.443  -0.032  0.00  0.00     0.087 H 
ENDBRANCH   2   4
TORSDOF 1
