REMARK  5 active torsions:
REMARK  status: ('A' for Active; 'I' for Inactive)
REMARK    1  A    between atoms: C1_1  and  C2_2 
REMARK    2  A    between atoms: C2_2  and  C3_3 
REMARK    3  A    between atoms: C2_2  and  C4_4 
REMARK    4  A    between atoms: C4_4  and  C5_6 
REMARK    5  A    between atoms: C4_4  and  O1_12 
ROOT
ATOM      1  C4  <0> d           0.011   1.072   2.506  0.00  0.00     0.063 C 
ATOM      2  H1  <0> d           0.104  -0.013   2.456  0.00  0.00     0.091 H 
ENDROOT
BRANCH   1   3
ATOM      3  C2  <0> d          -0.729   1.579   1.267  0.00  0.00    -0.032 C 
ATOM      4  H5  <0> d          -1.751   1.202   1.275  0.00  0.00     0.043 H 
BRANCH   3   5
ATOM      5  C1  <0> d          -0.013   1.086   0.008  0.00  0.00    -0.071 C 
ATOM      6  H2  <0> d           0.002  -0.004   0.002  0.00  0.00     0.028 H 
ATOM      7  H3  <0> d           1.010   1.463   0.000  0.00  0.00     0.028 H 
ATOM      8  H4  <0> d          -0.540   1.447  -0.875  0.00  0.00     0.028 H 
ENDBRANCH   3   5
BRANCH   3   9
ATOM      9  C3  <0> d          -0.750   3.109   1.275  0.00  0.00    -0.071 C 
ATOM     10  H6  <0> d          -1.277   3.470   0.392  0.00  0.00     0.028 H 
ATOM     11  H7  <0> d          -1.260   3.461   2.172  0.00  0.00     0.028 H 
ATOM     12  H8  <0> d           0.273   3.486   1.268  0.00  0.00     0.028 H 
ENDBRANCH   3   9
ENDBRANCH   1   3
BRANCH   1  13
ATOM     13  C5  <0> d          -0.761   1.454   3.743  0.00  0.00    -0.029 A 
ATOM     14  C10 <0> d          -1.567   0.522   4.370  0.00  0.00    -0.074 A 
ATOM     15  C9  <0> d          -2.275   0.872   5.504  0.00  0.00    -0.082 A 
ATOM     16  H13 <0> d          -1.644  -0.479   3.973  0.00  0.00     0.084 H 
ATOM     17  C8  <0> d          -2.176   2.153   6.013  0.00  0.00    -0.083 A 
ATOM     18  H12 <0> d          -2.905   0.144   5.993  0.00  0.00     0.083 H 
ATOM     19  C7  <0> d          -1.370   3.085   5.386  0.00  0.00    -0.082 A 
ATOM     20  H11 <0> d          -2.729   2.427   6.899  0.00  0.00     0.083 H 
ATOM     21  C6  <0> d          -0.658   2.734   4.255  0.00  0.00    -0.074 A 
ATOM     22  H10 <0> d          -1.293   4.087   5.784  0.00  0.00     0.083 H 
ATOM     23  H9  <0> d          -0.025   3.461   3.768  0.00  0.00     0.084 H 
ENDBRANCH   1  13
BRANCH   1  24
ATOM     24  O1  <0> d           1.313   1.660   2.557  0.00  0.00    -0.391 OA
ATOM     25  H14 <0> d           1.307   2.626   2.603  0.00  0.00     0.210 HD
ENDBRANCH   1  24
TORSDOF 5
