REMARK  1 active torsions:
REMARK  status: ('A' for Active; 'I' for Inactive)
REMARK    1  A    between atoms: C6_6  and  N1_7 
ROOT
ATOM      1  C1  <0> d          -0.016   1.312   0.009  0.00  0.00    -0.057 A 
ATOM      2  C2  <0> d           1.248   2.069   0.001  0.00  0.00    -0.070 A 
ATOM      3  C3  <0> d           2.397   1.429  -0.013  0.00  0.00    -0.026 A 
ATOM      4  C4  <0> d           2.412  -0.044  -0.021  0.00  0.00    -0.024 A 
ATOM      5  C5  <0> d           1.291  -0.720  -0.014  0.00  0.00    -0.047 A 
ATOM      6  C6  <0> d           0.002  -0.004   0.002  0.00  0.00     0.026 A 
ATOM      7  C7  <0> d           3.870   0.115  -0.034  0.00  0.00    -0.071 A 
ATOM      8  C8  <0> d           3.870   1.433  -0.027  0.00  0.00    -0.071 A 
ATOM      9  H1  <0> d          -0.959   1.838   0.026  0.00  0.00     0.086 H 
ATOM     10  H2  <0> d           1.231   3.149   0.007  0.00  0.00     0.084 H 
ATOM     11  H3  <0> d           1.310  -1.800  -0.020  0.00  0.00     0.088 H 
ATOM     12  H6  <0> d           4.675  -0.606  -0.045  0.00  0.00     0.084 H 
ATOM     13  H7  <0> d           4.632   2.198  -0.029  0.00  0.00     0.084 H 
ENDROOT
BRANCH   6  14
ATOM     14  N1  <0> d          -1.161  -0.699   0.010  0.00  0.00    -0.399 N 
ATOM     15  H4  <0> d          -2.008  -0.227   0.021  0.00  0.00     0.156 HD
ATOM     16  H5  <0> d          -1.147  -1.669   0.004  0.00  0.00     0.156 HD
ENDBRANCH   6  14
TORSDOF 1
