REMARK  8 active torsions:
REMARK  status: ('A' for Active; 'I' for Inactive)
REMARK    1  A    between atoms: C1_1  and  C2_2 
REMARK    2  A    between atoms: C2_2  and  O1_3 
REMARK    3  A    between atoms: O1_3  and  C3_4 
REMARK    4  A    between atoms: C3_4  and  C4_6 
REMARK    5  A    between atoms: C4_6  and  C5_8 
REMARK    6  A    between atoms: C4_6  and  C6_9 
REMARK    7  A    between atoms: C6_9  and  C7_11 
REMARK    8  A    between atoms: C6_9  and  O3_12 
ROOT
ATOM      1  C4  <0> d          -1.329   1.940   0.019  0.00  0.00     0.051 C 
ATOM      2  H1  <0> d          -1.391   2.561   0.913  0.00  0.00     0.058 H 
ENDROOT
BRANCH   1   3
ATOM      3  C3  <0> d          -0.014   1.204   0.009  0.00  0.00     0.265 C 
ATOM      4  O2  <0> d           0.002  -0.004   0.002  0.00  0.00    -0.265 OA
BRANCH   3   5
ATOM      5  O1  <0> d           1.139   1.891   0.001  0.00  0.00    -0.322 OA
BRANCH   5   6
ATOM      6  C2  <0> d           2.367   1.117  -0.015  0.00  0.00     0.025 C 
ATOM      7  H6  <0> d           2.409   0.484   0.872  0.00  0.00     0.074 H 
ATOM      8  H7  <0> d           2.392   0.493  -0.908  0.00  0.00     0.074 H 
BRANCH   6   9
ATOM      9  C1  <0> d           3.568   2.065  -0.021  0.00  0.00    -0.056 C 
ATOM     10  H3  <0> d           3.543   2.689   0.873  0.00  0.00     0.030 H 
ATOM     11  H4  <0> d           4.490   1.484  -0.033  0.00  0.00     0.030 H 
ATOM     12  H5  <0> d           3.526   2.698  -0.907  0.00  0.00     0.030 H 
ENDBRANCH   6   9
ENDBRANCH   5   6
ENDBRANCH   3   5
ENDBRANCH   1   3
BRANCH   1  13
ATOM     13  C5  <0> d          -1.428   2.825  -1.225  0.00  0.00    -0.062 C 
ATOM     14  H8  <0> d          -2.380   3.357  -1.218  0.00  0.00     0.028 H 
ATOM     15  H9  <0> d          -0.610   3.545  -1.225  0.00  0.00     0.028 H 
ATOM     16  H10 <0> d          -1.366   2.204  -2.119  0.00  0.00     0.028 H 
ENDBRANCH   1  13
BRANCH   1  17
ATOM     17  C6  <0> d          -2.479   0.930   0.019  0.00  0.00     0.044 C 
ATOM     18  H2  <0> d          -2.417   0.309  -0.875  0.00  0.00     0.083 H 
BRANCH  17  19
ATOM     19  C7  <0> d          -3.814   1.677   0.029  0.00  0.00    -0.052 C 
ATOM     20  H11 <0> d          -3.885   2.307  -0.857  0.00  0.00     0.030 H 
ATOM     21  H12 <0> d          -4.633   0.957   0.029  0.00  0.00     0.030 H 
ATOM     22  H13 <0> d          -3.876   2.298   0.923  0.00  0.00     0.030 H 
ENDBRANCH  17  19
BRANCH  17  23
ATOM     23  O3  <0> d          -2.386   0.103   1.181  0.00  0.00    -0.395 OA
ATOM     24  H14 <0> d          -2.434   0.590   2.015  0.00  0.00     0.210 HD
ENDBRANCH  17  23
ENDBRANCH   1  17
TORSDOF 8
