REMARK  0 active torsions:
REMARK  status: ('A' for Active; 'I' for Inactive)
ROOT
ATOM      1  C1  <0> d          -0.695   3.426   0.026  0.00  0.00     0.019 A 
ATOM      2  C2  <0> d          -1.131   2.153   0.018  0.00  0.00     0.013 A 
ATOM      3  N1  <0> d          -0.016   1.351   0.009  0.00  0.00    -0.253 N 
ATOM      4  C3  <0> d           1.067   2.176   0.004  0.00  0.00     0.079 A 
ATOM      5  N2  <0> d           0.647   3.411   0.014  0.00  0.00    -0.254 NA
ATOM      6  C4  <0> d           0.002  -0.004   0.002  0.00  0.00     0.189 C 
ATOM      7  N3  <0> d           0.018  -1.140  -0.004  0.00  0.00    -0.171 NA
ATOM      8  H1  <0> d          -1.317   4.308   0.036  0.00  0.00     0.117 H 
ATOM      9  H2  <0> d          -2.160   1.826   0.021  0.00  0.00     0.115 H 
ATOM     10  H3  <0> d           2.100   1.861  -0.008  0.00  0.00     0.145 H 
ENDROOT
TORSDOF 0
