REMARK  2 active torsions:
REMARK  status: ('A' for Active; 'I' for Inactive)
REMARK    1  A    between atoms: C2_2  and  C3_3 
REMARK    2  A    between atoms: C6_7  and  N3_9 
ROOT
ATOM      1  C1  <0> d           0.018  -1.178  -0.004  0.00  0.00    -0.147 C 
ATOM      2  C2  <0> d           0.002  -0.004   0.002  0.00  0.00    -0.057 C 
ATOM      3  H1  <0> d           0.032  -2.228  -0.010  0.00  0.00     0.167 H 
ENDROOT
BRANCH   2   4
ATOM      4  C3  <0> d          -0.017   1.428   0.010  0.00  0.00     0.129 A 
ATOM      5  N2  <0> d           1.121   2.120   0.003  0.00  0.00    -0.054 NA
ATOM      6  C6  <0> d           1.104   3.444   0.005  0.00  0.00     0.721 A 
ATOM      7  N1  <0> d          -0.031   4.126   0.025  0.00  0.00    -0.075 NA
ATOM      8  C5  <0> d          -1.200   3.505   0.038  0.00  0.00     0.024 A 
ATOM      9  C4  <0> d          -1.232   2.122   0.031  0.00  0.00    -0.029 A 
ATOM     10  H3  <0> d          -2.120   4.072   0.054  0.00  0.00     0.115 H 
ATOM     11  H2  <0> d          -2.172   1.591   0.041  0.00  0.00     0.090 H 
BRANCH   6  12
ATOM     12  N3  <0> d           2.305   4.133  -0.008  0.00  0.00    -0.231 N 
ATOM     13  H4  <0> d           2.307   5.103  -0.002  0.00  0.00     0.174 HD
ATOM     14  H5  <0> d           3.143   3.646  -0.022  0.00  0.00     0.174 HD
ENDBRANCH   6  12
ENDBRANCH   2   4
TORSDOF 2
