REMARK  0 active torsions:
REMARK  status: ('A' for Active; 'I' for Inactive)
ROOT
ATOM      1  C1  <0> d          -5.587   2.698  -0.559  0.00  0.00    -0.082 A 
ATOM      2  C2  <0> d          -5.077   3.748   0.182  0.00  0.00    -0.082 A 
ATOM      3  C3  <0> d          -3.720   3.825   0.426  0.00  0.00    -0.076 A 
ATOM      4  C4  <0> d          -2.866   2.852  -0.069  0.00  0.00    -0.040 A 
ATOM      5  C5  <0> d          -3.377   1.802  -0.807  0.00  0.00    -0.051 A 
ATOM      6  C6  <0> d          -4.738   1.728  -1.052  0.00  0.00    -0.076 A 
ATOM      7  C7  <0> d          -2.255   0.878  -1.229  0.00  0.00    -0.036 C 
ATOM      8  C8  <0> d          -0.960   1.695  -1.040  0.00  0.00    -0.030 C 
ATOM      9  H1  <0> d          -0.502   2.073  -1.954  0.00  0.00     0.042 H 
ATOM     10  C9  <0> d          -1.365   2.715   0.053  0.00  0.00     0.034 C 
ATOM     11  H2  <0> d          -0.952   3.623   0.121  0.00  0.00     0.059 H 
ATOM     12  C10 <0> d          -0.925   1.675   1.064  0.00  0.00     0.136 C 
ATOM     13  O1  <0> d          -1.189   1.423   2.216  0.00  0.00    -0.297 OA
ATOM     14  C11 <0> d          -0.013   1.086   0.008  0.00  0.00    -0.004 C 
ATOM     15  H3  <0> d          -6.648   2.637  -0.751  0.00  0.00     0.083 H 
ATOM     16  H4  <0> d          -5.740   4.508   0.569  0.00  0.00     0.083 H 
ATOM     17  H5  <0> d          -3.323   4.645   1.005  0.00  0.00     0.084 H 
ATOM     18  H6  <0> d          -5.137   0.907  -1.631  0.00  0.00     0.084 H 
ATOM     19  H7  <0> d          -2.372   0.594  -2.274  0.00  0.00     0.040 H 
ATOM     20  H8  <0> d          -2.237  -0.009  -0.595  0.00  0.00     0.040 H 
ATOM     21  H9  <0> d           0.054   0.099  -0.137  0.00  0.00     0.045 H 
ATOM     22  H10 <0> d           0.986   1.523   0.001  0.00  0.00     0.045 H 
ENDROOT
TORSDOF 0
