REMARK  5 active torsions:
REMARK  status: ('A' for Active; 'I' for Inactive)
REMARK    1  A    between atoms: C1_1  and  C2_2 
REMARK    2  A    between atoms: C2_2  and  O1_3 
REMARK    3  A    between atoms: O1_3  and  C3_4 
REMARK    4  A    between atoms: C3_4  and  C4_6 
REMARK    5  A    between atoms: C4_6  and  C5_7 
ROOT
ATOM      1  C3  <0> d          -1.496  -1.832   0.006  0.00  0.00     0.264 C 
ATOM      2  O2  <0> d          -0.528  -2.555  -0.007  0.00  0.00    -0.265 OA
ENDROOT
BRANCH   1   3
ATOM      3  O1  <0> d          -1.339  -0.499   0.012  0.00  0.00    -0.322 OA
BRANCH   3   4
ATOM      4  C2  <0> d           0.002  -0.004   0.002  0.00  0.00     0.025 C 
ATOM      5  H4  <0> d           0.512  -0.356  -0.895  0.00  0.00     0.074 H 
ATOM      6  H5  <0> d           0.529  -0.365   0.885  0.00  0.00     0.074 H 
BRANCH   4   7
ATOM      7  C1  <0> d          -0.019   1.526   0.010  0.00  0.00    -0.056 C 
ATOM      8  H1  <0> d           1.004   1.903   0.003  0.00  0.00     0.030 H 
ATOM      9  H2  <0> d          -0.546   1.887  -0.873  0.00  0.00     0.030 H 
ATOM     10  H3  <0> d          -0.529   1.877   0.907  0.00  0.00     0.030 H 
ENDBRANCH   4   7
ENDBRANCH   3   4
ENDBRANCH   1   3
BRANCH   1  11
ATOM     11  C4  <0> d          -2.881  -2.427   0.017  0.00  0.00     0.070 C 
ATOM     12  H6  <0> d          -3.409  -2.103   0.913  0.00  0.00     0.056 H 
ATOM     13  H7  <0> d          -3.426  -2.093  -0.867  0.00  0.00     0.056 H 
BRANCH  11  14
ATOM     14  C5  <0> d          -2.780  -3.953   0.007  0.00  0.00     0.216 C 
ATOM     15  F1  <0> d          -4.059  -4.506   0.132  0.00  0.00    -0.214 F 
ATOM     16  F2  <0> d          -2.205  -4.375  -1.196  0.00  0.00    -0.214 F 
ATOM     17  H8  <0> d          -2.160  -4.281   0.842  0.00  0.00     0.145 H 
ENDBRANCH  11  14
ENDBRANCH   1  11
TORSDOF 5
