REMARK  3 active torsions:
REMARK  status: ('A' for Active; 'I' for Inactive)
REMARK    1  A    between atoms: C1_1  and  O1_2 
REMARK    2  A    between atoms: O1_2  and  C2_3 
REMARK    3  A    between atoms: C6_8  and  N2_9 
ROOT
ATOM      1  C2  <0> d           0.626  -0.618   1.041  0.00  0.00     0.099 A 
ATOM      2  C3  <0> d           1.209   0.124   2.063  0.00  0.00    -0.032 A 
ATOM      3  C4  <0> d           1.833  -0.535   3.102  0.00  0.00     0.007 A 
ATOM      4  N1  <0> d           1.883  -1.853   3.138  0.00  0.00    -0.246 NA
ATOM      5  C5  <0> d           1.343  -2.598   2.191  0.00  0.00     0.154 A 
ATOM      6  C6  <0> d           0.692  -2.012   1.115  0.00  0.00     0.100 A 
ATOM      7 Cl1  <0> d           1.442  -4.328   2.296  0.00  0.00    -0.060 Cl
ATOM      8  H4  <0> d           1.174   1.204   2.042  0.00  0.00     0.090 H 
ATOM      9  H5  <0> d           2.288   0.036   3.898  0.00  0.00     0.114 H 
ENDROOT
BRANCH   1  10
ATOM     10  O1  <0> d           0.002  -0.004   0.002  0.00  0.00    -0.354 OA
BRANCH  10  11
ATOM     11  C1  <0> d          -0.017   1.425   0.010  0.00  0.00     0.010 C 
ATOM     12  H1  <0> d           1.005   1.802   0.002  0.00  0.00     0.066 H 
ATOM     13  H2  <0> d          -0.544   1.786  -0.873  0.00  0.00     0.066 H 
ATOM     14  H3  <0> d          -0.527   1.776   0.907  0.00  0.00     0.066 H 
ENDBRANCH  10  11
ENDBRANCH   1  10
BRANCH   6  15
ATOM     15  N2  <0> d           0.116  -2.805   0.114  0.00  0.00    -0.394 N 
ATOM     16  H6  <0> d          -0.335  -2.388  -0.637  0.00  0.00     0.156 HD
ATOM     17  H7  <0> d           0.166  -3.772   0.173  0.00  0.00     0.156 HD
ENDBRANCH   6  15
TORSDOF 3
