REMARK  6 active torsions:
REMARK  status: ('A' for Active; 'I' for Inactive)
REMARK    1  A    between atoms: C1_1  and  C2_2 
REMARK    2  A    between atoms: C2_2  and  C3_4 
REMARK    3  A    between atoms: C3_4  and  C4_5 
REMARK    4  A    between atoms: C3_4  and  C5_6 
REMARK    5  A    between atoms: C3_4  and  C6_7 
REMARK    6  A    between atoms: C6_7  and  C7_8 
ROOT
ATOM      1  C3  <0> d           1.280   1.975   0.000  0.00  0.00     0.022 C 
ENDROOT
BRANCH   1   2
ATOM      2  C2  <0> d          -0.014   1.203   0.009  0.00  0.00     0.131 C 
ATOM      3  O1  <0> d           0.002  -0.004   0.002  0.00  0.00    -0.298 OA
BRANCH   2   4
ATOM      4  C1  <0> d          -1.329   1.939   0.019  0.00  0.00    -0.020 C 
ATOM      5  H1  <0> d          -1.616   2.097   0.964  0.00  0.00     0.037 H 
ATOM      6  H2  <0> d          -1.214   2.896  -0.490  0.00  0.00     0.037 H 
ATOM      7  H3  <0> d          -2.083   1.343  -0.495  0.00  0.00     0.037 H 
ENDBRANCH   2   4
ENDBRANCH   1   2
BRANCH   1   8
ATOM      8  C4  <0> d           1.338   2.862  -1.245  0.00  0.00    -0.062 C 
ATOM      9  H4  <0> d           0.500   3.559  -1.233  0.00  0.00     0.029 H 
ATOM     10  H5  <0> d           2.274   3.420  -1.251  0.00  0.00     0.029 H 
ATOM     11  H6  <0> d           1.280   2.239  -2.138  0.00  0.00     0.029 H 
ENDBRANCH   1   8
BRANCH   1  12
ATOM     12  C5  <0> d           1.361   2.849   1.254  0.00  0.00    -0.062 C 
ATOM     13  H7  <0> d           1.321   2.216   2.141  0.00  0.00     0.029 H 
ATOM     14  H8  <0> d           2.298   3.406   1.248  0.00  0.00     0.029 H 
ATOM     15  H9  <0> d           0.523   3.546   1.265  0.00  0.00     0.029 H 
ENDBRANCH   1  12
BRANCH   1  16
ATOM     16  C6  <0> d           2.457   0.996  -0.016  0.00  0.00     0.028 C 
ATOM     17  H10 <0> d           2.416   0.364   0.871  0.00  0.00     0.050 H 
ATOM     18  H11 <0> d           2.399   0.374  -0.909  0.00  0.00     0.050 H 
BRANCH  16  19
ATOM     19  C7  <0> d           3.751   1.768  -0.024  0.00  0.00     0.173 C 
ATOM     20  O2  <0> d           3.735   2.976  -0.018  0.00  0.00    -0.648 OA
ATOM     21  O3  <0> d           4.923   1.112  -0.039  0.00  0.00    -0.648 OA
ENDBRANCH  16  19
ENDBRANCH   1  16
TORSDOF 6
