REMARK  5 active torsions:
REMARK  status: ('A' for Active; 'I' for Inactive)
REMARK    1  A    between atoms: C1_1  and  C2_2 
REMARK       I    between atoms: C2_2  and  N1_4 
REMARK    2  A    between atoms: N1_4  and  C3_5 
REMARK    3  A    between atoms: C3_5  and  C4_6 
REMARK    4  A    between atoms: C3_5  and  C5_7 
REMARK    5  A    between atoms: C3_5  and  C6_8 
ROOT
ATOM      1  C3  <0> d          -1.290   1.681   0.017  0.00  0.00     0.022 C 
ENDROOT
BRANCH   1   2
ATOM      2  N1  <0> d          -0.011   0.966   0.007  0.00  0.00    -0.353 N 
ATOM      3  C2  <0> d           1.147   1.655  -0.000  0.00  0.00     0.214 C 
ATOM      4  O1  <0> d           1.130   2.868   0.007  0.00  0.00    -0.274 OA
ATOM      5  H4  <0> d           0.002  -0.004   0.002  0.00  0.00     0.163 HD
BRANCH   3   6
ATOM      6  C1  <0> d           2.462   0.920  -0.017  0.00  0.00    -0.003 C 
ATOM      7  H1  <0> d           2.277  -0.154  -0.021  0.00  0.00     0.040 H 
ATOM      8  H2  <0> d           3.021   1.196  -0.910  0.00  0.00     0.040 H 
ATOM      9  H3  <0> d           3.038   1.186   0.870  0.00  0.00     0.040 H 
ENDBRANCH   3   6
ENDBRANCH   1   2
BRANCH   1  10
ATOM     10  C4  <0> d          -1.389   2.566  -1.227  0.00  0.00    -0.054 C 
ATOM     11  H5  <0> d          -1.327   1.945  -2.120  0.00  0.00     0.030 H 
ATOM     12  H6  <0> d          -2.340   3.098  -1.219  0.00  0.00     0.030 H 
ATOM     13  H7  <0> d          -0.570   3.286  -1.227  0.00  0.00     0.030 H 
ENDBRANCH   1  10
BRANCH   1  14
ATOM     14  C5  <0> d          -2.439   0.671   0.017  0.00  0.00    -0.054 C 
ATOM     15  H8  <0> d          -2.369   0.040   0.903  0.00  0.00     0.030 H 
ATOM     16  H9  <0> d          -3.390   1.203   0.025  0.00  0.00     0.030 H 
ATOM     17  H10 <0> d          -2.377   0.050  -0.876  0.00  0.00     0.030 H 
ENDBRANCH   1  14
BRANCH   1  18
ATOM     18  C6  <0> d          -1.377   2.553   1.272  0.00  0.00    -0.054 C 
ATOM     19  H11 <0> d          -0.558   3.272   1.272  0.00  0.00     0.030 H 
ATOM     20  H12 <0> d          -2.328   3.085   1.279  0.00  0.00     0.030 H 
ATOM     21  H13 <0> d          -1.306   1.922   2.158  0.00  0.00     0.030 H 
ENDBRANCH   1  18
TORSDOF 5
