REMARK  4 active torsions:
REMARK  status: ('A' for Active; 'I' for Inactive)
REMARK    1  A    between atoms: C3_3  and  C7_9 
REMARK    2  A    between atoms: C4_4  and  N2_8 
REMARK    3  A    between atoms: C5_5  and  N1_7 
REMARK    4  A    between atoms: C7_9  and  O1_10 
ROOT
ATOM      1  C1  <0> d          -0.242   5.016   0.031  0.00  0.00    -0.080 A 
ATOM      2  C2  <0> d          -0.109   3.640   0.023  0.00  0.00    -0.072 A 
ATOM      3  C3  <0> d           1.147   3.062   0.008  0.00  0.00    -0.006 A 
ATOM      4  C4  <0> d           2.279   3.864   0.007  0.00  0.00     0.060 A 
ATOM      5  C5  <0> d           2.145   5.252   0.009  0.00  0.00     0.052 A 
ATOM      6  C6  <0> d           0.881   5.823   0.024  0.00  0.00    -0.055 A 
ATOM      7  H1  <0> d          -1.225   5.462   0.043  0.00  0.00     0.083 H 
ATOM      8  H2  <0> d          -0.989   3.014   0.027  0.00  0.00     0.084 H 
ATOM      9  H3  <0> d           0.774   6.897   0.031  0.00  0.00     0.087 H 
ENDROOT
BRANCH   3  10
ATOM     10  C7  <0> d           1.286   1.562  -0.002  0.00  0.00     0.043 C 
ATOM     11  H8  <0> d           1.840   1.243   0.881  0.00  0.00     0.081 H 
ATOM     12  H9  <0> d           1.823   1.252  -0.899  0.00  0.00     0.081 H 
BRANCH  10  13
ATOM     13  O1  <0> d          -0.011   0.963   0.007  0.00  0.00    -0.396 OA
ATOM     14  H10 <0> d           0.002  -0.004   0.002  0.00  0.00     0.209 HD
ENDBRANCH  10  13
ENDBRANCH   3  10
BRANCH   4  15
ATOM     15  N2  <0> d           3.552   3.281  -0.002  0.00  0.00    -0.397 N 
ATOM     16  H6  <0> d           3.643   2.315  -0.008  0.00  0.00     0.156 HD
ATOM     17  H7  <0> d           4.342   3.843  -0.003  0.00  0.00     0.156 HD
ENDBRANCH   4  15
BRANCH   5  18
ATOM     18  N1  <0> d           3.283   6.067   0.002  0.00  0.00    -0.397 N 
ATOM     19  H4  <0> d           3.189   7.032   0.008  0.00  0.00     0.156 HD
ATOM     20  H5  <0> d           4.167   5.666  -0.008  0.00  0.00     0.156 HD
ENDBRANCH   5  18
TORSDOF 4
