REMARK  2 active torsions:
REMARK  status: ('A' for Active; 'I' for Inactive)
REMARK    1  A    between atoms: C1_1  and  C2_2 
REMARK    2  A    between atoms: C3_3  and  N1_10 
ROOT
ATOM      1  C2  <0> d          -1.229   2.072   0.019  0.00  0.00    -0.014 A 
ATOM      2  C3  <0> d          -0.017   1.393   0.010  0.00  0.00     0.036 A 
ATOM      3  C4  <0> d           1.175   2.104   0.002  0.00  0.00    -0.020 A 
ATOM      4  C5  <0> d           1.154   3.487   0.010  0.00  0.00     0.120 A 
ATOM      5  C6  <0> d          -0.056   4.162   0.025  0.00  0.00    -0.024 A 
ATOM      6  C7  <0> d          -1.245   3.454   0.032  0.00  0.00     0.045 A 
ATOM      7 Cl1  <0> d          -2.759   4.303   0.050  0.00  0.00    -0.084 Cl
ATOM      8  F1  <0> d           2.313   4.181   0.003  0.00  0.00    -0.206 F 
ATOM      9  H4  <0> d           2.119   1.579  -0.010  0.00  0.00     0.091 H 
ATOM     10  H5  <0> d          -0.071   5.241   0.031  0.00  0.00     0.090 H 
ENDROOT
BRANCH   1  11
ATOM     11  C1  <0> d          -2.524   1.302   0.021  0.00  0.00    -0.048 C 
ATOM     12  H1  <0> d          -2.832   1.111   1.049  0.00  0.00     0.033 H 
ATOM     13  H2  <0> d          -3.294   1.885  -0.486  0.00  0.00     0.033 H 
ATOM     14  H3  <0> d          -2.385   0.354  -0.499  0.00  0.00     0.033 H 
ENDBRANCH   1  11
BRANCH   2  15
ATOM     15  N1  <0> d           0.002  -0.004   0.002  0.00  0.00    -0.399 N 
ATOM     16  H6  <0> d           0.849  -0.478  -0.009  0.00  0.00     0.156 HD
ATOM     17  H7  <0> d          -0.831  -0.500   0.007  0.00  0.00     0.156 HD
ENDBRANCH   2  15
TORSDOF 2
