REMARK  2 active torsions:
REMARK  status: ('A' for Active; 'I' for Inactive)
REMARK    1  A    between atoms: C2_4  and  N4_8 
REMARK    2  A    between atoms: C3_5  and  N3_7 
ROOT
ATOM      1  C1  <0> d          -0.018   1.511   0.010  0.00  0.00     0.040 A 
ATOM      2  N1  <0> d           1.217   1.887   0.001  0.00  0.00    -0.187 NA
ATOM      3  N2  <0> d           2.101   0.813  -0.014  0.00  0.00    -0.265 N 
ATOM      4  C2  <0> d           1.482  -0.335  -0.014  0.00  0.00     0.130 A 
ATOM      5  C3  <0> d           0.002  -0.004   0.002  0.00  0.00     0.218 A 
ATOM      6  H1  <0> d          -0.487  -0.390  -0.892  0.00  0.00     0.109 H 
ATOM      7  H2  <0> d          -0.890   2.149   0.026  0.00  0.00     0.114 H 
ATOM      8  H7  <0> d           3.066   0.907  -0.023  0.00  0.00     0.190 HD
ENDROOT
BRANCH   5   9
ATOM      9  N3  <0> d          -0.635  -0.537   1.214  0.00  0.00     0.095 N 
ATOM     10  H3  <0> d          -1.602  -0.257   1.267  0.00  0.00     0.314 HD
ATOM     11  H4  <0> d          -0.546  -1.541   1.257  0.00  0.00     0.314 HD
ENDBRANCH   5   9
BRANCH   4  12
ATOM     12  N4  <0> d           2.050  -1.579  -0.027  0.00  0.00    -0.386 N 
ATOM     13  H5  <0> d           3.015  -1.672  -0.037  0.00  0.00     0.157 HD
ATOM     14  H6  <0> d           1.487  -2.369  -0.026  0.00  0.00     0.157 HD
ENDBRANCH   4  12
TORSDOF 2
