REMARK  2 active torsions:
REMARK  status: ('A' for Active; 'I' for Inactive)
REMARK    1  A    between atoms: C2_2  and  C3_3 
REMARK    2  A    between atoms: C3_3  and  C4_4 
ROOT
ATOM      1  C4  <0> d          -1.889   5.398   0.047  0.00  0.00     0.016 A 
ATOM      2  H1  <0> d          -2.252   5.916  -0.841  0.00  0.00     0.073 H 
ATOM      3  C5  <0> d          -0.353   5.321   0.033  0.00  0.00    -0.020 A 
ATOM      4  C6  <0> d          -0.048   3.840   0.022  0.00  0.00    -0.030 A 
ATOM      5  C7  <0> d           1.157   3.163   0.007  0.00  0.00    -0.075 A 
ATOM      6  C8  <0> d           1.177   1.781   0.000  0.00  0.00    -0.082 A 
ATOM      7  C9  <0> d          -0.013   1.076   0.008  0.00  0.00    -0.081 A 
ATOM      8  C10 <0> d          -1.217   1.746   0.017  0.00  0.00    -0.057 A 
ATOM      9  C11 <0> d          -1.245   3.143   0.030  0.00  0.00     0.034 A 
ATOM     10  N1  <0> d          -2.343   4.005   0.044  0.00  0.00    -0.384 N 
ATOM     11  H7  <0> d           0.060   5.788   0.926  0.00  0.00     0.043 H 
ATOM     12  H8  <0> d           0.043   5.797  -0.864  0.00  0.00     0.043 H 
ATOM     13  H9  <0> d           2.085   3.716   0.001  0.00  0.00     0.084 H 
ATOM     14  H10 <0> d           2.119   1.253  -0.011  0.00  0.00     0.083 H 
ATOM     15  H11 <0> d           0.002  -0.004   0.002  0.00  0.00     0.083 H 
ATOM     16  H12 <0> d          -2.142   1.190   0.019  0.00  0.00     0.086 H 
ATOM     17  H13 <0> d          -3.271   3.723   0.052  0.00  0.00     0.160 HD
ENDROOT
BRANCH   1  18
ATOM     18  C3  <0> d          -2.372   6.111   1.311  0.00  0.00    -0.032 C 
ATOM     19  H5  <0> d          -2.069   5.541   2.189  0.00  0.00     0.041 H 
ATOM     20  H6  <0> d          -1.934   7.108   1.356  0.00  0.00     0.041 H 
BRANCH  18  21
ATOM     21  C2  <0> d          -3.875   6.225   1.281  0.00  0.00    -0.110 C 
ATOM     22  C1  <0> d          -4.587   5.760   2.277  0.00  0.00    -0.125 C 
ATOM     23  H2  <0> d          -5.664   5.841   2.255  0.00  0.00     0.066 H 
ATOM     24  H3  <0> d          -4.098   5.296   3.121  0.00  0.00     0.066 H 
ATOM     25  H4  <0> d          -4.364   6.689   0.437  0.00  0.00     0.075 H 
ENDBRANCH  18  21
ENDBRANCH   1  18
TORSDOF 2
