REMARK  6 active torsions:
REMARK  status: ('A' for Active; 'I' for Inactive)
REMARK    1  A    between atoms: C1_1  and  O1_2 
REMARK    2  A    between atoms: O1_2  and  C2_3 
REMARK    3  A    between atoms: C2_3  and  C3_5 
REMARK    4  A    between atoms: C3_5  and  C4_7 
REMARK    5  A    between atoms: C3_5  and  N2_11 
REMARK    6  A    between atoms: C4_7  and  C5_8 
REMARK       I    between atoms: C5_8  and  N1_10 
ROOT
ATOM      1  C3  <0> d          -2.657   3.621   0.034  0.00  0.00     0.220 C 
ATOM      2  H1  <0> d          -3.229   3.176  -0.794  0.00  0.00     0.104 H 
ENDROOT
BRANCH   1   3
ATOM      3  C2  <0> d          -2.680   5.123  -0.081  0.00  0.00     0.292 C 
ATOM      4  O2  <0> d          -2.837   5.803   0.905  0.00  0.00    -0.263 OA
BRANCH   3   5
ATOM      5  O1  <0> d          -2.526   5.707  -1.280  0.00  0.00    -0.325 OA
BRANCH   5   6
ATOM      6  C1  <0> d          -2.558   7.158  -1.316  0.00  0.00     0.013 C 
ATOM      7  H2  <0> d          -2.421   7.502  -2.352  0.00  0.00     0.067 H 
ATOM      8  H3  <0> d          -1.750   7.559  -0.687  0.00  0.00     0.067 H 
ATOM      9  H4  <0> d          -3.528   7.512  -0.938  0.00  0.00     0.067 H 
ENDBRANCH   5   6
ENDBRANCH   3   5
ENDBRANCH   1   3
BRANCH   1  10
ATOM     10  C4  <0> d          -1.208   3.131   0.025  0.00  0.00     0.046 C 
ATOM     11  H5  <0> d          -0.698   3.509  -0.874  0.00  0.00     0.051 H 
ATOM     12  H6  <0> d          -0.690   3.499   0.922  0.00  0.00     0.051 H 
BRANCH  10  13
ATOM     13  C5  <0> d          -1.187   1.624   0.017  0.00  0.00     0.217 C 
ATOM     14  O3  <0> d          -2.229   1.003   0.018  0.00  0.00    -0.274 OA
ATOM     15  N1  <0> d          -0.011   0.966   0.007  0.00  0.00    -0.370 N 
ATOM     16  H7  <0> d           0.004  -0.134   0.001  0.00  0.00     0.159 HD
ATOM     17  H8  <0> d           0.934   1.529   0.006  0.00  0.00     0.159 HD
ENDBRANCH  10  13
ENDBRANCH   1  10
BRANCH   1  18
ATOM     18  N2  <0> d          -3.303   3.217   1.290  0.00  0.00     0.093 N 
ATOM     19  H9  <0> d          -3.286   2.120   1.375  0.00  0.00     0.313 HD
ATOM     20  H10 <0> d          -2.760   3.658   2.140  0.00  0.00     0.313 HD
ENDBRANCH   1  18
TORSDOF 6
