REMARK  1 active torsions:
REMARK  status: ('A' for Active; 'I' for Inactive)
REMARK    1  A    between atoms: C5_5  and  C7_9 
ROOT
ATOM      1  C7  <0> d           4.174  -1.932  -0.048  0.00  0.00     0.042 C 
ATOM      2  C8  <0> d           4.200  -2.429  -1.433  0.00  0.00     0.063 C 
ATOM      3  N2  <0> d           4.220  -2.812  -2.502  0.00  0.00    -0.197 NA
ATOM      4  H5  <0> d           5.176  -1.986   0.377  0.00  0.00     0.062 H 
ATOM      5  H6  <0> d           3.494  -2.544   0.545  0.00  0.00     0.062 H 
ENDROOT
BRANCH   1   6
ATOM      6  C5  <0> d           3.700  -0.501  -0.036  0.00  0.00     0.001 A 
ATOM      7  C4  <0> d           2.308  -0.045  -0.020  0.00  0.00     0.091 A 
ATOM      8  C3  <0> d           2.365   1.361  -0.013  0.00  0.00     0.061 A 
ATOM      9  N3  <0> d           1.136  -0.672  -0.012  0.00  0.00    -0.258 NA
ATOM     10  C2  <0> d           1.176   2.083   0.002  0.00  0.00    -0.053 A 
ATOM     11  N1  <0> d           3.695   1.718  -0.024  0.00  0.00    -0.363 N 
ATOM     12  C1  <0> d          -0.017   1.382   0.010  0.00  0.00    -0.064 A 
ATOM     13  H3  <0> d           1.183   3.163   0.007  0.00  0.00     0.087 H 
ATOM     14  C9  <0> d           0.002  -0.004   0.002  0.00  0.00     0.003 A 
ATOM     15  H2  <0> d          -0.958   1.912   0.026  0.00  0.00     0.085 H 
ATOM     16  H7  <0> d          -0.932  -0.546   0.008  0.00  0.00     0.114 H 
ATOM     17  C6  <0> d           4.475   0.596  -0.037  0.00  0.00    -0.013 A 
ATOM     18  H1  <0> d           4.027   2.629  -0.023  0.00  0.00     0.165 HD
ATOM     19  H4  <0> d           5.555   0.593  -0.048  0.00  0.00     0.112 H 
ENDBRANCH   1   6
TORSDOF 1
