REMARK  7 active torsions:
REMARK  status: ('A' for Active; 'I' for Inactive)
REMARK    1  A    between atoms: C1_1  and  C2_2 
REMARK    2  A    between atoms: C2_2  and  O1_3 
REMARK    3  A    between atoms: O1_3  and  C3_4 
REMARK    4  A    between atoms: C3_4  and  C4_6 
REMARK    5  A    between atoms: C3_4  and  C5_7 
REMARK       I    between atoms: C5_7  and  N1_9 
REMARK    6  A    between atoms: N1_9  and  C6_10 
REMARK    7  A    between atoms: N1_9  and  C7_11 
ROOT
ATOM      1  C3  <0> d          -1.432  -1.925   0.005  0.00  0.00     0.112 C 
ATOM      2  H1  <0> d          -0.573  -2.343  -0.519  0.00  0.00     0.097 H 
ENDROOT
BRANCH   1   3
ATOM      3  O1  <0> d          -1.339  -0.499   0.012  0.00  0.00    -0.377 OA
BRANCH   3   4
ATOM      4  C2  <0> d           0.002  -0.004   0.002  0.00  0.00     0.017 C 
ATOM      5  H5  <0> d           0.512  -0.356  -0.895  0.00  0.00     0.073 H 
ATOM      6  H6  <0> d           0.529  -0.365   0.885  0.00  0.00     0.073 H 
BRANCH   4   7
ATOM      7  C1  <0> d          -0.019   1.526   0.010  0.00  0.00    -0.056 C 
ATOM      8  H2  <0> d           1.004   1.903   0.003  0.00  0.00     0.030 H 
ATOM      9  H3  <0> d          -0.546   1.887  -0.873  0.00  0.00     0.030 H 
ATOM     10  H4  <0> d          -0.529   1.877   0.907  0.00  0.00     0.030 H 
ENDBRANCH   4   7
ENDBRANCH   3   4
ENDBRANCH   1   3
BRANCH   1  11
ATOM     11  C4  <0> d          -1.452  -2.441   1.445  0.00  0.00    -0.044 C 
ATOM     12  H7  <0> d          -2.311  -2.023   1.970  0.00  0.00     0.031 H 
ATOM     13  H8  <0> d          -1.523  -3.529   1.440  0.00  0.00     0.031 H 
ATOM     14  H9  <0> d          -0.535  -2.140   1.952  0.00  0.00     0.031 H 
ENDBRANCH   1  11
BRANCH   1  15
ATOM     15  C5  <0> d          -2.700  -2.342  -0.695  0.00  0.00     0.247 C 
ATOM     16  O2  <0> d          -3.449  -1.500  -1.145  0.00  0.00    -0.271 OA
ATOM     17  N1  <0> d          -3.000  -3.649  -0.823  0.00  0.00    -0.359 N 
BRANCH  17  18
ATOM     18  C6  <0> d          -4.232  -4.055  -1.504  0.00  0.00    -0.017 C 
ATOM     19  H10 <0> d          -4.034  -4.184  -2.567  0.00  0.00     0.056 H 
ATOM     20  H11 <0> d          -4.587  -4.996  -1.083  0.00  0.00     0.056 H 
ATOM     21  H12 <0> d          -4.993  -3.286  -1.367  0.00  0.00     0.056 H 
ENDBRANCH  17  18
BRANCH  17  22
ATOM     22  C7  <0> d          -2.095  -4.665  -0.280  0.00  0.00    -0.017 C 
ATOM     23  H13 <0> d          -2.375  -4.888   0.750  0.00  0.00     0.056 H 
ATOM     24  H14 <0> d          -2.165  -5.572  -0.880  0.00  0.00     0.056 H 
ATOM     25  H15 <0> d          -1.071  -4.291  -0.305  0.00  0.00     0.056 H 
ENDBRANCH  17  22
ENDBRANCH   1  15
TORSDOF 7
