REMARK  4 active torsions:
REMARK  status: ('A' for Active; 'I' for Inactive)
REMARK    1  A    between atoms: C1_1  and  C2_2 
REMARK    2  A    between atoms: C2_2  and  C3_3 
REMARK    3  A    between atoms: C3_3  and  C4_5 
REMARK    4  A    between atoms: C9_10  and  C10_11 
ROOT
ATOM      1  C4  <0> d          -1.700  -1.990  -0.233  0.00  0.00     0.015 A 
ATOM      2  C5  <0> d          -0.634  -2.887  -0.357  0.00  0.00    -0.069 A 
ATOM      3  C6  <0> d          -0.836  -4.230  -0.117  0.00  0.00    -0.082 A 
ATOM      4  C7  <0> d          -2.092  -4.692   0.235  0.00  0.00    -0.082 A 
ATOM      5  C8  <0> d          -3.153  -3.812   0.354  0.00  0.00    -0.076 A 
ATOM      6  C9  <0> d          -2.966  -2.465   0.122  0.00  0.00    -0.048 A 
ATOM      7  H6  <0> d           0.346  -2.529  -0.636  0.00  0.00     0.085 H 
ATOM      8  H7  <0> d          -0.013  -4.923  -0.208  0.00  0.00     0.083 H 
ATOM      9  H8  <0> d          -2.245  -5.746   0.417  0.00  0.00     0.083 H 
ATOM     10  H9  <0> d          -4.130  -4.180   0.628  0.00  0.00     0.084 H 
ENDROOT
BRANCH   1  11
ATOM     11  C3  <0> d          -1.491  -0.555  -0.482  0.00  0.00     0.159 C 
ATOM     12  O1  <0> d          -2.437   0.204  -0.482  0.00  0.00    -0.292 OA
BRANCH  11  13
ATOM     13  C2  <0> d          -0.102  -0.028  -0.737  0.00  0.00    -0.008 C 
ATOM     14  H4  <0> d           0.279  -0.472  -1.548  0.00  0.00     0.044 H 
ATOM     15  H5  <0> d           0.530  -0.241   0.125  0.00  0.00     0.044 H 
BRANCH  13  16
ATOM     16  C1  <0> d          -0.164   1.484  -0.963  0.00  0.00    -0.070 C 
ATOM     17  H1  <0> d           0.840   1.865  -1.148  0.00  0.00     0.028 H 
ATOM     18  H2  <0> d          -0.797   1.696  -1.825  0.00  0.00     0.028 H 
ATOM     19  H3  <0> d          -0.580   1.967  -0.079  0.00  0.00     0.028 H 
ENDBRANCH  13  16
ENDBRANCH  11  13
ENDBRANCH   1  11
BRANCH   6  20
ATOM     20  C10 <0> d          -4.123  -1.508   0.252  0.00  0.00    -0.050 C 
ATOM     21  H10 <0> d          -4.556  -1.327  -0.731  0.00  0.00     0.033 H 
ATOM     22  H11 <0> d          -4.879  -1.940   0.908  0.00  0.00     0.033 H 
ATOM     23  H12 <0> d          -3.770  -0.567   0.673  0.00  0.00     0.033 H 
ENDBRANCH   6  20
TORSDOF 4
