REMARK  2 active torsions:
REMARK  status: ('A' for Active; 'I' for Inactive)
REMARK    1  A    between atoms: C3_3  and  C6_8 
REMARK    2  A    between atoms: C6_8  and  O1_9 
ROOT
ATOM      1  C1  <0> d          -1.871   1.450   3.291  0.00  0.00    -0.042 A 
ATOM      2  C2  <0> d          -1.229   0.993   2.151  0.00  0.00    -0.054 A 
ATOM      3  C3  <0> d          -0.723   1.911   1.250  0.00  0.00     0.057 A 
ATOM      4  N1  <0> d          -0.854   3.206   1.459  0.00  0.00    -0.260 NA
ATOM      5  C4  <0> d          -1.464   3.678   2.528  0.00  0.00     0.040 A 
ATOM      6  C5  <0> d          -1.991   2.820   3.478  0.00  0.00     0.133 A 
ATOM      7  F1  <0> d          -2.614   3.310   4.572  0.00  0.00    -0.205 F 
ATOM      8  H1  <0> d          -2.273   0.756   4.015  0.00  0.00     0.088 H 
ATOM      9  H2  <0> d          -1.121  -0.066   1.971  0.00  0.00     0.086 H 
ATOM     10  H3  <0> d          -1.552   4.746   2.665  0.00  0.00     0.119 H 
ENDROOT
BRANCH   3  11
ATOM     11  C6  <0> d          -0.017   1.425   0.010  0.00  0.00     0.056 C 
ATOM     12  H4  <0> d           1.005   1.802   0.002  0.00  0.00     0.083 H 
ATOM     13  H5  <0> d          -0.544   1.786  -0.873  0.00  0.00     0.083 H 
BRANCH  11  14
ATOM     14  O1  <0> d           0.002  -0.004   0.002  0.00  0.00    -0.395 OA
ATOM     15  H6  <0> d           0.442  -0.387  -0.769  0.00  0.00     0.209 HD
ENDBRANCH  11  14
ENDBRANCH   3  11
TORSDOF 2
