REMARK  0 active torsions:
REMARK  status: ('A' for Active; 'I' for Inactive)
ROOT
ATOM      1  C1  <0> d          -0.016   1.322   0.009  0.00  0.00     0.033 A 
ATOM      2  C2  <0> d          -1.239   1.970   0.019  0.00  0.00     0.100 A 
ATOM      3  C3  <0> d          -2.408   1.197   0.020  0.00  0.00     0.161 A 
ATOM      4  N1  <0> d          -2.303  -0.124   0.012  0.00  0.00    -0.222 NA
ATOM      5  C4  <0> d          -1.117  -0.701   0.003  0.00  0.00     0.088 A 
ATOM      6  N2  <0> d           0.002  -0.004   0.002  0.00  0.00    -0.252 NA
ATOM      7  N3  <0> d          -3.471   2.081   0.030  0.00  0.00    -0.291 N 
ATOM      8  C5  <0> d          -2.985   3.337   0.034  0.00  0.00     0.326 A 
ATOM      9  N4  <0> d          -1.637   3.302   0.028  0.00  0.00    -0.304 N 
ATOM     10  H1  <0> d          -1.048   4.072   0.030  0.00  0.00     0.171 HD
ATOM     11  O1  <0> d          -3.659   4.350   0.043  0.00  0.00    -0.247 OA
ATOM     12  H2  <0> d           0.906   1.885   0.004  0.00  0.00     0.118 H 
ATOM     13  H3  <0> d          -1.061  -1.779  -0.003  0.00  0.00     0.146 H 
ATOM     14  H4  <0> d          -4.410   1.838   0.033  0.00  0.00     0.172 HD
ENDROOT
TORSDOF 0
