REMARK  1 active torsions:
REMARK  status: ('A' for Active; 'I' for Inactive)
REMARK    1  A    between atoms: C1_1  and  C2_2 
ROOT
ATOM      1  C2  <0> d           0.002  -0.004   0.002  0.00  0.00    -0.040 A 
ATOM      2  C3  <0> d           0.004  -0.600  -1.260  0.00  0.00    -0.072 A 
ATOM      3  C4  <0> d           0.020  -1.928  -1.576  0.00  0.00    -0.034 A 
ATOM      4  C5  <0> d           0.040  -3.035  -0.704  0.00  0.00     0.172 A 
ATOM      5  O1  <0> d           0.052  -4.136  -1.239  0.00  0.00    -0.289 OA
ATOM      6  C6  <0> d           0.047  -3.037   0.708  0.00  0.00    -0.033 A 
ATOM      7  C7  <0> d           0.037  -1.969   1.555  0.00  0.00    -0.058 A 
ATOM      8  C8  <0> d           0.022  -0.606   1.242  0.00  0.00     0.040 A 
ATOM      9 Cl1  <0> d           0.021   0.476   2.600  0.00  0.00    -0.084 Cl
ATOM     10  H4  <0> d          -0.010   0.081  -2.099  0.00  0.00     0.084 H 
ATOM     11  H5  <0> d           0.018  -2.160  -2.631  0.00  0.00     0.089 H 
ATOM     12  H6  <0> d           0.063  -4.010   1.177  0.00  0.00     0.089 H 
ATOM     13  H7  <0> d           0.046  -2.207   2.609  0.00  0.00     0.086 H 
ENDROOT
BRANCH   1  14
ATOM     14  C1  <0> d          -0.018   1.503   0.010  0.00  0.00    -0.050 C 
ATOM     15  H1  <0> d           1.004   1.880   0.003  0.00  0.00     0.033 H 
ATOM     16  H2  <0> d          -0.545   1.864  -0.873  0.00  0.00     0.033 H 
ATOM     17  H3  <0> d          -0.529   1.854   0.907  0.00  0.00     0.033 H 
ENDBRANCH   1  14
TORSDOF 1
