REMARK  1 active torsions:
REMARK  status: ('A' for Active; 'I' for Inactive)
REMARK    1  A    between atoms: C5_5  and  N1_7 
ROOT
ATOM      1  C1  <0> d          -0.017   1.377   0.010  0.00  0.00    -0.081 A 
ATOM      2  C2  <0> d           1.170   2.087   0.002  0.00  0.00    -0.081 A 
ATOM      3  C3  <0> d           2.380   1.417  -0.013  0.00  0.00    -0.060 A 
ATOM      4  C4  <0> d           2.406   0.035  -0.022  0.00  0.00     0.060 A 
ATOM      5  C5  <0> d           1.215  -0.681  -0.014  0.00  0.00     0.047 A 
ATOM      6  C6  <0> d           0.002  -0.004   0.002  0.00  0.00    -0.056 A 
ATOM      7 Cl1  <0> d           3.925  -0.805  -0.042  0.00  0.00    -0.082 Cl
ATOM      8  H1  <0> d          -0.960   1.903   0.026  0.00  0.00     0.083 H 
ATOM      9  H2  <0> d           1.152   3.166   0.008  0.00  0.00     0.083 H 
ATOM     10  H3  <0> d           3.305   1.974  -0.020  0.00  0.00     0.086 H 
ATOM     11  H4  <0> d          -0.925  -0.557   0.008  0.00  0.00     0.087 H 
ENDROOT
BRANCH   5  12
ATOM     12  N1  <0> d           1.237  -2.078  -0.022  0.00  0.00    -0.398 N 
ATOM     13  H5  <0> d           2.085  -2.549  -0.034  0.00  0.00     0.156 HD
ATOM     14  H6  <0> d           0.405  -2.576  -0.017  0.00  0.00     0.156 HD
ENDBRANCH   5  12
TORSDOF 1
