REMARK  3 active torsions:
REMARK  status: ('A' for Active; 'I' for Inactive)
REMARK    1  A    between atoms: C1_1  and  N1_2 
REMARK    2  A    between atoms: C2_3  and  O1_8 
REMARK    3  A    between atoms: O1_8  and  C4_9 
ROOT
ATOM      1  N1  <0> d           0.002  -0.004   0.002  0.00  0.00    -0.233 N 
ATOM      2  C2  <0> d           0.008  -0.806  -1.082  0.00  0.00     0.267 A 
ATOM      3  N2  <0> d           0.028  -2.051  -0.663  0.00  0.00    -0.175 NA
ATOM      4  C3  <0> d           0.035  -2.078   0.671  0.00  0.00     0.245 A 
ATOM      5  N3  <0> d           0.025  -0.851   1.122  0.00  0.00    -0.136 NA
ATOM      6 Cl1  <0> d           0.059  -3.511   1.650  0.00  0.00    -0.040 Cl
ENDROOT
BRANCH   2   7
ATOM      7  O1  <0> d          -0.004  -0.399  -2.373  0.00  0.00    -0.324 OA
BRANCH   7   8
ATOM      8  C4  <0> d           0.005  -1.419  -3.375  0.00  0.00     0.013 C 
ATOM      9  H4  <0> d          -0.006  -0.959  -4.362  0.00  0.00     0.067 H 
ATOM     10  H5  <0> d           0.905  -2.025  -3.267  0.00  0.00     0.067 H 
ATOM     11  H6  <0> d          -0.875  -2.051  -3.258  0.00  0.00     0.067 H 
ENDBRANCH   7   8
ENDBRANCH   2   7
BRANCH   1  12
ATOM     12  C1  <0> d          -0.018   1.461   0.010  0.00  0.00     0.006 C 
ATOM     13  H1  <0> d           1.005   1.838   0.002  0.00  0.00     0.059 H 
ATOM     14  H2  <0> d          -0.545   1.822  -0.873  0.00  0.00     0.059 H 
ATOM     15  H3  <0> d          -0.528   1.812   0.907  0.00  0.00     0.059 H 
ENDBRANCH   1  12
TORSDOF 3
