REMARK  3 active torsions:
REMARK  status: ('A' for Active; 'I' for Inactive)
REMARK    1  A    between atoms: C1_1  and  C2_2 
REMARK    2  A    between atoms: C2_2  and  C3_4 
REMARK    3  A    between atoms: C2_2  and  O1_12 
ROOT
ATOM      1  C3  <0> d          -1.219   1.750   0.017  0.00  0.00    -0.024 A 
ATOM      2  C4  <0> d          -0.013   1.076   0.008  0.00  0.00    -0.037 A 
ATOM      3  C5  <0> d           1.177   1.784   0.000  0.00  0.00     0.119 A 
ATOM      4  C6  <0> d           1.158   3.168   0.008  0.00  0.00    -0.009 A 
ATOM      5  C7  <0> d          -0.051   3.843   0.022  0.00  0.00     0.119 A 
ATOM      6  C8  <0> d          -1.239   3.132   0.030  0.00  0.00    -0.037 A 
ATOM      7  F1  <0> d          -0.071   5.193   0.029  0.00  0.00    -0.206 F 
ATOM      8  F2  <0> d           2.356   1.125  -0.014  0.00  0.00    -0.206 F 
ATOM      9  H5  <0> d           0.002  -0.004   0.002  0.00  0.00     0.089 H 
ATOM     10  H6  <0> d           2.086   3.721   0.001  0.00  0.00     0.092 H 
ATOM     11  H7  <0> d          -2.182   3.658   0.041  0.00  0.00     0.089 H 
ENDROOT
BRANCH   1  12
ATOM     12  C2  <0> d          -2.513   0.978   0.020  0.00  0.00     0.057 C 
ATOM     13  H1  <0> d          -2.332  -0.035  -0.338  0.00  0.00     0.089 H 
BRANCH  12  14
ATOM     14  C1  <0> d          -3.072   0.925   1.443  0.00  0.00    -0.049 C 
ATOM     15  H2  <0> d          -3.253   1.938   1.800  0.00  0.00     0.031 H 
ATOM     16  H3  <0> d          -4.009   0.366   1.445  0.00  0.00     0.031 H 
ATOM     17  H4  <0> d          -2.354   0.431   2.097  0.00  0.00     0.031 H 
ENDBRANCH  12  14
BRANCH  12  18
ATOM     18  O1  <0> d          -3.455   1.625  -0.838  0.00  0.00    -0.391 OA
ATOM     19  H8  <0> d          -3.664   2.533  -0.580  0.00  0.00     0.210 HD
ENDBRANCH  12  18
ENDBRANCH   1  12
TORSDOF 3
