REMARK  6 active torsions:
REMARK  status: ('A' for Active; 'I' for Inactive)
REMARK    1  A    between atoms: C1_1  and  C2_2 
REMARK    2  A    between atoms: C2_2  and  C3_3 
REMARK    3  A    between atoms: C2_2  and  C4_5 
REMARK    4  A    between atoms: C2_2  and  O3_7 
REMARK    5  A    between atoms: C3_3  and  O1_4 
REMARK    6  A    between atoms: C4_5  and  O2_6 
ROOT
ATOM      1  C2  <0> d          -0.017   1.425   0.010  0.00  0.00     0.096 C 
ENDROOT
BRANCH   1   2
ATOM      2  C1  <0> d          -0.733   1.918   1.269  0.00  0.00    -0.044 C 
ATOM      3  H1  <0> d          -0.206   1.557   2.152  0.00  0.00     0.031 H 
ATOM      4  H2  <0> d          -0.748   3.008   1.275  0.00  0.00     0.031 H 
ATOM      5  H3  <0> d          -1.756   1.541   1.276  0.00  0.00     0.031 H 
ENDBRANCH   1   2
BRANCH   1   6
ATOM      6  C3  <0> d           1.418   1.954  -0.001  0.00  0.00     0.047 C 
ATOM      7  H4  <0> d           1.928   1.603  -0.898  0.00  0.00     0.078 H 
ATOM      8  H5  <0> d           1.403   3.044   0.005  0.00  0.00     0.078 H 
BRANCH   6   9
ATOM      9  O1  <0> d           2.109   1.481   1.157  0.00  0.00    -0.398 OA
ATOM     10  H6  <0> d           3.027   1.778   1.216  0.00  0.00     0.209 HD
ENDBRANCH   6   9
ENDBRANCH   1   6
BRANCH   1  11
ATOM     11  C4  <0> d          -0.757   1.932  -1.230  0.00  0.00     0.047 C 
ATOM     12  H7  <0> d          -0.696   3.019  -1.270  0.00  0.00     0.078 H 
ATOM     13  H8  <0> d          -0.300   1.508  -2.124  0.00  0.00     0.078 H 
BRANCH  11  14
ATOM     14  O2  <0> d          -2.128   1.535  -1.161  0.00  0.00    -0.398 OA
ATOM     15  H9  <0> d          -2.659   1.823  -1.917  0.00  0.00     0.209 HD
ENDBRANCH  11  14
ENDBRANCH   1  11
BRANCH   1  16
ATOM     16  O3  <0> d           0.002  -0.004   0.002  0.00  0.00    -0.386 OA
ATOM     17  H10 <0> d           0.442  -0.387  -0.769  0.00  0.00     0.210 HD
ENDBRANCH   1  16
TORSDOF 6
