REMARK  5 active torsions:
REMARK  status: ('A' for Active; 'I' for Inactive)
REMARK    1  A    between atoms: C1_1  and  C2_2 
REMARK    2  A    between atoms: C2_2  and  C3_3 
REMARK    3  A    between atoms: C2_2  and  C4_4 
REMARK    4  A    between atoms: C4_4  and  C5_5 
REMARK    5  A    between atoms: C5_5  and  C8_11 
ROOT
ATOM      1  C5  <0> d          -1.548  -1.970   0.027  0.00  0.00     0.268 A 
ATOM      2  N1  <0> d          -0.963  -2.214  -1.297  0.00  0.00     0.344 N 
ATOM      3  C6  <0> d          -1.956  -3.006  -2.038  0.00  0.00     0.223 A 
ATOM      4  C7  <0> d          -3.124  -3.210  -1.107  0.00  0.00     0.250 A 
ATOM      5  O1  <0> d          -4.137  -3.821  -1.373  0.00  0.00    -0.271 OA
ATOM      6  N2  <0> d          -2.864  -2.608   0.065  0.00  0.00    -0.323 N 
ATOM      7  H10 <0> d          -2.277  -2.464  -2.927  0.00  0.00     0.099 H 
ATOM      8  H11 <0> d          -1.530  -3.969  -2.320  0.00  0.00     0.099 H 
ATOM      9  H12 <0> d          -3.463  -2.597   0.828  0.00  0.00     0.165 HD
ENDROOT
BRANCH   1  10
ATOM     10  C4  <0> d          -1.696  -0.465   0.258  0.00  0.00    -0.009 C 
ATOM     11  H8  <0> d          -2.245  -0.291   1.183  0.00  0.00     0.040 H 
ATOM     12  H9  <0> d          -2.240  -0.021  -0.576  0.00  0.00     0.040 H 
BRANCH  10  13
ATOM     13  C2  <0> d          -0.310   0.174   0.360  0.00  0.00    -0.057 C 
ATOM     14  H4  <0> d           0.274  -0.344   1.121  0.00  0.00     0.039 H 
BRANCH  13  15
ATOM     15  C1  <0> d           0.402   0.067  -0.990  0.00  0.00    -0.073 C 
ATOM     16  H1  <0> d           1.325   0.646  -0.961  0.00  0.00     0.028 H 
ATOM     17  H2  <0> d           0.635  -0.978  -1.196  0.00  0.00     0.028 H 
ATOM     18  H3  <0> d          -0.246   0.456  -1.775  0.00  0.00     0.028 H 
ENDBRANCH  13  15
BRANCH  13  19
ATOM     19  C3  <0> d          -0.454   1.648   0.745  0.00  0.00    -0.073 C 
ATOM     20  H5  <0> d          -0.959   1.724   1.708  0.00  0.00     0.028 H 
ATOM     21  H6  <0> d           0.533   2.104   0.815  0.00  0.00     0.028 H 
ATOM     22  H7  <0> d          -1.040   2.166  -0.015  0.00  0.00     0.028 H 
ENDBRANCH  13  19
ENDBRANCH  10  13
ENDBRANCH   1  10
BRANCH   1  23
ATOM     23  C8  <0> d          -0.650  -2.573   1.109  0.00  0.00    -0.023 C 
ATOM     24  H13 <0> d          -1.034  -2.303   2.092  0.00  0.00     0.033 H 
ATOM     25  H14 <0> d          -0.638  -3.658   1.008  0.00  0.00     0.033 H 
ATOM     26  H15 <0> d           0.364  -2.187   0.996  0.00  0.00     0.033 H 
ENDBRANCH   1  23
TORSDOF 5
