REMARK  3 active torsions:
REMARK  status: ('A' for Active; 'I' for Inactive)
REMARK    1  A    between atoms: C1_1  and  C2_2 
REMARK    2  A    between atoms: C2_2  and  C3_3 
REMARK    3  A    between atoms: C6_6  and  N1_9 
ROOT
ATOM      1  C3  <0> d           0.731  -0.503   1.223  0.00  0.00     0.013 A 
ATOM      2  C4  <0> d           2.098  -0.709   1.174  0.00  0.00    -0.069 A 
ATOM      3  C5  <0> d           2.769  -1.167   2.291  0.00  0.00    -0.057 A 
ATOM      4  C6  <0> d           2.069  -1.420   3.465  0.00  0.00     0.025 A 
ATOM      5  C7  <0> d           0.697  -1.212   3.510  0.00  0.00    -0.057 A 
ATOM      6  C8  <0> d           0.033  -0.749   2.391  0.00  0.00    -0.069 A 
ATOM      7  H4  <0> d           2.641  -0.512   0.262  0.00  0.00     0.084 H 
ATOM      8  H5  <0> d           3.836  -1.327   2.253  0.00  0.00     0.086 H 
ATOM      9  H6  <0> d           0.150  -1.409   4.420  0.00  0.00     0.086 H 
ATOM     10  H7  <0> d          -1.034  -0.583   2.427  0.00  0.00     0.084 H 
ENDROOT
BRANCH   1  11
ATOM     11  C2  <0> d           0.002  -0.004   0.002  0.00  0.00     0.267 C 
ATOM     12  F1  <0> d          -1.310  -0.488   0.012  0.00  0.00    -0.201 F 
ATOM     13  F2  <0> d           0.657  -0.455  -1.149  0.00  0.00    -0.201 F 
BRANCH  11  14
ATOM     14  C1  <0> d          -0.019   1.526   0.010  0.00  0.00    -0.012 C 
ATOM     15  H1  <0> d           1.004   1.903   0.003  0.00  0.00     0.036 H 
ATOM     16  H2  <0> d          -0.546   1.887  -0.873  0.00  0.00     0.036 H 
ATOM     17  H3  <0> d          -0.529   1.877   0.907  0.00  0.00     0.036 H 
ENDBRANCH  11  14
ENDBRANCH   1  11
BRANCH   4  18
ATOM     18  N1  <0> d           2.745  -1.883   4.596  0.00  0.00    -0.399 N 
ATOM     19  H8  <0> d           3.703  -2.028   4.563  0.00  0.00     0.156 HD
ATOM     20  H9  <0> d           2.255  -2.060   5.415  0.00  0.00     0.156 HD
ENDBRANCH   4  18
TORSDOF 3
