REMARK  4 active torsions:
REMARK  status: ('A' for Active; 'I' for Inactive)
REMARK    1  A    between atoms: C1_1  and  C2_2 
REMARK    2  A    between atoms: C2_2  and  O1_3 
REMARK    3  A    between atoms: O1_3  and  C3_4 
REMARK    4  A    between atoms: C3_4  and  C4_6 
ROOT
ATOM      1  C4  <0> d           0.002  -0.004   0.002  0.00  0.00     0.096 C 
ATOM      2  H1  <0> d          -0.067  -0.377  -1.020  0.00  0.00     0.088 H 
ATOM      3  C5  <0> d          -0.019   1.541   0.011  0.00  0.00    -0.029 C 
ATOM      4  C6  <0> d           1.490   1.876  -0.002  0.00  0.00     0.011 C 
ATOM      5  C7  <0> d           2.147   0.654   0.600  0.00  0.00     0.218 C 
ATOM      6  O3  <0> d           3.282   0.615   1.027  0.00  0.00    -0.274 OA
ATOM      7  N1  <0> d           1.290  -0.381   0.595  0.00  0.00    -0.347 N 
ATOM      8  H7  <0> d          -0.512   1.929  -0.880  0.00  0.00     0.037 H 
ATOM      9  H8  <0> d          -0.495   1.919   0.915  0.00  0.00     0.037 H 
ATOM     10  H9  <0> d           1.838   2.032  -1.023  0.00  0.00     0.047 H 
ATOM     11  H10 <0> d           1.690   2.757   0.609  0.00  0.00     0.047 H 
ATOM     12  H11 <0> d           1.497  -1.265   0.939  0.00  0.00     0.163 HD
ENDROOT
BRANCH   1  13
ATOM     13  C3  <0> d          -1.134  -0.546   0.831  0.00  0.00     0.281 C 
ATOM     14  O2  <0> d          -0.930  -0.929   1.959  0.00  0.00    -0.263 OA
BRANCH  13  15
ATOM     15  O1  <0> d          -2.373  -0.602   0.317  0.00  0.00    -0.320 OA
BRANCH  15  16
ATOM     16  C2  <0> d          -3.418  -1.135   1.172  0.00  0.00     0.026 C 
ATOM     17  H5  <0> d          -3.170  -2.159   1.453  0.00  0.00     0.074 H 
ATOM     18  H6  <0> d          -3.501  -0.522   2.069  0.00  0.00     0.074 H 
BRANCH  16  19
ATOM     19  C1  <0> d          -4.750  -1.121   0.419  0.00  0.00    -0.056 C 
ATOM     20  H2  <0> d          -5.534  -1.522   1.061  0.00  0.00     0.030 H 
ATOM     21  H3  <0> d          -4.997  -0.098   0.138  0.00  0.00     0.030 H 
ATOM     22  H4  <0> d          -4.666  -1.735  -0.478  0.00  0.00     0.030 H 
ENDBRANCH  16  19
ENDBRANCH  15  16
ENDBRANCH  13  15
ENDBRANCH   1  13
TORSDOF 4
