REMARK  1 active torsions:
REMARK  status: ('A' for Active; 'I' for Inactive)
REMARK    1  A    between atoms: C1_1  and  C2_2 
ROOT
ATOM      1  C2  <0> d           0.002  -0.004   0.002  0.00  0.00     0.049 A 
ATOM      2  H1  <0> d          -1.014  -0.399   0.022  0.00  0.00     0.061 H 
ATOM      3  C3  <0> d           0.746  -0.517  -1.208  0.00  0.00     0.001 A 
ATOM      4  C4  <0> d           0.541  -0.393  -2.564  0.00  0.00    -0.071 A 
ATOM      5  C5  <0> d           1.442  -1.009  -3.425  0.00  0.00    -0.065 A 
ATOM      6  C6  <0> d           2.501  -1.715  -2.889  0.00  0.00     0.004 A 
ATOM      7  N1  <0> d           2.667  -1.813  -1.587  0.00  0.00    -0.243 NA
ATOM      8  C7  <0> d           1.831  -1.241  -0.725  0.00  0.00     0.137 A 
ATOM      9  N2  <0> d           1.833  -1.229   0.666  0.00  0.00    -0.311 N 
ATOM     10  C8  <0> d           0.800  -0.531   1.176  0.00  0.00     0.231 A 
ATOM     11  O1  <0> d           0.555  -0.356   2.351  0.00  0.00    -0.272 OA
ATOM     12  H5  <0> d          -0.298   0.167  -2.948  0.00  0.00     0.084 H 
ATOM     13  H6  <0> d           1.316  -0.936  -4.495  0.00  0.00     0.085 H 
ATOM     14  H7  <0> d           3.205  -2.197  -3.551  0.00  0.00     0.114 H 
ATOM     15  H8  <0> d           2.503  -1.674   1.208  0.00  0.00     0.170 HD
ENDROOT
BRANCH   1  16
ATOM     16  C1  <0> d          -0.019   1.526   0.010  0.00  0.00    -0.061 C 
ATOM     17  H2  <0> d           1.004   1.903   0.003  0.00  0.00     0.029 H 
ATOM     18  H3  <0> d          -0.546   1.887  -0.873  0.00  0.00     0.029 H 
ATOM     19  H4  <0> d          -0.529   1.877   0.907  0.00  0.00     0.029 H 
ENDBRANCH   1  16
TORSDOF 1
