REMARK  2 active torsions:
REMARK  status: ('A' for Active; 'I' for Inactive)
REMARK    1  A    between atoms: C2_2  and  C3_3 
REMARK    2  A    between atoms: C3_3  and  S1_4 
ROOT
ATOM      1  C1  <0> d          -0.055   1.438   3.683  0.00  0.00    -0.153 C 
ATOM      2  C2  <0> d          -0.523   1.696   2.637  0.00  0.00    -0.100 C 
ATOM      3  H1  <0> d           0.363   1.206   4.618  0.00  0.00     0.166 H 
ENDROOT
BRANCH   2   4
ATOM      4  C3  <0> d          -1.110   2.020   1.327  0.00  0.00     0.099 C 
ATOM      5  H2  <0> d          -1.225   3.100   1.237  0.00  0.00     0.079 H 
ATOM      6  H3  <0> d          -2.085   1.541   1.237  0.00  0.00     0.079 H 
BRANCH   4   7
ATOM      7  S1  <0> d          -0.017   1.417   0.010  0.00  0.00     0.112 S 
ATOM      8  O1  <0> d           0.002  -0.004   0.002  0.00  0.00    -0.594 OA
ATOM      9  O2  <0> d           1.195   2.158   0.002  0.00  0.00    -0.594 OA
ATOM     10  O3  <0> d          -0.716   1.803  -1.286  0.00  0.00    -0.594 OA
ENDBRANCH   4   7
ENDBRANCH   2   4
TORSDOF 2
