REMARK  3 active torsions:
REMARK  status: ('A' for Active; 'I' for Inactive)
REMARK    1  A    between atoms: C1_1  and  O1_2 
REMARK    2  A    between atoms: O1_2  and  C2_3 
REMARK    3  A    between atoms: C7_8  and  N1_9 
ROOT
ATOM      1  C2  <0> d          -1.194  -0.719   0.015  0.00  0.00     0.096 A 
ATOM      2  C3  <0> d          -1.170  -2.103   0.003  0.00  0.00    -0.028 A 
ATOM      3  C4  <0> d           0.041  -2.774  -0.012  0.00  0.00     0.036 A 
ATOM      4  C5  <0> d           1.228  -2.065  -0.020  0.00  0.00    -0.060 A 
ATOM      5  C6  <0> d           1.212  -0.683  -0.013  0.00  0.00    -0.053 A 
ATOM      6  C7  <0> d           0.002  -0.004   0.002  0.00  0.00     0.059 A 
ATOM      7 Cl1  <0> d           0.068  -4.510  -0.020  0.00  0.00    -0.084 Cl
ATOM      8  H4  <0> d          -2.095  -2.660   0.009  0.00  0.00     0.090 H 
ATOM      9  H5  <0> d           2.171  -2.592  -0.032  0.00  0.00     0.086 H 
ATOM     10  H6  <0> d           2.140  -0.131  -0.019  0.00  0.00     0.087 H 
ENDROOT
BRANCH   1  11
ATOM     11  O1  <0> d          -2.382  -0.058   0.036  0.00  0.00    -0.354 OA
BRANCH  11  12
ATOM     12  C1  <0> d          -3.568  -0.855   0.049  0.00  0.00     0.010 C 
ATOM     13  H1  <0> d          -3.595  -1.480  -0.844  0.00  0.00     0.066 H 
ATOM     14  H2  <0> d          -3.570  -1.489   0.936  0.00  0.00     0.066 H 
ATOM     15  H3  <0> d          -4.443  -0.206   0.065  0.00  0.00     0.066 H 
ENDBRANCH  11  12
ENDBRANCH   1  11
BRANCH   6  16
ATOM     16  N1  <0> d          -0.017   1.396   0.010  0.00  0.00    -0.397 N 
ATOM     17  H7  <0> d           0.816   1.893   0.004  0.00  0.00     0.156 HD
ATOM     18  H8  <0> d          -0.864   1.870   0.016  0.00  0.00     0.156 HD
ENDBRANCH   6  16
TORSDOF 3
