REMARK  2 active torsions:
REMARK  status: ('A' for Active; 'I' for Inactive)
REMARK    1  A    between atoms: C1_1  and  C2_2 
REMARK    2  A    between atoms: C3_4  and  C5_13 
ROOT
ATOM      1  C2  <0> d           0.002  -0.004   0.002  0.00  0.00     0.039 C 
ATOM      2  H1  <0> d           0.511  -0.361  -0.893  0.00  0.00     0.075 H 
ATOM      3  C3  <0> d          -1.434  -0.542   0.030  0.00  0.00     0.029 C 
ATOM      4  H2  <0> d          -1.931  -0.197   0.937  0.00  0.00     0.069 H 
ATOM      5  N1  <0> d          -1.423  -2.013   0.011  0.00  0.00    -0.194 NA
ATOM      6  N2  <0> d          -0.591  -2.511   0.964  0.00  0.00     0.003 N 
ATOM      7  C4  <0> d           0.421  -1.819   1.547  0.00  0.00     0.755 A 
ATOM      8  N3  <0> d           0.996  -2.613   2.405  0.00  0.00     0.066 NA
ATOM      9  N4  <0> d           0.415  -3.764   2.405  0.00  0.00    -0.007 NA
ATOM     10  N5  <0> d          -0.558  -3.777   1.554  0.00  0.00    -0.013 NA
ATOM     11  N6  <0> d           0.702  -0.501   1.207  0.00  0.00    -0.214 N 
ATOM     12  H6  <0> d          -2.356  -2.383   0.116  0.00  0.00     0.149 HD
ATOM     13  H7  <0> d           1.310   0.052   1.722  0.00  0.00     0.178 HD
ENDROOT
BRANCH   1  14
ATOM     14  C1  <0> d          -0.019   1.526   0.010  0.00  0.00    -0.055 C 
ATOM     15  H3  <0> d           1.004   1.903   0.003  0.00  0.00     0.030 H 
ATOM     16  H4  <0> d          -0.546   1.887  -0.873  0.00  0.00     0.030 H 
ATOM     17  H5  <0> d          -0.529   1.877   0.907  0.00  0.00     0.030 H 
ENDBRANCH   1  14
BRANCH   3  18
ATOM     18  C5  <0> d          -2.193  -0.026  -1.193  0.00  0.00    -0.058 C 
ATOM     19  H8  <0> d          -1.694  -0.367  -2.101  0.00  0.00     0.029 H 
ATOM     20  H9  <0> d          -3.214  -0.408  -1.175  0.00  0.00     0.029 H 
ATOM     21  H10 <0> d          -2.212   1.063  -1.177  0.00  0.00     0.029 H 
ENDBRANCH   3  18
TORSDOF 2
