REMARK  3 active torsions:
REMARK  status: ('A' for Active; 'I' for Inactive)
REMARK    1  A    between atoms: C1_1  and  C2_2 
REMARK    2  A    between atoms: C3_3  and  N2_8 
REMARK    3  A    between atoms: C4_4  and  C5_7 
REMARK       I    between atoms: N2_8  and  C6_9 
REMARK       I    between atoms: C6_9  and  N3_11 
ROOT
ATOM      1  C2  <0> d          -0.446   2.152   1.370  0.00  0.00     0.087 A 
ATOM      2  C3  <0> d          -0.153   1.966   2.745  0.00  0.00     0.094 A 
ATOM      3  C4  <0> d          -1.362   1.693   3.301  0.00  0.00     0.103 A 
ATOM      4  O1  <0> d          -2.256   1.727   2.299  0.00  0.00    -0.216 OA
ATOM      5  N1  <0> d          -1.731   1.987   1.242  0.00  0.00    -0.131 NA
ENDROOT
BRANCH   2   6
ATOM      6  N2  <0> d           1.098   2.046   3.384  0.00  0.00    -0.305 N 
ATOM      7  C6  <0> d           2.204   1.593   2.760  0.00  0.00     0.318 C 
ATOM      8  O2  <0> d           2.110   1.047   1.677  0.00  0.00    -0.247 OA
ATOM      9  N3  <0> d           3.413   1.746   3.336  0.00  0.00    -0.352 N 
ATOM     10  H8  <0> d           3.487   2.181   4.199  0.00  0.00     0.160 HD
ATOM     11  H9  <0> d           4.208   1.420   2.887  0.00  0.00     0.160 HD
ATOM     12  H7  <0> d           1.165   2.426   4.274  0.00  0.00     0.171 HD
ENDBRANCH   2   6
BRANCH   1  13
ATOM     13  C1  <0> d           0.535   2.482   0.275  0.00  0.00    -0.031 C 
ATOM     14  H1  <0> d           0.877   1.561  -0.197  0.00  0.00     0.035 H 
ATOM     15  H2  <0> d           1.389   3.011   0.699  0.00  0.00     0.035 H 
ATOM     16  H3  <0> d           0.050   3.114  -0.470  0.00  0.00     0.035 H 
ENDBRANCH   1  13
BRANCH   3  17
ATOM     17  C5  <0> d          -1.644   1.408   4.754  0.00  0.00    -0.027 C 
ATOM     18  H4  <0> d          -1.720   2.348   5.301  0.00  0.00     0.036 H 
ATOM     19  H5  <0> d          -2.583   0.860   4.841  0.00  0.00     0.036 H 
ATOM     20  H6  <0> d          -0.834   0.809   5.170  0.00  0.00     0.036 H 
ENDBRANCH   3  17
TORSDOF 3
