REMARK  7 active torsions:
REMARK  status: ('A' for Active; 'I' for Inactive)
REMARK    1  A    between atoms: C1_1  and  C2_2 
REMARK    2  A    between atoms: C2_2  and  C3_4 
REMARK    3  A    between atoms: C2_2  and  O3_10 
REMARK    4  A    between atoms: C3_4  and  O2_6 
REMARK    5  A    between atoms: O2_6  and  C4_7 
REMARK    6  A    between atoms: C4_7  and  C5_8 
REMARK    7  A    between atoms: C4_7  and  C6_9 
ROOT
ATOM      1  O2  <0> d           0.225  -0.277   2.446  0.00  0.00    -0.315 OA
ENDROOT
BRANCH   1   2
ATOM      2  C3  <0> d           0.731  -0.503   1.223  0.00  0.00     0.287 C 
ATOM      3  O1  <0> d           1.770  -1.107   1.101  0.00  0.00    -0.262 OA
BRANCH   2   4
ATOM      4  C2  <0> d           0.002  -0.004   0.002  0.00  0.00     0.115 C 
ATOM      5  H1  <0> d          -1.020  -0.381   0.010  0.00  0.00     0.098 H 
BRANCH   4   6
ATOM      6  C1  <0> d          -0.019   1.526   0.010  0.00  0.00    -0.044 C 
ATOM      7  H2  <0> d           1.004   1.903   0.003  0.00  0.00     0.031 H 
ATOM      8  H3  <0> d          -0.546   1.887  -0.873  0.00  0.00     0.031 H 
ATOM      9  H4  <0> d          -0.529   1.877   0.907  0.00  0.00     0.031 H 
ENDBRANCH   4   6
BRANCH   4  10
ATOM     10  O3  <0> d           0.671  -0.465  -1.174  0.00  0.00    -0.386 OA
ATOM     11  H12 <0> d           0.256  -0.181  -1.999  0.00  0.00     0.210 HD
ENDBRANCH   4  10
ENDBRANCH   2   4
ENDBRANCH   1   2
BRANCH   1  12
ATOM     12  C4  <0> d           0.969  -0.779   3.558  0.00  0.00     0.041 C 
ATOM     13  H5  <0> d           1.510  -1.676   3.258  0.00  0.00     0.083 H 
BRANCH  12  14
ATOM     14  C5  <0> d           1.964   0.284   4.027  0.00  0.00    -0.052 C 
ATOM     15  H6  <0> d           2.531  -0.098   4.876  0.00  0.00     0.030 H 
ATOM     16  H7  <0> d           2.647   0.527   3.213  0.00  0.00     0.030 H 
ATOM     17  H8  <0> d           1.423   1.181   4.327  0.00  0.00     0.030 H 
ENDBRANCH  12  14
BRANCH  12  18
ATOM     18  C6  <0> d           0.010  -1.120   4.700  0.00  0.00    -0.052 C 
ATOM     19  H9  <0> d          -0.699  -1.877   4.366  0.00  0.00     0.030 H 
ATOM     20  H10 <0> d           0.577  -1.502   5.549  0.00  0.00     0.030 H 
ATOM     21  H11 <0> d          -0.531  -0.222   5.000  0.00  0.00     0.030 H 
ENDBRANCH  12  18
ENDBRANCH   1  12
TORSDOF 7
