REMARK  1 active torsions:
REMARK  status: ('A' for Active; 'I' for Inactive)
REMARK    1  A    between atoms: C2_2  and  N4_11 
ROOT
ATOM      1  C1  <0> d          -0.017   1.369   0.010  0.00  0.00    -0.023 A 
ATOM      2  C2  <0> d           1.319   1.799  -0.001  0.00  0.00     0.045 A 
ATOM      3  C3  <0> d           2.111   0.693  -0.014  0.00  0.00     0.028 A 
ATOM      4  N1  <0> d           1.320  -0.411  -0.013  0.00  0.00    -0.259 N 
ATOM      5  C4  <0> d           0.002  -0.004   0.002  0.00  0.00     0.128 A 
ATOM      6  C5  <0> d          -1.044  -1.036   0.006  0.00  0.00     0.296 A 
ATOM      7  O1  <0> d          -2.222  -0.727   0.018  0.00  0.00    -0.264 OA
ATOM      8  N2  <0> d          -0.672  -2.335  -0.005  0.00  0.00    -0.202 NA
ATOM      9  C6  <0> d           0.585  -2.683  -0.019  0.00  0.00     0.082 A 
ATOM     10  N3  <0> d           1.592  -1.786  -0.022  0.00  0.00    -0.287 N 
ATOM     11  H1  <0> d          -0.893   1.999   0.025  0.00  0.00     0.090 H 
ATOM     12  H2  <0> d           3.191   0.693  -0.025  0.00  0.00     0.118 H 
ATOM     13  H3  <0> d           0.831  -3.735  -0.027  0.00  0.00     0.145 H 
ATOM     14  H6  <0> d           2.511  -2.095  -0.033  0.00  0.00     0.188 HD
ENDROOT
BRANCH   2  15
ATOM     15  N4  <0> d           1.761   3.135   0.002  0.00  0.00    -0.398 N 
ATOM     16  H4  <0> d           1.115   3.859   0.012  0.00  0.00     0.156 HD
ATOM     17  H5  <0> d           2.711   3.332  -0.007  0.00  0.00     0.156 HD
ENDBRANCH   2  15
TORSDOF 1
