REMARK  4 active torsions:
REMARK  status: ('A' for Active; 'I' for Inactive)
REMARK    1  A    between atoms: C1_1  and  C2_2 
REMARK    2  A    between atoms: C3_3  and  C4_4 
REMARK    3  A    between atoms: C4_4  and  C5_5 
REMARK    4  A    between atoms: C5_5  and  C6_6 
ROOT
ATOM      1  C5  <0> d          -0.026  -2.664  -2.302  0.00  0.00    -0.037 C 
ATOM      2  H8  <0> d          -1.055  -2.314  -2.380  0.00  0.00     0.040 H 
ATOM      3  H9  <0> d           0.550  -2.288  -3.147  0.00  0.00     0.040 H 
ENDROOT
BRANCH   1   4
ATOM      4  C4  <0> d           0.589  -2.153  -0.998  0.00  0.00    -0.046 C 
ATOM      5  H6  <0> d           1.619  -2.503  -0.920  0.00  0.00     0.039 H 
ATOM      6  H7  <0> d           0.013  -2.529  -0.152  0.00  0.00     0.039 H 
BRANCH   4   7
ATOM      7  C3  <0> d           0.569  -0.646  -0.989  0.00  0.00    -0.107 C 
ATOM      8  C2  <0> d           0.002  -0.004   0.002  0.00  0.00    -0.110 C 
ATOM      9  H4  <0> d          -0.451  -0.555   0.813  0.00  0.00     0.075 H 
ATOM     10  H5  <0> d           1.021  -0.095  -1.801  0.00  0.00     0.076 H 
BRANCH   8  11
ATOM     11  C1  <0> d          -0.018   1.503   0.010  0.00  0.00    -0.060 C 
ATOM     12  H1  <0> d           1.004   1.880   0.003  0.00  0.00     0.032 H 
ATOM     13  H2  <0> d          -0.545   1.864  -0.873  0.00  0.00     0.032 H 
ATOM     14  H3  <0> d          -0.529   1.854   0.907  0.00  0.00     0.032 H 
ENDBRANCH   8  11
ENDBRANCH   4   7
ENDBRANCH   1   4
BRANCH   1  15
ATOM     15  C6  <0> d          -0.005  -4.171  -2.310  0.00  0.00    -0.040 A 
ATOM     16  C10 <0> d          -1.071  -4.888  -1.800  0.00  0.00     0.008 A 
ATOM     17  N1  <0> d          -1.063  -6.207  -1.810  0.00  0.00    -0.273 NA
ATOM     18  H13 <0> d          -1.922  -4.362  -1.394  0.00  0.00     0.115 H 
ATOM     19  C9  <0> d          -0.043  -6.890  -2.290  0.00  0.00     0.002 A 
ATOM     20  C8  <0> d           1.060  -6.242  -2.812  0.00  0.00    -0.066 A 
ATOM     21  H12 <0> d          -0.070  -7.970  -2.276  0.00  0.00     0.114 H 
ATOM     22  C7  <0> d           1.085  -4.856  -2.825  0.00  0.00    -0.074 A 
ATOM     23  H11 <0> d           1.893  -6.807  -3.204  0.00  0.00     0.085 H 
ATOM     24  H10 <0> d           1.934  -4.322  -3.226  0.00  0.00     0.084 H 
ENDBRANCH   1  15
TORSDOF 4
