REMARK  3 active torsions:
REMARK  status: ('A' for Active; 'I' for Inactive)
REMARK    1  A    between atoms: C1_1  and  C2_2 
REMARK    2  A    between atoms: C2_2  and  C3_4 
REMARK    3  A    between atoms: C2_2  and  O1_11 
ROOT
ATOM      1  C3  <0> d          -1.412  -0.526   0.013  0.00  0.00    -0.012 A 
ATOM      2  C4  <0> d          -2.008  -0.963  -1.161  0.00  0.00    -0.070 A 
ATOM      3  C5  <0> d          -3.309  -1.434  -1.105  0.00  0.00    -0.043 A 
ATOM      4  C6  <0> d          -3.967  -1.453   0.113  0.00  0.00     0.125 A 
ATOM      5  N1  <0> d          -3.368  -1.030   1.210  0.00  0.00    -0.248 NA
ATOM      6  C7  <0> d          -2.128  -0.580   1.193  0.00  0.00     0.012 A 
ATOM      7 Cl1  <0> d          -5.598  -2.041   0.198  0.00  0.00    -0.062 Cl
ATOM      8  H5  <0> d          -1.470  -0.935  -2.097  0.00  0.00     0.084 H 
ATOM      9  H6  <0> d          -3.805  -1.782  -1.999  0.00  0.00     0.088 H 
ATOM     10  H7  <0> d          -1.669  -0.246   2.111  0.00  0.00     0.115 H 
ENDROOT
BRANCH   1  11
ATOM     11  C2  <0> d           0.002  -0.004   0.002  0.00  0.00     0.059 C 
ATOM     12  H1  <0> d           0.512  -0.356  -0.895  0.00  0.00     0.090 H 
BRANCH  11  13
ATOM     13  C1  <0> d          -0.019   1.526   0.010  0.00  0.00    -0.049 C 
ATOM     14  H2  <0> d           1.004   1.903   0.003  0.00  0.00     0.031 H 
ATOM     15  H3  <0> d          -0.546   1.887  -0.873  0.00  0.00     0.031 H 
ATOM     16  H4  <0> d          -0.529   1.877   0.907  0.00  0.00     0.031 H 
ENDBRANCH  11  13
BRANCH  11  17
ATOM     17  O1  <0> d           0.693  -0.477   1.160  0.00  0.00    -0.391 OA
ATOM     18  H8  <0> d           1.611  -0.180   1.219  0.00  0.00     0.210 HD
ENDBRANCH  11  17
ENDBRANCH   1  11
TORSDOF 3
