REMARK  4 active torsions:
REMARK  status: ('A' for Active; 'I' for Inactive)
REMARK    1  A    between atoms: C1_1  and  O1_2 
REMARK    2  A    between atoms: O1_2  and  C2_3 
REMARK    3  A    between atoms: C2_3  and  C3_5 
REMARK    4  A    between atoms: C3_5  and  C4_6 
ROOT
ATOM      1  C3  <0> d          -2.515   0.980   0.020  0.00  0.00     0.057 C 
ATOM      2  H4  <0> d          -3.054   1.172  -0.908  0.00  0.00     0.057 H 
ATOM      3  H5  <0> d          -2.303  -0.086   0.103  0.00  0.00     0.057 H 
ENDROOT
BRANCH   1   4
ATOM      4  C2  <0> d          -3.358   1.417   1.190  0.00  0.00     0.264 C 
ATOM      5  O2  <0> d          -2.949   2.268   1.945  0.00  0.00    -0.265 OA
BRANCH   4   6
ATOM      6  O1  <0> d          -4.563   0.862   1.394  0.00  0.00    -0.326 OA
BRANCH   6   7
ATOM      7  C1  <0> d          -5.319   1.332   2.541  0.00  0.00     0.013 C 
ATOM      8  H1  <0> d          -4.752   1.144   3.452  0.00  0.00     0.067 H 
ATOM      9  H2  <0> d          -5.503   2.402   2.442  0.00  0.00     0.067 H 
ATOM     10  H3  <0> d          -6.271   0.803   2.590  0.00  0.00     0.067 H 
ENDBRANCH   6   7
ENDBRANCH   4   6
ENDBRANCH   1   4
BRANCH   1  11
ATOM     11  C4  <0> d          -1.220   1.751   0.017  0.00  0.00     0.061 A 
ATOM     12  N2  <0> d          -1.238   3.072   0.029  0.00  0.00    -0.262 NA
ATOM     13  C7  <0> d          -0.103   3.749   0.022  0.00  0.00     0.019 A 
ATOM     14  C6  <0> d           1.105   3.073   0.008  0.00  0.00     0.019 A 
ATOM     15  H8  <0> d          -0.117   4.829   0.027  0.00  0.00     0.117 H 
ATOM     16  N1  <0> d           1.123   1.752   0.001  0.00  0.00    -0.270 NA
ATOM     17  H7  <0> d           2.032   3.626   0.002  0.00  0.00     0.117 H 
ATOM     18  C5  <0> d          -0.013   1.076   0.008  0.00  0.00     0.026 A 
ATOM     19  H6  <0> d           0.002  -0.004   0.002  0.00  0.00     0.117 H 
ENDBRANCH   1  11
TORSDOF 4
