REMARK  2 active torsions:
REMARK  status: ('A' for Active; 'I' for Inactive)
REMARK    1  A    between atoms: C1_1  and  O1_2 
REMARK    2  A    between atoms: O1_2  and  C2_3 
ROOT
ATOM      1  C2  <0> d          -0.150   1.183   2.376  0.00  0.00     0.286 A 
ATOM      2  N1  <0> d          -0.726   1.587   3.500  0.00  0.00    -0.217 NA
ATOM      3  C3  <0> d          -0.207   1.226   4.663  0.00  0.00     0.025 A 
ATOM      4  C4  <0> d           0.937   0.440   4.670  0.00  0.00     0.041 A 
ATOM      5  N2  <0> d           1.473   0.070   3.520  0.00  0.00    -0.157 NA
ATOM      6  N3  <0> d           0.942   0.433   2.405  0.00  0.00    -0.104 NA
ATOM      7  H4  <0> d          -0.663   1.540   5.590  0.00  0.00     0.117 H 
ATOM      8  H5  <0> d           1.384   0.134   5.604  0.00  0.00     0.119 H 
ENDROOT
BRANCH   1   9
ATOM      9  O1  <0> d          -0.682   1.547   1.184  0.00  0.00    -0.323 OA
BRANCH   9  10
ATOM     10  C1  <0> d          -0.013   1.086   0.008  0.00  0.00     0.013 C 
ATOM     11  H1  <0> d           0.002  -0.004   0.002  0.00  0.00     0.067 H 
ATOM     12  H2  <0> d           1.010   1.463   0.000  0.00  0.00     0.067 H 
ATOM     13  H3  <0> d          -0.540   1.447  -0.875  0.00  0.00     0.067 H 
ENDBRANCH   9  10
ENDBRANCH   1   9
TORSDOF 2
