REMARK  2 active torsions:
REMARK  status: ('A' for Active; 'I' for Inactive)
REMARK    1  A    between atoms: C2_4  and  C3_6 
REMARK       I    between atoms: C3_6  and  N4_8 
REMARK    2  A    between atoms: N4_8  and  C4_9 
ROOT
ATOM      1  C3  <0> d          -1.602   4.137   0.039  0.00  0.00     0.289 C 
ATOM      2  O1  <0> d          -1.141   5.261   0.040  0.00  0.00    -0.264 OA
ATOM      3  N4  <0> d          -2.938   3.957   0.051  0.00  0.00    -0.350 N 
ATOM      4  H2  <0> d          -3.356   2.939   0.050  0.00  0.00     0.163 HD
ENDROOT
BRANCH   3   5
ATOM      5  C4  <0> d          -3.833   5.116   0.065  0.00  0.00     0.013 A 
ATOM      6  C6  <0> d          -5.244   4.926  -0.496  0.00  0.00    -0.044 A 
ATOM      7  C5  <0> d          -5.034   5.070   1.012  0.00  0.00    -0.044 A 
ATOM      8  H6  <0> d          -5.479   5.752  -1.184  0.00  0.00     0.036 H 
ATOM      9  H7  <0> d          -5.297   3.971  -1.039  0.00  0.00     0.036 H 
ATOM     10  H4  <0> d          -4.913   4.234   1.717  0.00  0.00     0.036 H 
ATOM     11  H5  <0> d          -5.095   6.015   1.572  0.00  0.00     0.036 H 
ATOM     12  H3  <0> d          -2.992   5.801  -0.118  0.00  0.00     0.072 H 
ENDBRANCH   3   5
BRANCH   1  13
ATOM     13  C2  <0> d          -0.698   2.967   0.025  0.00  0.00     0.219 A 
ATOM     14  N2  <0> d          -1.067   1.704   0.016  0.00  0.00    -0.125 NA
ATOM     15  N1  <0> d          -0.011   0.966   0.007  0.00  0.00    -0.143 NA
ATOM     16  C1  <0> d           1.070   1.767   0.001  0.00  0.00     0.087 A 
ATOM     17  N3  <0> d           0.646   3.005   0.012  0.00  0.00    -0.328 N 
ATOM     18  H1  <0> d           2.102   1.446  -0.011  0.00  0.00     0.146 H 
ATOM     19  H8  <0> d           1.370   3.834   0.009  0.00  0.00     0.168 HD
ENDBRANCH   1  13
TORSDOF 2
