REMARK  2 active torsions:
REMARK  status: ('A' for Active; 'I' for Inactive)
REMARK    1  A    between atoms: C3_4  and  O2_9 
REMARK    2  A    between atoms: C4_5  and  C5_7 
ROOT
ATOM      1  C1  <0> d          -0.017   1.384   0.010  0.00  0.00     0.020 A 
ATOM      2  C2  <0> d           0.002  -0.004   0.002  0.00  0.00     0.022 A 
ATOM      3  N1  <0> d           1.151  -0.655  -0.013  0.00  0.00    -0.234 NA
ATOM      4  C3  <0> d           2.294   0.018  -0.020  0.00  0.00     0.198 A 
ATOM      5  C4  <0> d           2.276   1.420  -0.012  0.00  0.00     0.185 A 
ATOM      6  N2  <0> d           1.111   2.064   0.003  0.00  0.00    -0.249 NA
ATOM      7  H1  <0> d          -0.961   1.909   0.017  0.00  0.00     0.117 H 
ATOM      8  H2  <0> d          -0.927  -0.554   0.008  0.00  0.00     0.117 H 
ENDROOT
BRANCH   5   9
ATOM      9  C5  <0> d           3.543   2.179  -0.020  0.00  0.00     0.233 C 
ATOM     10  O1  <0> d           4.604   1.588  -0.033  0.00  0.00    -0.643 OA
ATOM     11  O3  <0> d           3.522   3.526  -0.012  0.00  0.00    -0.643 OA
ENDBRANCH   5   9
BRANCH   4  12
ATOM     12  O2  <0> d           3.474  -0.647  -0.034  0.00  0.00    -0.343 OA
ATOM     13  H3  <0> d           3.809  -0.835  -0.922  0.00  0.00     0.219 HD
ENDBRANCH   4  12
TORSDOF 2
