REMARK  3 active torsions:
REMARK  status: ('A' for Active; 'I' for Inactive)
REMARK    1  A    between atoms: C1_1  and  C2_2 
REMARK    2  A    between atoms: C3_3  and  S1_10 
REMARK    3  A    between atoms: S1_10  and  C5_11 
ROOT
ATOM      1  C2  <0> d          -0.157   3.870   0.024  0.00  0.00     0.086 A 
ATOM      2  C3  <0> d           1.102   3.223   0.009  0.00  0.00     0.124 A 
ATOM      3  N1  <0> d           1.136   1.894   0.001  0.00  0.00    -0.184 NA
ATOM      4  C4  <0> d          -0.015   1.216   0.009  0.00  0.00     0.363 A 
ATOM      5  O1  <0> d           0.002  -0.004   0.002  0.00  0.00    -0.243 OA
ATOM      6  N2  <0> d          -1.191   1.867   0.018  0.00  0.00    -0.227 N 
ATOM      7  H1  <0> d          -2.016   1.357   0.019  0.00  0.00     0.194 HD
ATOM      8  N3  <0> d          -1.247   3.152   0.031  0.00  0.00    -0.173 NA
ENDROOT
BRANCH   2   9
ATOM      9  S1  <0> d           2.594   4.160  -0.001  0.00  0.00    -0.113 SA
BRANCH   9  10
ATOM     10  C5  <0> d           3.808   2.818  -0.020  0.00  0.00    -0.029 C 
ATOM     11  H5  <0> d           3.680   2.199   0.868  0.00  0.00     0.042 H 
ATOM     12  H6  <0> d           3.662   2.208  -0.912  0.00  0.00     0.042 H 
ATOM     13  H7  <0> d           4.814   3.238  -0.028  0.00  0.00     0.042 H 
ENDBRANCH   9  10
ENDBRANCH   2   9
BRANCH   1  14
ATOM     14  C1  <0> d          -0.238   5.375   0.034  0.00  0.00    -0.031 C 
ATOM     15  H2  <0> d          -0.268   5.744  -0.992  0.00  0.00     0.035 H 
ATOM     16  H3  <0> d          -1.142   5.687   0.558  0.00  0.00     0.035 H 
ATOM     17  H4  <0> d           0.635   5.783   0.542  0.00  0.00     0.035 H 
ENDBRANCH   1  14
TORSDOF 3
