REMARK  3 active torsions:
REMARK  status: ('A' for Active; 'I' for Inactive)
REMARK    1  A    between atoms: C1_1  and  O1_2 
REMARK    2  A    between atoms: O1_2  and  C2_3 
REMARK    3  A    between atoms: C6_7  and  N1_9 
ROOT
ATOM      1  C2  <0> d          -1.975   1.163   1.348  0.00  0.00     0.070 A 
ATOM      2  C3  <0> d          -2.589   0.364   0.394  0.00  0.00    -0.049 A 
ATOM      3  C4  <0> d          -3.902  -0.031   0.562  0.00  0.00    -0.057 A 
ATOM      4  C5  <0> d          -4.612   0.377   1.675  0.00  0.00     0.060 A 
ATOM      5  C6  <0> d          -4.004   1.181   2.631  0.00  0.00     0.050 A 
ATOM      6  C7  <0> d          -2.683   1.574   2.466  0.00  0.00    -0.024 A 
ATOM      7 Cl1  <0> d          -6.264  -0.117   1.880  0.00  0.00    -0.082 Cl
ATOM      8  H4  <0> d          -2.038   0.047  -0.479  0.00  0.00     0.087 H 
ATOM      9  H5  <0> d          -4.376  -0.656  -0.181  0.00  0.00     0.086 H 
ATOM     10  H6  <0> d          -2.208   2.200   3.208  0.00  0.00     0.091 H 
ENDROOT
BRANCH   1  11
ATOM     11  O1  <0> d          -0.682   1.547   1.184  0.00  0.00    -0.356 OA
BRANCH  11  12
ATOM     12  C1  <0> d          -0.013   1.086   0.008  0.00  0.00     0.010 C 
ATOM     13  H1  <0> d           0.002  -0.004   0.002  0.00  0.00     0.066 H 
ATOM     14  H2  <0> d           1.010   1.463   0.000  0.00  0.00     0.066 H 
ATOM     15  H3  <0> d          -0.540   1.447  -0.875  0.00  0.00     0.066 H 
ENDBRANCH  11  12
ENDBRANCH   1  11
BRANCH   5  16
ATOM     16  N1  <0> d          -4.721   1.594   3.758  0.00  0.00    -0.398 N 
ATOM     17  H7  <0> d          -4.296   2.155   4.425  0.00  0.00     0.156 HD
ATOM     18  H8  <0> d          -5.644   1.319   3.873  0.00  0.00     0.156 HD
ENDBRANCH   5  16
TORSDOF 3
