REMARK  1 active torsions:
REMARK  status: ('A' for Active; 'I' for Inactive)
REMARK    1  A    between atoms: C4_5  and  N3_7 
ROOT
ATOM      1  C1  <0> d          -2.356   3.643   0.034  0.00  0.00     0.043 A 
ATOM      2  C2  <0> d          -3.556   2.949   0.036  0.00  0.00     0.070 A 
ATOM      3  C3  <0> d          -3.520   1.562   0.028  0.00  0.00     0.043 A 
ATOM      4  N1  <0> d          -2.348   0.948   0.018  0.00  0.00    -0.074 NA
ATOM      5  C4  <0> d          -1.220   1.642   0.017  0.00  0.00     0.719 A 
ATOM      6  N2  <0> d          -1.219   2.966   0.029  0.00  0.00    -0.074 NA
ATOM      7 Cl1  <0> d          -5.071   3.796   0.049  0.00  0.00    -0.081 Cl
ATOM      8  H1  <0> d          -2.349   4.723   0.040  0.00  0.00     0.118 H 
ATOM      9  H2  <0> d          -4.436   0.991   0.029  0.00  0.00     0.118 H 
ENDROOT
BRANCH   5  10
ATOM     10  N3  <0> d          -0.011   0.966   0.007  0.00  0.00    -0.231 N 
ATOM     11  H3  <0> d           0.002  -0.004   0.002  0.00  0.00     0.174 HD
ATOM     12  H4  <0> d           0.822   1.462   0.002  0.00  0.00     0.174 HD
ENDBRANCH   5  10
TORSDOF 1
