REMARK  9 active torsions:
REMARK  status: ('A' for Active; 'I' for Inactive)
REMARK    1  A    between atoms: C1_1  and  C2_2 
REMARK    2  A    between atoms: C2_2  and  C3_3 
REMARK    3  A    between atoms: C3_3  and  C4_4 
REMARK    4  A    between atoms: C4_4  and  C5_6 
REMARK    5  A    between atoms: C4_4  and  O2_12 
REMARK    6  A    between atoms: C5_6  and  C6_8 
REMARK    7  A    between atoms: C5_6  and  C8_10 
REMARK    8  A    between atoms: C6_8  and  C7_9 
REMARK    9  A    between atoms: C8_10  and  O1_11 
ROOT
ATOM      1  C4  <0> d          -1.396  -2.110  -0.105  0.00  0.00     0.041 C 
ATOM      2  H1  <0> d          -0.928  -2.517  -1.001  0.00  0.00     0.083 H 
ENDROOT
BRANCH   1   3
ATOM      3  C3  <0> d          -1.370  -0.581  -0.166  0.00  0.00    -0.041 C 
ATOM      4  H8  <0> d          -1.757  -0.174   0.768  0.00  0.00     0.036 H 
ATOM      5  H9  <0> d          -1.989  -0.240  -0.995  0.00  0.00     0.036 H 
BRANCH   3   6
ATOM      6  C2  <0> d           0.069  -0.104  -0.373  0.00  0.00    -0.066 C 
ATOM      7  H6  <0> d           0.456  -0.511  -1.308  0.00  0.00     0.032 H 
ATOM      8  H7  <0> d           0.688  -0.445   0.456  0.00  0.00     0.032 H 
BRANCH   6   9
ATOM      9  C1  <0> d           0.095   1.425  -0.434  0.00  0.00    -0.076 C 
ATOM     10  H3  <0> d           1.120   1.765  -0.582  0.00  0.00     0.027 H 
ATOM     11  H4  <0> d          -0.524   1.766  -1.263  0.00  0.00     0.027 H 
ATOM     12  H5  <0> d          -0.291   1.832   0.500  0.00  0.00     0.027 H 
ENDBRANCH   6   9
ENDBRANCH   3   6
ENDBRANCH   1   3
BRANCH   1  13
ATOM     13  C5  <0> d          -2.846  -2.592  -0.023  0.00  0.00    -0.009 C 
ATOM     14  H2  <0> d          -3.314  -2.185   0.874  0.00  0.00     0.047 H 
BRANCH  13  15
ATOM     15  C6  <0> d          -2.872  -4.120   0.038  0.00  0.00    -0.061 C 
ATOM     16  H10 <0> d          -2.510  -4.528  -0.906  0.00  0.00     0.033 H 
ATOM     17  H11 <0> d          -2.232  -4.463   0.851  0.00  0.00     0.033 H 
BRANCH  15  18
ATOM     18  C7  <0> d          -4.306  -4.596   0.282  0.00  0.00    -0.076 C 
ATOM     19  H12 <0> d          -4.305  -5.670   0.472  0.00  0.00     0.027 H 
ATOM     20  H13 <0> d          -4.719  -4.075   1.146  0.00  0.00     0.027 H 
ATOM     21  H14 <0> d          -4.914  -4.384  -0.597  0.00  0.00     0.027 H 
ENDBRANCH  15  18
ENDBRANCH  13  15
BRANCH  13  22
ATOM     22  C8  <0> d          -3.612  -2.117  -1.259  0.00  0.00     0.022 C 
ATOM     23  H15 <0> d          -3.499  -1.038  -1.365  0.00  0.00     0.074 H 
ATOM     24  H16 <0> d          -3.216  -2.613  -2.145  0.00  0.00     0.074 H 
BRANCH  22  25
ATOM     25  O1  <0> d          -4.997  -2.438  -1.113  0.00  0.00    -0.400 OA
ATOM     26  H17 <0> d          -5.545  -2.166  -1.862  0.00  0.00     0.209 HD
ENDBRANCH  22  25
ENDBRANCH  13  22
ENDBRANCH   1  13
BRANCH   1  27
ATOM     27  O2  <0> d          -0.680  -2.553   1.049  0.00  0.00    -0.395 OA
ATOM     28  H18 <0> d          -1.042  -2.228   1.885  0.00  0.00     0.210 HD
ENDBRANCH   1  27
TORSDOF 9
