REMARK  0 active torsions:
REMARK  status: ('A' for Active; 'I' for Inactive)
ROOT
ATOM      1  C1  <0> d          -0.512   3.141  -1.275  0.00  0.00    -0.025 C 
ATOM      2  C2  <0> d          -0.476   3.789   0.080  0.00  0.00    -0.103 C 
ATOM      3  C3  <0> d          -0.619   3.144   1.200  0.00  0.00    -0.093 C 
ATOM      4  C4  <0> d          -0.853   1.643   1.196  0.00  0.00     0.049 C 
ATOM      5  H1  <0> d          -0.654   1.159   2.151  0.00  0.00     0.061 H 
ATOM      6  C5  <0> d          -0.013   1.086   0.008  0.00  0.00    -0.025 C 
ATOM      7  C6  <0> d          -0.874   1.655  -1.156  0.00  0.00     0.052 C 
ATOM      8  H2  <0> d          -0.709   1.119  -2.090  0.00  0.00     0.084 H 
ATOM      9  O1  <0> d          -2.245   1.529  -0.673  0.00  0.00    -0.315 OA
ATOM     10  C7  <0> d          -2.277   1.465   0.671  0.00  0.00     0.267 C 
ATOM     11  O2  <0> d          -3.263   1.296   1.347  0.00  0.00    -0.265 OA
ATOM     12  H3  <0> d           0.467   3.236  -1.744  0.00  0.00     0.042 H 
ATOM     13  H4  <0> d          -1.256   3.644  -1.893  0.00  0.00     0.042 H 
ATOM     14  H5  <0> d          -0.321   4.857   0.126  0.00  0.00     0.076 H 
ATOM     15  H6  <0> d          -0.570   3.678   2.138  0.00  0.00     0.077 H 
ATOM     16  H7  <0> d           0.002  -0.004   0.002  0.00  0.00     0.038 H 
ATOM     17  H8  <0> d           0.996   1.498   0.001  0.00  0.00     0.038 H 
ENDROOT
TORSDOF 0
