REMARK  6 active torsions:
REMARK  status: ('A' for Active; 'I' for Inactive)
REMARK    1  A    between atoms: C1_1  and  C2_2 
REMARK    2  A    between atoms: C2_2  and  C9_12 
REMARK    3  A    between atoms: C3_3  and  C4_4 
REMARK    4  A    between atoms: C5_6  and  O1_11 
REMARK    5  A    between atoms: C6_8  and  C7_9 
REMARK    6  A    between atoms: C6_8  and  C8_10 
ROOT
ATOM      1  C4  <0> d           0.024   0.081   2.442  0.00  0.00    -0.003 A 
ATOM      2  H1  <0> d           0.435   1.090   2.407  0.00  0.00     0.051 H 
ATOM      3  C5  <0> d           0.254  -0.731   3.718  0.00  0.00     0.050 A 
ATOM      4  H2  <0> d           0.403  -1.806   3.611  0.00  0.00     0.085 H 
ATOM      5  C6  <0> d          -1.138  -0.176   3.404  0.00  0.00    -0.012 A 
ENDROOT
BRANCH   1   6
ATOM      6  C3  <0> d           0.022  -0.665   1.133  0.00  0.00    -0.094 C 
ATOM      7  C2  <0> d           0.002  -0.004   0.002  0.00  0.00    -0.091 C 
ATOM      8  H6  <0> d           0.036  -1.745   1.127  0.00  0.00     0.077 H 
BRANCH   7   9
ATOM      9  C1  <0> d          -0.018   1.503   0.010  0.00  0.00    -0.055 C 
ATOM     10  H3  <0> d           1.004   1.880   0.003  0.00  0.00     0.033 H 
ATOM     11  H4  <0> d          -0.545   1.864  -0.873  0.00  0.00     0.033 H 
ATOM     12  H5  <0> d          -0.529   1.854   0.907  0.00  0.00     0.033 H 
ENDBRANCH   7   9
BRANCH   7  13
ATOM     13  C9  <0> d          -0.000  -0.750  -1.307  0.00  0.00    -0.055 C 
ATOM     14  H14 <0> d           1.027  -0.916  -1.633  0.00  0.00     0.033 H 
ATOM     15  H15 <0> d          -0.500  -1.710  -1.177  0.00  0.00     0.033 H 
ATOM     16  H16 <0> d          -0.529  -0.164  -2.059  0.00  0.00     0.033 H 
ENDBRANCH   7  13
ENDBRANCH   1   6
BRANCH   5  17
ATOM     17  C7  <0> d          -2.213  -1.171   2.963  0.00  0.00    -0.066 C 
ATOM     18  H7  <0> d          -1.758  -2.147   2.794  0.00  0.00     0.028 H 
ATOM     19  H8  <0> d          -2.972  -1.254   3.740  0.00  0.00     0.028 H 
ATOM     20  H9  <0> d          -2.675  -0.821   2.040  0.00  0.00     0.028 H 
ENDBRANCH   5  17
BRANCH   5  21
ATOM     21  C8  <0> d          -1.634   1.003   4.243  0.00  0.00    -0.066 C 
ATOM     22  H10 <0> d          -1.977   1.800   3.584  0.00  0.00     0.028 H 
ATOM     23  H11 <0> d          -2.458   0.676   4.877  0.00  0.00     0.028 H 
ATOM     24  H12 <0> d          -0.820   1.373   4.867  0.00  0.00     0.028 H 
ENDBRANCH   5  21
BRANCH   3  25
ATOM     25  O1  <0> d           0.990  -0.109   4.773  0.00  0.00    -0.394 OA
ATOM     26  H13 <0> d           1.861  -0.499   4.928  0.00  0.00     0.210 HD
ENDBRANCH   3  25
TORSDOF 6
