REMARK  8 active torsions:
REMARK  status: ('A' for Active; 'I' for Inactive)
REMARK    1  A    between atoms: C1_1  and  C2_2 
REMARK    2  A    between atoms: C2_2  and  C3_3 
REMARK    3  A    between atoms: C3_3  and  C4_4 
REMARK    4  A    between atoms: C4_4  and  C5_6 
REMARK    5  A    between atoms: C4_4  and  O1_11 
REMARK    6  A    between atoms: C5_6  and  C6_8 
REMARK    7  A    between atoms: C5_6  and  C7_9 
REMARK    8  A    between atoms: C7_9  and  C8_10 
ROOT
ATOM      1  C4  <0> d          -0.750   3.109   1.275  0.00  0.00     0.038 C 
ATOM      2  H1  <0> d          -1.180   3.462   2.213  0.00  0.00     0.083 H 
ENDROOT
BRANCH   1   3
ATOM      3  C3  <0> d          -1.595   3.614   0.104  0.00  0.00    -0.041 C 
ATOM      4  H8  <0> d          -1.117   3.337  -0.835  0.00  0.00     0.036 H 
ATOM      5  H9  <0> d          -2.587   3.166   0.153  0.00  0.00     0.036 H 
BRANCH   3   6
ATOM      6  C2  <0> d          -1.719   5.137   0.184  0.00  0.00    -0.066 C 
ATOM      7  H6  <0> d          -2.197   5.414   1.124  0.00  0.00     0.032 H 
ATOM      8  H7  <0> d          -0.727   5.585   0.136  0.00  0.00     0.032 H 
BRANCH   6   9
ATOM      9  C1  <0> d          -2.565   5.642  -0.987  0.00  0.00    -0.076 C 
ATOM     10  H3  <0> d          -2.653   6.727  -0.930  0.00  0.00     0.027 H 
ATOM     11  H4  <0> d          -2.086   5.365  -1.926  0.00  0.00     0.027 H 
ATOM     12  H5  <0> d          -3.557   5.194  -0.938  0.00  0.00     0.027 H 
ENDBRANCH   6   9
ENDBRANCH   3   6
ENDBRANCH   1   3
BRANCH   1  13
ATOM     13  C5  <0> d          -0.729   1.579   1.267  0.00  0.00    -0.033 C 
ATOM     14  H2  <0> d          -1.751   1.202   1.275  0.00  0.00     0.043 H 
BRANCH  13  15
ATOM     15  C6  <0> d          -0.013   1.086   0.008  0.00  0.00    -0.071 C 
ATOM     16  H10 <0> d           0.002  -0.004   0.002  0.00  0.00     0.028 H 
ATOM     17  H11 <0> d           1.010   1.463   0.000  0.00  0.00     0.028 H 
ATOM     18  H12 <0> d          -0.540   1.447  -0.875  0.00  0.00     0.028 H 
ENDBRANCH  13  15
BRANCH  13  19
ATOM     19  C7  <0> d           0.011   1.072   2.506  0.00  0.00    -0.063 C 
ATOM     20  H13 <0> d           1.057   1.375   2.454  0.00  0.00     0.033 H 
ATOM     21  H14 <0> d          -0.446   1.496   3.401  0.00  0.00     0.033 H 
BRANCH  19  22
ATOM     22  C8  <0> d          -0.075  -0.454   2.563  0.00  0.00    -0.076 C 
ATOM     23  H15 <0> d           0.452  -0.815   3.446  0.00  0.00     0.027 H 
ATOM     24  H16 <0> d          -1.121  -0.757   2.615  0.00  0.00     0.027 H 
ATOM     25  H17 <0> d           0.381  -0.878   1.669  0.00  0.00     0.027 H 
ENDBRANCH  19  22
ENDBRANCH  13  19
ENDBRANCH   1  13
BRANCH   1  26
ATOM     26  O1  <0> d           0.585   3.604   1.148  0.00  0.00    -0.395 OA
ATOM     27  H18 <0> d           1.030   3.329   0.335  0.00  0.00     0.210 HD
ENDBRANCH   1  26
TORSDOF 8
