REMARK  1 active torsions:
REMARK  status: ('A' for Active; 'I' for Inactive)
REMARK    1  A    between atoms: C1_1  and  C2_2 
ROOT
ATOM      1  C2  <0> d           0.002  -0.004   0.002  0.00  0.00    -0.061 A 
ATOM      2  C3  <0> d           0.006  -0.689  -1.199  0.00  0.00    -0.075 A 
ATOM      3  C4  <0> d           0.022  -2.069  -1.206  0.00  0.00    -0.050 A 
ATOM      4  C5  <0> d           0.037  -2.774  -0.006  0.00  0.00     0.075 A 
ATOM      5  C6  <0> d           0.037  -2.086   1.194  0.00  0.00    -0.024 A 
ATOM      6  C7  <0> d           0.023  -0.701   1.194  0.00  0.00    -0.069 A 
ATOM      7  C8  <0> d           0.063  -2.812   2.515  0.00  0.00    -0.036 C 
ATOM      8  C9  <0> d          -0.355  -4.270   2.312  0.00  0.00    -0.041 C 
ATOM      9  C10 <0> d           0.436  -4.837   1.126  0.00  0.00     0.026 C 
ATOM     10  O1  <0> d           0.048  -4.132  -0.053  0.00  0.00    -0.351 OA
ATOM     11  H4  <0> d          -0.005  -0.144  -2.132  0.00  0.00     0.084 H 
ATOM     12  H5  <0> d           0.024  -2.603  -2.144  0.00  0.00     0.087 H 
ATOM     13  H6  <0> d           0.024  -0.164   2.131  0.00  0.00     0.085 H 
ATOM     14  H7  <0> d           1.072  -2.778   2.927  0.00  0.00     0.040 H 
ATOM     15  H8  <0> d          -0.627  -2.329   3.208  0.00  0.00     0.040 H 
ATOM     16  H9  <0> d          -0.133  -4.845   3.211  0.00  0.00     0.036 H 
ATOM     17  H10 <0> d          -1.423  -4.319   2.098  0.00  0.00     0.036 H 
ATOM     18  H11 <0> d           1.504  -4.703   1.300  0.00  0.00     0.075 H 
ATOM     19  H12 <0> d           0.213  -5.898   1.010  0.00  0.00     0.075 H 
ENDROOT
BRANCH   1  20
ATOM     20  C1  <0> d          -0.018   1.503   0.010  0.00  0.00    -0.051 C 
ATOM     21  H1  <0> d           1.004   1.880   0.003  0.00  0.00     0.033 H 
ATOM     22  H2  <0> d          -0.545   1.864  -0.873  0.00  0.00     0.033 H 
ATOM     23  H3  <0> d          -0.529   1.854   0.907  0.00  0.00     0.033 H 
ENDBRANCH   1  20
TORSDOF 1
