REMARK  5 active torsions:
REMARK  status: ('A' for Active; 'I' for Inactive)
REMARK    1  A    between atoms: C1_1  and  C2_2 
REMARK       I    between atoms: C2_2  and  N1_4 
REMARK    2  A    between atoms: N1_4  and  C3_5 
REMARK    3  A    between atoms: C3_5  and  C4_6 
REMARK    4  A    between atoms: C3_5  and  C5_7 
REMARK    5  A    between atoms: C3_5  and  C6_8 
ROOT
ATOM      1  C6  <0> d           2.379   0.774  -0.017  0.00  0.00    -0.086 C 
ATOM      2  C7  <0> d           3.282   0.024  -0.029  0.00  0.00    -0.151 C 
ATOM      3  H11 <0> d           4.089  -0.648  -0.041  0.00  0.00     0.166 H 
ENDROOT
BRANCH   1   4
ATOM      4  C3  <0> d           1.248   1.716  -0.001  0.00  0.00     0.088 C 
BRANCH   4   5
ATOM      5  N1  <0> d          -0.011   0.966   0.007  0.00  0.00    -0.342 N 
ATOM      6  C2  <0> d          -1.187   1.624   0.017  0.00  0.00     0.214 C 
ATOM      7  O1  <0> d          -1.204   2.837   0.023  0.00  0.00    -0.274 OA
ATOM      8  H4  <0> d           0.002  -0.004   0.002  0.00  0.00     0.164 HD
BRANCH   6   9
ATOM      9  C1  <0> d          -2.482   0.853   0.018  0.00  0.00    -0.003 C 
ATOM     10  H1  <0> d          -2.268  -0.216   0.012  0.00  0.00     0.040 H 
ATOM     11  H2  <0> d          -3.053   1.103   0.912  0.00  0.00     0.040 H 
ATOM     12  H3  <0> d          -3.061   1.113  -0.867  0.00  0.00     0.040 H 
ENDBRANCH   6   9
ENDBRANCH   4   5
BRANCH   4  13
ATOM     13  C4  <0> d           1.305   2.603  -1.246  0.00  0.00    -0.043 C 
ATOM     14  H5  <0> d           0.467   3.300  -1.234  0.00  0.00     0.032 H 
ATOM     15  H6  <0> d           2.241   3.161  -1.252  0.00  0.00     0.032 H 
ATOM     16  H7  <0> d           1.247   1.980  -2.139  0.00  0.00     0.032 H 
ENDBRANCH   4  13
BRANCH   4  17
ATOM     17  C5  <0> d           1.329   2.589   1.253  0.00  0.00    -0.043 C 
ATOM     18  H8  <0> d           1.288   1.957   2.140  0.00  0.00     0.032 H 
ATOM     19  H9  <0> d           2.265   3.147   1.247  0.00  0.00     0.032 H 
ATOM     20  H10 <0> d           0.491   3.286   1.264  0.00  0.00     0.032 H 
ENDBRANCH   4  17
ENDBRANCH   1   4
TORSDOF 5
