REMARK  3 active torsions:
REMARK  status: ('A' for Active; 'I' for Inactive)
REMARK    1  A    between atoms: C4_4  and  C7_7 
REMARK    2  A    between atoms: C7_7  and  C8_9 
REMARK    3  A    between atoms: C7_7  and  O2_12 
REMARK       I    between atoms: C8_9  and  N1_11 
ROOT
ATOM      1  C1  <0> d          -1.758   4.145  -3.617  0.00  0.00    -0.083 A 
ATOM      2  C2  <0> d          -1.252   4.764  -2.490  0.00  0.00    -0.082 A 
ATOM      3  C3  <0> d          -1.113   4.052  -1.313  0.00  0.00    -0.074 A 
ATOM      4  C4  <0> d          -1.481   2.721  -1.264  0.00  0.00    -0.021 A 
ATOM      5  C5  <0> d          -1.982   2.099  -2.393  0.00  0.00    -0.074 A 
ATOM      6  C6  <0> d          -2.125   2.813  -3.568  0.00  0.00    -0.082 A 
ATOM      7  H2  <0> d          -1.867   4.701  -4.536  0.00  0.00     0.083 H 
ATOM      8  H3  <0> d          -0.965   5.805  -2.529  0.00  0.00     0.083 H 
ATOM      9  H4  <0> d          -0.718   4.536  -0.433  0.00  0.00     0.084 H 
ATOM     10  H5  <0> d          -2.265   1.058  -2.355  0.00  0.00     0.084 H 
ATOM     11  H6  <0> d          -2.521   2.329  -4.449  0.00  0.00     0.083 H 
ENDROOT
BRANCH   4  12
ATOM     12  C7  <0> d          -1.330   1.944   0.019  0.00  0.00     0.137 C 
ATOM     13  H1  <0> d          -1.355   2.631   0.865  0.00  0.00     0.105 H 
BRANCH  12  14
ATOM     14  C8  <0> d          -0.014   1.209   0.009  0.00  0.00     0.248 C 
ATOM     15  O1  <0> d           0.002  -0.004   0.002  0.00  0.00    -0.270 OA
ATOM     16  N1  <0> d           1.143   1.898   0.001  0.00  0.00    -0.368 N 
ATOM     17  H7  <0> d           1.990   1.425  -0.009  0.00  0.00     0.159 HD
ATOM     18  H8  <0> d           1.130   2.868   0.007  0.00  0.00     0.159 HD
ENDBRANCH  12  14
BRANCH  12  19
ATOM     19  O2  <0> d          -2.400   1.005   0.136  0.00  0.00    -0.381 OA
ATOM     20  H9  <0> d          -2.439   0.361  -0.584  0.00  0.00     0.211 HD
ENDBRANCH  12  19
ENDBRANCH   4  12
TORSDOF 3
