REMARK  0 active torsions:
REMARK  status: ('A' for Active; 'I' for Inactive)
ROOT
ATOM      1  C1  <0> d          -3.184   1.216  -0.884  0.00  0.00    -0.062 C 
ATOM      2  C2  <0> d          -1.923   0.656  -1.518  0.00  0.00    -0.053 C 
ATOM      3  C3  <0> d          -0.727   1.580  -1.254  0.00  0.00     0.030 C 
ATOM      4  H1  <0> d          -0.040   1.532  -2.099  0.00  0.00     0.055 H 
ATOM      5  C4  <0> d          -0.013   1.086   0.008  0.00  0.00    -0.051 C 
ATOM      6  C5  <0> d          -0.694   1.561   1.273  0.00  0.00    -0.040 C 
ATOM      7  C6  <0> d          -2.007   2.294   1.038  0.00  0.00     0.048 C 
ATOM      8  H2  <0> d          -2.297   2.769   1.975  0.00  0.00     0.084 H 
ATOM      9  C7  <0> d          -3.096   1.294   0.638  0.00  0.00    -0.040 C 
ATOM     10  O1  <0> d          -1.901   3.312   0.017  0.00  0.00    -0.316 OA
ATOM     11  C8  <0> d          -1.160   3.005  -1.062  0.00  0.00     0.263 C 
ATOM     12  O2  <0> d          -0.849   3.857  -1.860  0.00  0.00    -0.265 OA
ATOM     13  H3  <0> d          -3.361   2.217  -1.278  0.00  0.00     0.033 H 
ATOM     14  H4  <0> d          -4.026   0.580  -1.156  0.00  0.00     0.033 H 
ATOM     15  H5  <0> d          -2.073   0.562  -2.594  0.00  0.00     0.034 H 
ATOM     16  H6  <0> d          -1.716  -0.328  -1.098  0.00  0.00     0.034 H 
ATOM     17  H7  <0> d           0.002  -0.004   0.002  0.00  0.00     0.034 H 
ATOM     18  H8  <0> d           1.014   1.453   0.000  0.00  0.00     0.034 H 
ATOM     19  H9  <0> d          -0.890   0.696   1.907  0.00  0.00     0.036 H 
ATOM     20  H10 <0> d          -0.015   2.228   1.803  0.00  0.00     0.036 H 
ATOM     21  H11 <0> d          -4.054   1.621   1.041  0.00  0.00     0.036 H 
ATOM     22  H12 <0> d          -2.850   0.310   1.038  0.00  0.00     0.036 H 
ENDROOT
TORSDOF 0
