REMARK  3 active torsions:
REMARK  status: ('A' for Active; 'I' for Inactive)
REMARK    1  A    between atoms: C1_1  and  N1_2 
REMARK    2  A    between atoms: N1_2  and  C2_3 
REMARK    3  A    between atoms: N5_7  and  C3_8 
ROOT
ATOM      1  C2  <0> d           1.178   1.674  -0.000  0.00  0.00     0.739 A 
ATOM      2  N2  <0> d           1.307   2.982  -0.000  0.00  0.00     0.065 NA
ATOM      3  N3  <0> d           2.549   3.311  -0.004  0.00  0.00    -0.008 NA
ATOM      4  N4  <0> d           3.291   2.258  -0.017  0.00  0.00    -0.031 NA
ATOM      5  N5  <0> d           2.425   1.150  -0.015  0.00  0.00    -0.083 N 
ENDROOT
BRANCH   1   6
ATOM      6  N1  <0> d          -0.011   0.966   0.007  0.00  0.00    -0.226 N 
ATOM      7  H4  <0> d           0.002  -0.004   0.002  0.00  0.00     0.177 HD
BRANCH   6   8
ATOM      8  C1  <0> d          -1.290   1.681   0.017  0.00  0.00    -0.005 C 
ATOM      9  H1  <0> d          -2.108   0.962   0.017  0.00  0.00     0.057 H 
ATOM     10  H2  <0> d          -1.352   2.302   0.911  0.00  0.00     0.057 H 
ATOM     11  H3  <0> d          -1.360   2.312  -0.869  0.00  0.00     0.057 H 
ENDBRANCH   6   8
ENDBRANCH   1   6
BRANCH   5  12
ATOM     12  C3  <0> d           2.795  -0.268  -0.026  0.00  0.00     0.021 C 
ATOM     13  H5  <0> d           2.876  -0.613  -1.057  0.00  0.00     0.060 H 
ATOM     14  H6  <0> d           3.752  -0.398   0.478  0.00  0.00     0.060 H 
ATOM     15  H7  <0> d           2.030  -0.847   0.491  0.00  0.00     0.060 H 
ENDBRANCH   5  12
TORSDOF 3
