REMARK  5 active torsions:
REMARK  status: ('A' for Active; 'I' for Inactive)
REMARK    1  A    between atoms: C1_1  and  C2_2 
REMARK    2  A    between atoms: C2_2  and  C3_4 
REMARK    3  A    between atoms: C2_2  and  O3_7 
REMARK    4  A    between atoms: O3_7  and  C4_8 
REMARK    5  A    between atoms: C4_8  and  C5_9 
ROOT
ATOM      1  C2  <0> d          -1.329   1.940   0.019  0.00  0.00     0.118 C 
ATOM      2  H1  <0> d          -1.397   2.594   0.901  0.00  0.00     0.099 H 
ENDROOT
BRANCH   1   3
ATOM      3  C1  <0> d          -1.483   2.728  -1.284  0.00  0.00    -0.043 C 
ATOM      4  H2  <0> d          -2.443   3.265  -1.276  0.00  0.00     0.031 H 
ATOM      5  H3  <0> d          -1.458   2.034  -2.137  0.00  0.00     0.031 H 
ATOM      6  H4  <0> d          -0.659   3.451  -1.374  0.00  0.00     0.031 H 
ENDBRANCH   1   3
BRANCH   1   7
ATOM      7  C3  <0> d          -0.014   1.204   0.009  0.00  0.00     0.202 C 
ATOM      8  O1  <0> d           0.002  -0.004   0.002  0.00  0.00    -0.646 OA
ATOM      9  O2  <0> d           1.139   1.891   0.001  0.00  0.00    -0.646 OA
ENDBRANCH   1   7
BRANCH   1  10
ATOM     10  O3  <0> d          -2.400   1.000   0.136  0.00  0.00    -0.372 OA
BRANCH  10  11
ATOM     11  C4  <0> d          -3.551   1.512   0.810  0.00  0.00     0.035 C 
ATOM     12  H5  <0> d          -3.274   1.818   1.829  0.00  0.00     0.080 H 
ATOM     13  H6  <0> d          -3.941   2.382   0.260  0.00  0.00     0.080 H 
BRANCH  11  14
ATOM     14  C5  <0> d          -4.612   0.443   0.876  0.00  0.00    -0.089 C 
ATOM     15  C6  <0> d          -5.261   0.233   1.994  0.00  0.00    -0.123 C 
ATOM     16  H8  <0> d          -6.034  -0.547   2.043  0.00  0.00     0.066 H 
ATOM     17  H9  <0> d          -5.032   0.837   2.885  0.00  0.00     0.066 H 
ATOM     18  H7  <0> d          -4.840  -0.161  -0.015  0.00  0.00     0.078 H 
ENDBRANCH  11  14
ENDBRANCH  10  11
ENDBRANCH   1  10
TORSDOF 5
