REMARK  0 active torsions:
REMARK  status: ('A' for Active; 'I' for Inactive)
ROOT
ATOM      1  C1  <0> d           2.324   1.454  -0.012  0.00  0.00    -0.053 A 
ATOM      2  C2  <0> d           1.088   2.041   0.003  0.00  0.00     0.003 A 
ATOM      3  N1  <0> d          -0.016   1.314   0.009  0.00  0.00    -0.270 NA
ATOM      4  C3  <0> d           0.002  -0.004   0.002  0.00  0.00     0.035 A 
ATOM      5  C4  <0> d           1.208  -0.688  -0.013  0.00  0.00     0.102 A 
ATOM      6  C5  <0> d           2.402   0.060  -0.021  0.00  0.00     0.002 A 
ATOM      7  C6  <0> d           3.483  -0.925  -0.036  0.00  0.00    -0.049 A 
ATOM      8  C7  <0> d           2.891  -2.130  -0.036  0.00  0.00     0.020 A 
ATOM      9  O1  <0> d           1.555  -1.989  -0.023  0.00  0.00    -0.320 OA
ATOM     10  H1  <0> d           3.220   2.056  -0.018  0.00  0.00     0.087 H 
ATOM     11  H2  <0> d           1.014   3.119   0.009  0.00  0.00     0.114 H 
ATOM     12  H3  <0> d          -0.927  -0.554   0.008  0.00  0.00     0.119 H 
ATOM     13  H4  <0> d           4.544  -0.724  -0.044  0.00  0.00     0.087 H 
ATOM     14  H5  <0> d           3.413  -3.075  -0.046  0.00  0.00     0.123 H 
ENDROOT
TORSDOF 0
