REMARK  0 active torsions:
REMARK  status: ('A' for Active; 'I' for Inactive)
ROOT
ATOM      1  C1  <0> d          -0.017   1.388   0.010  0.00  0.00    -0.052 A 
ATOM      2  C2  <0> d           1.192   2.060   0.002  0.00  0.00    -0.042 A 
ATOM      3  C3  <0> d           2.378   1.340  -0.013  0.00  0.00     0.126 A 
ATOM      4  N1  <0> d           2.378   0.024  -0.020  0.00  0.00    -0.235 NA
ATOM      5  C4  <0> d           1.242  -0.669  -0.013  0.00  0.00     0.086 A 
ATOM      6  C5  <0> d           0.002  -0.004   0.002  0.00  0.00     0.061 A 
ATOM      7  N2  <0> d          -0.980  -0.969   0.006  0.00  0.00    -0.364 N 
ATOM      8  H1  <0> d          -1.934  -0.793   0.017  0.00  0.00     0.165 HD
ATOM      9  C6  <0> d          -0.410  -2.210  -0.006  0.00  0.00    -0.020 A 
ATOM     10  C7  <0> d           0.929  -2.099  -0.018  0.00  0.00    -0.038 A 
ATOM     11 Cl1  <0> d           3.891   2.192  -0.023  0.00  0.00    -0.062 Cl
ATOM     12  H2  <0> d          -0.952   1.929   0.017  0.00  0.00     0.087 H 
ATOM     13  H3  <0> d           1.212   3.140   0.007  0.00  0.00     0.088 H 
ATOM     14  H4  <0> d          -0.955  -3.143  -0.005  0.00  0.00     0.111 H 
ATOM     15  H5  <0> d           1.640  -2.912  -0.030  0.00  0.00     0.089 H 
ENDROOT
TORSDOF 0
