REMARK  3 active torsions:
REMARK  status: ('A' for Active; 'I' for Inactive)
REMARK    1  A    between atoms: C3_4  and  C5_7 
REMARK    2  A    between atoms: C5_7  and  C6_8 
REMARK    3  A    between atoms: C6_8  and  O1_9 
ROOT
ATOM      1  C1  <0> d          -0.017   1.382   0.010  0.00  0.00    -0.049 A 
ATOM      2  C2  <0> d           1.193   2.058   0.002  0.00  0.00     0.005 A 
ATOM      3  N1  <0> d           2.319   1.362  -0.013  0.00  0.00    -0.246 NA
ATOM      4  C3  <0> d           2.298   0.044  -0.020  0.00  0.00     0.127 A 
ATOM      5  N2  <0> d           1.167  -0.632  -0.013  0.00  0.00    -0.246 NA
ATOM      6  C4  <0> d           0.002  -0.004   0.002  0.00  0.00     0.005 A 
ATOM      7  H1  <0> d          -0.952   1.922   0.026  0.00  0.00     0.087 H 
ATOM      8  H2  <0> d           1.217   3.137   0.007  0.00  0.00     0.114 H 
ATOM      9  H3  <0> d          -0.921  -0.564   0.008  0.00  0.00     0.114 H 
ENDROOT
BRANCH   4  10
ATOM     10  C5  <0> d           3.603  -0.710  -0.037  0.00  0.00     0.011 C 
ATOM     11  H4  <0> d           3.467  -1.659  -0.554  0.00  0.00     0.047 H 
ATOM     12  H5  <0> d           4.358  -0.118  -0.555  0.00  0.00     0.047 H 
BRANCH  10  13
ATOM     13  C6  <0> d           4.059  -0.973   1.400  0.00  0.00     0.023 C 
ATOM     14  H6  <0> d           4.195  -0.023   1.918  0.00  0.00     0.074 H 
ATOM     15  H7  <0> d           3.304  -1.564   1.918  0.00  0.00     0.074 H 
BRANCH  13  16
ATOM     16  O1  <0> d           5.296  -1.688   1.384  0.00  0.00    -0.400 OA
ATOM     17  H8  <0> d           5.645  -1.889   2.263  0.00  0.00     0.209 HD
ENDBRANCH  13  16
ENDBRANCH  10  13
ENDBRANCH   4  10
TORSDOF 3
