REMARK  9 active torsions:
REMARK  status: ('A' for Active; 'I' for Inactive)
REMARK    1  A    between atoms: C1_1  and  C2_2 
REMARK    2  A    between atoms: C2_2  and  C3_3 
REMARK    3  A    between atoms: C3_3  and  C4_4 
REMARK    4  A    between atoms: C4_4  and  C5_5 
REMARK    5  A    between atoms: C5_5  and  C6_7 
REMARK    6  A    between atoms: C5_5  and  C8_9 
REMARK    7  A    between atoms: C6_7  and  C7_8 
REMARK    8  A    between atoms: C8_9  and  C9_11 
REMARK    9  A    between atoms: C8_9  and  O1_12 
ROOT
ATOM      1  C5  <0> d           0.087   0.953   2.707  0.00  0.00    -0.030 C 
ATOM      2  H1  <0> d           0.426  -0.082   2.666  0.00  0.00     0.043 H 
ENDROOT
BRANCH   1   3
ATOM      3  C4  <0> d          -0.798   1.249   1.495  0.00  0.00    -0.059 C 
ATOM      4  H10 <0> d          -0.206   1.167   0.584  0.00  0.00     0.033 H 
ATOM      5  H11 <0> d          -1.201   2.258   1.577  0.00  0.00     0.033 H 
BRANCH   3   6
ATOM      6  C3  <0> d          -1.950   0.243   1.447  0.00  0.00    -0.065 C 
ATOM      7  H8  <0> d          -2.595   0.388   2.313  0.00  0.00     0.033 H 
ATOM      8  H9  <0> d          -1.548  -0.770   1.458  0.00  0.00     0.033 H 
BRANCH   6   9
ATOM      9  C2  <0> d          -2.760   0.455   0.166  0.00  0.00    -0.069 C 
ATOM     10  H6  <0> d          -3.162   1.468   0.155  0.00  0.00     0.032 H 
ATOM     11  H7  <0> d          -2.114   0.310  -0.700  0.00  0.00     0.032 H 
BRANCH   9  12
ATOM     12  C1  <0> d          -3.912  -0.551   0.118  0.00  0.00    -0.077 C 
ATOM     13  H3  <0> d          -4.489  -0.399  -0.794  0.00  0.00     0.027 H 
ATOM     14  H4  <0> d          -3.510  -1.564   0.130  0.00  0.00     0.027 H 
ATOM     15  H5  <0> d          -4.557  -0.406   0.985  0.00  0.00     0.027 H 
ENDBRANCH   9  12
ENDBRANCH   6   9
ENDBRANCH   3   6
ENDBRANCH   1   3
BRANCH   1  16
ATOM     16  C6  <0> d          -0.715   1.177   3.991  0.00  0.00    -0.063 C 
ATOM     17  H12 <0> d          -0.978   2.231   4.076  0.00  0.00     0.033 H 
ATOM     18  H13 <0> d          -1.624   0.577   3.960  0.00  0.00     0.033 H 
BRANCH  16  19
ATOM     19  C7  <0> d           0.129   0.762   5.198  0.00  0.00    -0.076 C 
ATOM     20  H14 <0> d          -0.442   0.921   6.112  0.00  0.00     0.027 H 
ATOM     21  H15 <0> d           0.392  -0.292   5.113  0.00  0.00     0.027 H 
ATOM     22  H16 <0> d           1.039   1.362   5.229  0.00  0.00     0.027 H 
ENDBRANCH  16  19
ENDBRANCH   1  16
BRANCH   1  23
ATOM     23  C8  <0> d           1.299   1.887   2.694  0.00  0.00     0.035 C 
ATOM     24  H2  <0> d           1.901   1.714   3.586  0.00  0.00     0.082 H 
BRANCH  23  25
ATOM     25  C9  <0> d           2.142   1.610   1.447  0.00  0.00    -0.052 C 
ATOM     26  H17 <0> d           1.578   1.889   0.558  0.00  0.00     0.030 H 
ATOM     27  H18 <0> d           3.061   2.194   1.494  0.00  0.00     0.030 H 
ATOM     28  H19 <0> d           2.388   0.549   1.403  0.00  0.00     0.030 H 
ENDBRANCH  23  25
BRANCH  23  29
ATOM     29  O1  <0> d           0.854   3.244   2.675  0.00  0.00    -0.396 OA
ATOM     30  H20 <0> d           0.311   3.470   1.908  0.00  0.00     0.210 HD
ENDBRANCH  23  29
ENDBRANCH   1  23
TORSDOF 9
