REMARK  1 active torsions:
REMARK  status: ('A' for Active; 'I' for Inactive)
REMARK    1  A    between atoms: C5_5  and  N1_7 
ROOT
ATOM      1  C1  <0> d          -1.168  -2.098   0.004  0.00  0.00    -0.081 A 
ATOM      2  C2  <0> d           0.039  -2.772  -0.012  0.00  0.00    -0.080 A 
ATOM      3  C3  <0> d           1.229  -2.067  -0.020  0.00  0.00    -0.043 A 
ATOM      4  C4  <0> d           1.215  -0.685  -0.013  0.00  0.00     0.142 A 
ATOM      5  C5  <0> d           0.002  -0.004   0.002  0.00  0.00     0.064 A 
ATOM      6  C6  <0> d          -1.190  -0.716   0.015  0.00  0.00    -0.055 A 
ATOM      7  F1  <0> d           2.377   0.004  -0.021  0.00  0.00    -0.204 F 
ATOM      8  H1  <0> d          -2.095  -2.651   0.011  0.00  0.00     0.083 H 
ATOM      9  H2  <0> d           0.053  -3.852  -0.017  0.00  0.00     0.083 H 
ATOM     10  H3  <0> d           2.170  -2.597  -0.032  0.00  0.00     0.088 H 
ATOM     11  H4  <0> d          -2.133  -0.191   0.032  0.00  0.00     0.087 H 
ENDROOT
BRANCH   5  12
ATOM     12  N1  <0> d          -0.017   1.394   0.010  0.00  0.00    -0.397 N 
ATOM     13  H5  <0> d           0.817   1.891   0.004  0.00  0.00     0.156 HD
ATOM     14  H6  <0> d          -0.863   1.868   0.016  0.00  0.00     0.156 HD
ENDBRANCH   5  12
TORSDOF 1
