REMARK  3 active torsions:
REMARK  status: ('A' for Active; 'I' for Inactive)
REMARK    1  A    between atoms: C1_1  and  C2_2 
REMARK    2  A    between atoms: C4_5  and  C5_8 
REMARK    3  A    between atoms: C5_8  and  C6_10 
ROOT
ATOM      1  C2  <0> d           0.002  -0.004   0.002  0.00  0.00     0.024 A 
ATOM      2  C3  <0> d           0.009  -0.804  -1.096  0.00  0.00     0.026 A 
ATOM      3  N1  <0> d           0.027  -2.070  -0.692  0.00  0.00    -0.238 NA
ATOM      4  C4  <0> d           0.033  -2.102   0.626  0.00  0.00     0.173 A 
ATOM      5  N2  <0> d           0.023  -0.812   1.086  0.00  0.00    -0.341 N 
ATOM      6  H1  <0> d           0.029  -0.531   2.014  0.00  0.00     0.167 HD
ATOM      7  H5  <0> d          -0.001  -0.469  -2.122  0.00  0.00     0.117 H 
ENDROOT
BRANCH   4   8
ATOM      8  C5  <0> d           0.053  -3.309   1.456  0.00  0.00     0.191 C 
ATOM      9  O1  <0> d           0.056  -3.214   2.666  0.00  0.00    -0.290 OA
BRANCH   8  10
ATOM     10  C6  <0> d           0.069  -4.670   0.808  0.00  0.00    -0.014 C 
ATOM     11  H6  <0> d           1.101  -4.983   0.647  0.00  0.00     0.038 H 
ATOM     12  H7  <0> d          -0.432  -5.388   1.456  0.00  0.00     0.038 H 
ATOM     13  H8  <0> d          -0.449  -4.621  -0.150  0.00  0.00     0.038 H 
ENDBRANCH   8  10
ENDBRANCH   4   8
BRANCH   1  14
ATOM     14  C1  <0> d          -0.018   1.503   0.010  0.00  0.00    -0.036 C 
ATOM     15  H2  <0> d           1.004   1.880   0.003  0.00  0.00     0.035 H 
ATOM     16  H3  <0> d          -0.545   1.864  -0.873  0.00  0.00     0.035 H 
ATOM     17  H4  <0> d          -0.529   1.854   0.907  0.00  0.00     0.035 H 
ENDBRANCH   1  14
TORSDOF 3
