REMARK  3 active torsions:
REMARK  status: ('A' for Active; 'I' for Inactive)
REMARK    1  A    between atoms: C4_4  and  O1_6 
REMARK    2  A    between atoms: O1_6  and  C6_7 
REMARK    3  A    between atoms: C6_7  and  C7_8 
ROOT
ATOM      1  C7  <0> d          -0.013   1.086   0.008  0.00  0.00     0.034 C 
ATOM      2  C8  <0> d          -0.725   1.573  -1.185  0.00  0.00     0.061 C 
ATOM      3  N1  <0> d          -1.274   1.950  -2.105  0.00  0.00    -0.197 NA
ATOM      4  H12 <0> d           1.019   1.466   0.000  0.00  0.00     0.058 H 
ATOM      5  H13 <0> d           0.002  -0.014   0.002  0.00  0.00     0.058 H 
ENDROOT
BRANCH   1   6
ATOM      6  C6  <0> d          -0.729   1.579   1.267  0.00  0.00     0.031 C 
ATOM      7  H10 <0> d          -1.761   1.198   1.275  0.00  0.00     0.075 H 
ATOM      8  H11 <0> d          -0.744   2.679   1.273  0.00  0.00     0.075 H 
BRANCH   6   9
ATOM      9  O1  <0> d          -0.038   1.106   2.425  0.00  0.00    -0.385 OA
BRANCH   9  10
ATOM     10  C4  <0> d          -0.628   1.513   3.661  0.00  0.00     0.038 C 
ATOM     11  C3  <0> d          -0.362   0.454   4.745  0.00  0.00    -0.041 C 
ATOM     12  C2  <0> d           0.443   1.157   5.858  0.00  0.00    -0.063 C 
ATOM     13  H5  <0> d           0.226  -0.383   4.341  0.00  0.00     0.036 H 
ATOM     14  H6  <0> d          -1.306   0.072   5.161  0.00  0.00     0.036 H 
ATOM     15  C1  <0> d           0.094   2.656   5.691  0.00  0.00    -0.063 C 
ATOM     16  H3  <0> d           1.527   1.016   5.735  0.00  0.00     0.033 H 
ATOM     17  H4  <0> d           0.141   0.820   6.861  0.00  0.00     0.033 H 
ATOM     18  C5  <0> d           0.025   2.821   4.152  0.00  0.00    -0.041 C 
ATOM     19  H1  <0> d           0.871   3.321   6.096  0.00  0.00     0.033 H 
ATOM     20  H2  <0> d          -0.879   2.918   6.132  0.00  0.00     0.033 H 
ATOM     21  H8  <0> d          -0.584   3.704   3.905  0.00  0.00     0.036 H 
ATOM     22  H9  <0> d           1.040   2.952   3.751  0.00  0.00     0.036 H 
ATOM     23  H7  <0> d          -1.696   1.624   3.420  0.00  0.00     0.083 H 
ENDBRANCH   9  10
ENDBRANCH   6   9
ENDBRANCH   1   6
TORSDOF 3
