REMARK  3 active torsions:
REMARK  status: ('A' for Active; 'I' for Inactive)
REMARK    1  A    between atoms: C1_1  and  C2_2 
REMARK    2  A    between atoms: C5_6  and  C6_7 
REMARK    3  A    between atoms: C6_7  and  O1_8 
ROOT
ATOM      1  C2  <0> d           0.029  -0.863   1.050  0.00  0.00    -0.046 A 
ATOM      2  C3  <0> d           0.040  -2.223   0.802  0.00  0.00    -0.070 A 
ATOM      3  C4  <0> d           0.035  -2.657  -0.482  0.00  0.00    -0.044 A 
ATOM      4  S1  <0> d           0.005  -1.121  -1.391  0.00  0.00    -0.104 SA
ATOM      5  C5  <0> d           0.002  -0.004   0.002  0.00  0.00     0.012 A 
ATOM      6  H4  <0> d           0.058  -2.929   1.619  0.00  0.00     0.085 H 
ATOM      7  H5  <0> d           0.045  -3.670  -0.858  0.00  0.00     0.095 H 
ENDROOT
BRANCH   5   8
ATOM      8  C6  <0> d          -0.018   1.503   0.010  0.00  0.00     0.047 C 
ATOM      9  H6  <0> d          -0.545   1.864  -0.873  0.00  0.00     0.082 H 
ATOM     10  H7  <0> d          -0.529   1.854   0.907  0.00  0.00     0.082 H 
BRANCH   8  11
ATOM     11  O1  <0> d           1.322   1.997   0.000  0.00  0.00    -0.396 OA
ATOM     12  H8  <0> d           1.385   2.962   0.005  0.00  0.00     0.209 HD
ENDBRANCH   8  11
ENDBRANCH   5   8
BRANCH   1  13
ATOM     13  C1  <0> d           0.043  -0.344   2.465  0.00  0.00    -0.050 C 
ATOM     14  H1  <0> d          -0.981  -0.232   2.821  0.00  0.00     0.033 H 
ATOM     15  H2  <0> d           0.576  -1.047   3.105  0.00  0.00     0.033 H 
ATOM     16  H3  <0> d           0.544   0.624   2.491  0.00  0.00     0.033 H 
ENDBRANCH   1  13
TORSDOF 3
