REMARK  1 active torsions:
REMARK  status: ('A' for Active; 'I' for Inactive)
REMARK    1  A    between atoms: C3_3  and  C7_8 
ROOT
ATOM      1  C1  <0> d          -0.019   1.526   0.010  0.00  0.00    -0.050 C 
ATOM      2  C2  <0> d           0.002  -0.004   0.002  0.00  0.00    -0.054 C 
ATOM      3  C3  <0> d           0.965  -0.482   1.096  0.00  0.00    -0.003 C 
ATOM      4  H1  <0> d           0.704  -0.013   2.045  0.00  0.00     0.047 H 
ATOM      5  C4  <0> d           2.388  -0.085   0.695  0.00  0.00    -0.042 C 
ATOM      6  C5  <0> d           2.429   1.362   0.302  0.00  0.00    -0.106 C 
ATOM      7  C6  <0> d           1.383   2.062  -0.000  0.00  0.00    -0.106 C 
ATOM      8  H2  <0> d          -0.549   1.885  -0.871  0.00  0.00     0.038 H 
ATOM      9  H3  <0> d          -0.532   1.875   0.906  0.00  0.00     0.038 H 
ATOM     10  H4  <0> d          -0.999  -0.385   0.203  0.00  0.00     0.034 H 
ATOM     11  H5  <0> d           0.345  -0.360  -0.969  0.00  0.00     0.034 H 
ATOM     12  H6  <0> d           3.060  -0.250   1.538  0.00  0.00     0.039 H 
ATOM     13  H7  <0> d           2.710  -0.698  -0.147  0.00  0.00     0.039 H 
ATOM     14  H8  <0> d           3.392   1.851   0.269  0.00  0.00     0.076 H 
ATOM     15  H9  <0> d           1.528   3.096  -0.277  0.00  0.00     0.076 H 
ENDROOT
BRANCH   3  16
ATOM     16  C7  <0> d           0.875  -2.003   1.232  0.00  0.00     0.135 C 
ATOM     17  O2  <0> d           1.780  -2.451   2.249  0.00  0.00    -0.359 OA
ATOM     18  C9  <0> d           0.996  -3.122   3.256  0.00  0.00     0.042 C 
ATOM     19  C8  <0> d          -0.296  -3.507   2.494  0.00  0.00     0.042 C 
ATOM     20  H13 <0> d           1.512  -4.013   3.615  0.00  0.00     0.077 H 
ATOM     21  H14 <0> d           0.770  -2.447   4.082  0.00  0.00     0.077 H 
ATOM     22  O1  <0> d          -0.461  -2.376   1.609  0.00  0.00    -0.359 OA
ATOM     23  H11 <0> d          -0.157  -4.429   1.931  0.00  0.00     0.077 H 
ATOM     24  H12 <0> d          -1.141  -3.593   3.178  0.00  0.00     0.077 H 
ATOM     25  H10 <0> d           1.131  -2.472   0.281  0.00  0.00     0.129 H 
ENDBRANCH   3  16
TORSDOF 1
