REMARK  2 active torsions:
REMARK  status: ('A' for Active; 'I' for Inactive)
REMARK    1  A    between atoms: C1_1  and  C2_2 
REMARK    2  A    between atoms: N1_8  and  C7_9 
ROOT
ATOM      1  C2  <0> d          -1.249   3.778   0.033  0.00  0.00     0.012 A 
ATOM      2  C3  <0> d          -1.242   2.425   0.021  0.00  0.00    -0.040 A 
ATOM      3  C4  <0> d          -0.021   1.732   0.012  0.00  0.00     0.041 A 
ATOM      4  C5  <0> d           1.147   2.439   0.004  0.00  0.00     0.004 A 
ATOM      5  C6  <0> d           1.101   3.842   0.012  0.00  0.00     0.248 A 
ATOM      6  O1  <0> d           2.139   4.486   0.005  0.00  0.00    -0.268 OA
ATOM      7  N1  <0> d          -0.085   4.478   0.025  0.00  0.00    -0.323 N 
ATOM      8 Cl1  <0> d           0.002  -0.004   0.002  0.00  0.00    -0.084 Cl
ATOM      9  H4  <0> d          -2.174   1.880   0.023  0.00  0.00     0.089 H 
ATOM     10  H5  <0> d           2.097   1.924  -0.007  0.00  0.00     0.094 H 
ENDROOT
BRANCH   1  11
ATOM     11  C1  <0> d          -2.563   4.516   0.049  0.00  0.00    -0.037 C 
ATOM     12  H1  <0> d          -2.889   4.699  -0.975  0.00  0.00     0.035 H 
ATOM     13  H2  <0> d          -3.311   3.916   0.567  0.00  0.00     0.035 H 
ATOM     14  H3  <0> d          -2.438   5.468   0.566  0.00  0.00     0.035 H 
ENDBRANCH   1  11
BRANCH   7  15
ATOM     15  C7  <0> d          -0.121   5.942   0.033  0.00  0.00    -0.011 C 
ATOM     16  H6  <0> d           0.897   6.331   0.025  0.00  0.00     0.057 H 
ATOM     17  H7  <0> d          -0.652   6.297  -0.851  0.00  0.00     0.057 H 
ATOM     18  H8  <0> d          -0.636   6.289   0.929  0.00  0.00     0.057 H 
ENDBRANCH   7  15
TORSDOF 2
