REMARK  2 active torsions:
REMARK  status: ('A' for Active; 'I' for Inactive)
REMARK    1  A    between atoms: C1_1  and  C2_2 
REMARK    2  A    between atoms: N2_6  and  C5_7 
ROOT
ATOM      1  C2  <0> d           1.279   0.580   1.077  0.00  0.00     0.034 A 
ATOM      2  C3  <0> d          -0.008   0.634   0.663  0.00  0.00    -0.041 A 
ATOM      3  C4  <0> d          -0.008   0.833  -0.722  0.00  0.00     0.024 A 
ATOM      4  N1  <0> d           1.236   0.895  -1.126  0.00  0.00    -0.180 NA
ATOM      5  N2  <0> d           2.068   0.738  -0.010  0.00  0.00    -0.239 N 
ATOM      6  H4  <0> d          -0.882   0.545   1.292  0.00  0.00     0.088 H 
ATOM      7  H5  <0> d          -0.882   0.920  -1.349  0.00  0.00     0.117 H 
ENDROOT
BRANCH   5   8
ATOM      8  C5  <0> d           3.469   0.744  -0.019  0.00  0.00     0.058 A 
ATOM      9  C10 <0> d           4.173  -0.177   0.745  0.00  0.00    -0.055 A 
ATOM     10  C9  <0> d           5.555  -0.169   0.734  0.00  0.00    -0.081 A 
ATOM     11  H10 <0> d           3.642  -0.899   1.347  0.00  0.00     0.087 H 
ATOM     12  C8  <0> d           6.236   0.755  -0.037  0.00  0.00    -0.083 A 
ATOM     13  H9  <0> d           6.103  -0.886   1.327  0.00  0.00     0.083 H 
ATOM     14  C7  <0> d           5.538   1.674  -0.798  0.00  0.00    -0.081 A 
ATOM     15  H8  <0> d           7.316   0.759  -0.044  0.00  0.00     0.083 H 
ATOM     16  C6  <0> d           4.156   1.667  -0.795  0.00  0.00    -0.055 A 
ATOM     17  H7  <0> d           6.073   2.395  -1.398  0.00  0.00     0.083 H 
ATOM     18  H6  <0> d           3.611   2.382  -1.394  0.00  0.00     0.087 H 
ENDBRANCH   5   8
BRANCH   1  19
ATOM     19  C1  <0> d           1.749   0.378   2.494  0.00  0.00    -0.035 C 
ATOM     20  H1  <0> d           1.954  -0.679   2.662  0.00  0.00     0.035 H 
ATOM     21  H2  <0> d           2.659   0.955   2.661  0.00  0.00     0.035 H 
ATOM     22  H3  <0> d           0.975   0.712   3.185  0.00  0.00     0.035 H 
ENDBRANCH   1  19
TORSDOF 2
