REMARK  1 active torsions:
REMARK  status: ('A' for Active; 'I' for Inactive)
REMARK    1  A    between atoms: C3_5  and  C4_6 
ROOT
ATOM      1  C1  <0> d          -1.351   3.457   0.033  0.00  0.00    -0.040 A 
ATOM      2  C2  <0> d          -2.615   3.951   0.036  0.00  0.00    -0.025 A 
ATOM      3  S1  <0> d          -3.575   2.513   0.034  0.00  0.00    -0.000 SA
ATOM      4  N1  <0> d          -2.447   1.413   0.022  0.00  0.00    -0.205 NA
ATOM      5  C3  <0> d          -1.304   2.063   0.019  0.00  0.00     0.142 A 
ATOM      6  H1  <0> d          -0.469   4.080   0.036  0.00  0.00     0.088 H 
ATOM      7  H2  <0> d          -2.939   4.981   0.044  0.00  0.00     0.097 H 
ENDROOT
BRANCH   5   8
ATOM      8  C4  <0> d          -0.016   1.343   0.009  0.00  0.00     0.229 C 
ATOM      9  O1  <0> d           1.028   1.965   0.003  0.00  0.00    -0.643 OA
ATOM     10  O2  <0> d           0.002  -0.004   0.002  0.00  0.00    -0.643 OA
ENDBRANCH   5   8
TORSDOF 1
