REMARK  2 active torsions:
REMARK  status: ('A' for Active; 'I' for Inactive)
REMARK    1  A    between atoms: C1_1  and  C2_2 
REMARK    2  A    between atoms: C8_9  and  C11_12 
ROOT
ATOM      1  C2  <0> d           0.154   2.450   4.624  0.00  0.00    -0.032 A 
ATOM      2  C3  <0> d          -0.465   2.889   5.753  0.00  0.00    -0.075 A 
ATOM      3  C4  <0> d          -1.840   3.116   5.778  0.00  0.00    -0.082 A 
ATOM      4  C5  <0> d          -2.603   2.904   4.671  0.00  0.00    -0.071 A 
ATOM      5  C6  <0> d          -1.998   2.451   3.488  0.00  0.00    -0.007 A 
ATOM      6  C7  <0> d          -0.600   2.219   3.460  0.00  0.00     0.073 A 
ATOM      7  N1  <0> d          -0.020   1.788   2.336  0.00  0.00    -0.253 NA
ATOM      8  C8  <0> d          -0.718   1.572   1.248  0.00  0.00     0.031 A 
ATOM      9  C9  <0> d          -2.094   1.785   1.206  0.00  0.00    -0.059 A 
ATOM     10  C10 <0> d          -2.752   2.219   2.321  0.00  0.00    -0.069 A 
ATOM     11  H4  <0> d           0.118   3.065   6.645  0.00  0.00     0.084 H 
ATOM     12  H5  <0> d          -2.306   3.465   6.688  0.00  0.00     0.083 H 
ATOM     13  H6  <0> d          -3.667   3.084   4.702  0.00  0.00     0.084 H 
ATOM     14  H7  <0> d          -2.642   1.602   0.293  0.00  0.00     0.086 H 
ATOM     15  H8  <0> d          -3.818   2.386   2.308  0.00  0.00     0.085 H 
ENDROOT
BRANCH   1  16
ATOM     16  C1  <0> d           1.642   2.211   4.621  0.00  0.00    -0.049 C 
ATOM     17  H1  <0> d           2.156   3.126   4.326  0.00  0.00     0.033 H 
ATOM     18  H2  <0> d           1.965   1.918   5.620  0.00  0.00     0.033 H 
ATOM     19  H3  <0> d           1.881   1.417   3.914  0.00  0.00     0.033 H 
ENDBRANCH   1  16
BRANCH   8  20
ATOM     20  C11 <0> d          -0.013   1.086   0.008  0.00  0.00    -0.035 C 
ATOM     21  H9  <0> d           0.002  -0.004   0.002  0.00  0.00     0.035 H 
ATOM     22  H10 <0> d           1.010   1.463   0.000  0.00  0.00     0.035 H 
ATOM     23  H11 <0> d          -0.540   1.447  -0.875  0.00  0.00     0.035 H 
ENDBRANCH   8  20
TORSDOF 2
