REMARK  0 active torsions:
REMARK  status: ('A' for Active; 'I' for Inactive)
ROOT
ATOM      1  C1  <0> d          -0.013   1.076   0.008  0.00  0.00    -0.059 A 
ATOM      2  C2  <0> d           1.143   1.768   0.001  0.00  0.00    -0.043 A 
ATOM      3  S1  <0> d           0.584   3.461   0.014  0.00  0.00    -0.101 SA
ATOM      4  C3  <0> d          -1.179   3.157   0.029  0.00  0.00     0.022 A 
ATOM      5  C4  <0> d          -1.229   1.760   0.017  0.00  0.00     0.022 A 
ATOM      6  S2  <0> d          -2.992   1.457   0.024  0.00  0.00    -0.101 SA
ATOM      7  C5  <0> d          -3.551   3.149   0.035  0.00  0.00    -0.043 A 
ATOM      8  C6  <0> d          -2.395   3.841   0.045  0.00  0.00    -0.059 A 
ATOM      9  H1  <0> d           0.002  -0.004   0.002  0.00  0.00     0.086 H 
ATOM     10  H2  <0> d           2.155   1.391  -0.010  0.00  0.00     0.095 H 
ATOM     11  H3  <0> d          -4.563   3.526   0.042  0.00  0.00     0.095 H 
ATOM     12  H4  <0> d          -2.410   4.921   0.050  0.00  0.00     0.086 H 
ENDROOT
TORSDOF 0
