REMARK  2 active torsions:
REMARK  status: ('A' for Active; 'I' for Inactive)
REMARK    1  A    between atoms: C1_1  and  C2_2 
REMARK    2  A    between atoms: N2_8  and  C6_10 
ROOT
ATOM      1  C2  <0> d           0.002  -0.004   0.002  0.00  0.00    -0.026 C 
ATOM      2  H1  <0> d           0.512  -0.358  -0.894  0.00  0.00     0.044 H 
ATOM      3  C3  <0> d          -1.434  -0.538   0.022  0.00  0.00     0.001 C 
ATOM      4  N1  <0> d          -1.402  -1.998   0.130  0.00  0.00    -0.343 N 
ATOM      5  C4  <0> d          -0.393  -2.630   0.747  0.00  0.00     0.317 C 
ATOM      6  O1  <0> d          -0.420  -3.844   0.818  0.00  0.00    -0.247 OA
ATOM      7  N2  <0> d           0.645  -1.976   1.290  0.00  0.00    -0.338 N 
ATOM      8  C5  <0> d           0.735  -0.516   1.247  0.00  0.00     0.003 C 
ATOM      9  H5  <0> d          -1.966  -0.122   0.878  0.00  0.00     0.064 H 
ATOM     10  H6  <0> d          -1.942  -0.252  -0.899  0.00  0.00     0.064 H 
ATOM     11  H7  <0> d          -2.125  -2.518  -0.253  0.00  0.00     0.164 HD
ATOM     12  H8  <0> d           1.781  -0.213   1.204  0.00  0.00     0.065 H 
ATOM     13  H9  <0> d           0.270  -0.098   2.140  0.00  0.00     0.065 H 
ENDROOT
BRANCH   1  14
ATOM     14  C1  <0> d          -0.019   1.526   0.010  0.00  0.00    -0.070 C 
ATOM     15  H2  <0> d           1.004   1.903   0.003  0.00  0.00     0.028 H 
ATOM     16  H3  <0> d          -0.546   1.887  -0.873  0.00  0.00     0.028 H 
ATOM     17  H4  <0> d          -0.529   1.877   0.907  0.00  0.00     0.028 H 
ENDBRANCH   1  14
BRANCH   7  18
ATOM     18  C6  <0> d           1.715  -2.740   1.937  0.00  0.00    -0.015 C 
ATOM     19  H10 <0> d           1.490  -3.805   1.875  0.00  0.00     0.056 H 
ATOM     20  H11 <0> d           2.660  -2.539   1.434  0.00  0.00     0.056 H 
ATOM     21  H12 <0> d           1.790  -2.445   2.984  0.00  0.00     0.056 H 
ENDBRANCH   7  18
TORSDOF 2
