REMARK  4 active torsions:
REMARK  status: ('A' for Active; 'I' for Inactive)
REMARK    1  A    between atoms: C1_1  and  C2_2 
REMARK    2  A    between atoms: C2_2  and  C3_3 
REMARK    3  A    between atoms: C3_3  and  C4_5 
REMARK    4  A    between atoms: C3_3  and  C5_6 
ROOT
ATOM      1  C3  <0> d           0.742  -0.511   1.242  0.00  0.00    -0.051 C 
ATOM      2  H1  <0> d           1.735  -0.063   1.280  0.00  0.00     0.040 H 
ENDROOT
BRANCH   1   3
ATOM      3  C2  <0> d           0.002  -0.004   0.002  0.00  0.00    -0.065 C 
ATOM      4  H6  <0> d          -1.020  -0.381   0.010  0.00  0.00     0.033 H 
ATOM      5  H7  <0> d           0.512  -0.356  -0.895  0.00  0.00     0.033 H 
BRANCH   3   6
ATOM      6  C1  <0> d          -0.019   1.526   0.010  0.00  0.00    -0.076 C 
ATOM      7  H3  <0> d           1.004   1.903   0.003  0.00  0.00     0.027 H 
ATOM      8  H4  <0> d          -0.546   1.887  -0.873  0.00  0.00     0.027 H 
ATOM      9  H5  <0> d          -0.529   1.877   0.907  0.00  0.00     0.027 H 
ENDBRANCH   3   6
ENDBRANCH   1   3
BRANCH   1  10
ATOM     10  C4  <0> d          -0.042  -0.124   2.497  0.00  0.00    -0.072 C 
ATOM     11  H8  <0> d           0.486  -0.485   3.380  0.00  0.00     0.028 H 
ATOM     12  H9  <0> d          -0.134   0.961   2.548  0.00  0.00     0.028 H 
ATOM     13  H10 <0> d          -1.034  -0.572   2.458  0.00  0.00     0.028 H 
ENDBRANCH   1  10
BRANCH   1  14
ATOM     14  C5  <0> d           0.872  -2.034   1.171  0.00  0.00    -0.034 C 
ATOM     15  H2  <0> d          -0.114  -2.496   1.119  0.00  0.00     0.046 H 
ATOM     16  C9  <0> d           1.706  -2.436  -0.023  0.00  0.00    -0.102 C 
ATOM     17  C8  <0> d           2.576  -3.356   0.301  0.00  0.00    -0.106 C 
ATOM     18  H16 <0> d           1.597  -2.018  -1.013  0.00  0.00     0.076 H 
ATOM     19  C7  <0> d           2.463  -3.720   1.764  0.00  0.00    -0.049 C 
ATOM     20  H15 <0> d           3.282  -3.798  -0.386  0.00  0.00     0.076 H 
ATOM     21  C6  <0> d           1.653  -2.565   2.395  0.00  0.00    -0.055 C 
ATOM     22  H13 <0> d           3.452  -3.783   2.217  0.00  0.00     0.038 H 
ATOM     23  H14 <0> d           1.932  -4.665   1.879  0.00  0.00     0.038 H 
ATOM     24  H11 <0> d           2.314  -1.799   2.801  0.00  0.00     0.034 H 
ATOM     25  H12 <0> d           0.972  -2.938   3.161  0.00  0.00     0.034 H 
ENDBRANCH   1  14
TORSDOF 4
