REMARK  0 active torsions:
REMARK  status: ('A' for Active; 'I' for Inactive)
ROOT
ATOM      1  C1  <0> d           1.234  -0.673  -0.013  0.00  0.00    -0.066 A 
ATOM      2  C2  <0> d           0.002  -0.004   0.002  0.00  0.00    -0.055 A 
ATOM      3  C3  <0> d          -0.016   1.360   0.009  0.00  0.00     0.102 A 
ATOM      4  C4  <0> d           1.201   2.065   0.002  0.00  0.00     0.267 A 
ATOM      5  O1  <0> d           1.199   3.286   0.008  0.00  0.00    -0.266 OA
ATOM      6  N1  <0> d           2.368   1.393  -0.013  0.00  0.00    -0.332 N 
ATOM      7  H1  <0> d           3.320   1.945  -0.019  0.00  0.00     0.168 HD
ATOM      8  C5  <0> d           2.388   0.035  -0.021  0.00  0.00    -0.020 A 
ATOM      9 Cl1  <0> d          -1.526   2.217   0.021  0.00  0.00    -0.078 Cl
ATOM     10  H2  <0> d           1.263  -1.752  -0.019  0.00  0.00     0.085 H 
ATOM     11  H3  <0> d          -0.922  -0.563   0.008  0.00  0.00     0.086 H 
ATOM     12  H4  <0> d           3.334  -0.485  -0.032  0.00  0.00     0.111 H 
ENDROOT
TORSDOF 0
