REMARK  1 active torsions:
REMARK  status: ('A' for Active; 'I' for Inactive)
REMARK    1  A    between atoms: C3_3  and  C6_7 
REMARK       I    between atoms: C6_7  and  N1_9 
ROOT
ATOM      1  C1  <0> d          -0.019   1.541   0.011  0.00  0.00    -0.056 C 
ATOM      2  C2  <0> d           1.489   1.880  -0.002  0.00  0.00    -0.033 C 
ATOM      3  C3  <0> d           2.164   0.674   0.609  0.00  0.00     0.042 C 
ATOM      4  C4  <0> d           1.333  -0.379   0.612  0.00  0.00     0.096 C 
ATOM      5  O1  <0> d           1.643  -1.600   1.090  0.00  0.00    -0.196 OA
ATOM      6  C5  <0> d           0.002  -0.004   0.002  0.00  0.00    -0.017 C 
ATOM      7  H1  <0> d          -0.496   1.919   0.915  0.00  0.00     0.034 H 
ATOM      8  H2  <0> d          -0.513   1.929  -0.880  0.00  0.00     0.034 H 
ATOM      9  H3  <0> d           1.835   2.031  -1.025  0.00  0.00     0.040 H 
ATOM     10  H4  <0> d           1.683   2.768   0.599  0.00  0.00     0.040 H 
ATOM     11  H5  <0> d          -0.816  -0.398   0.606  0.00  0.00     0.043 H 
ATOM     12  H6  <0> d          -0.066  -0.379  -1.019  0.00  0.00     0.043 H 
ENDROOT
BRANCH   3  13
ATOM     13  C6  <0> d           3.490   0.658   1.110  0.00  0.00     0.247 C 
ATOM     14  O2  <0> d           3.949  -0.364   1.586  0.00  0.00    -0.268 OA
ATOM     15  N1  <0> d           4.244   1.775   1.059  0.00  0.00    -0.366 N 
ATOM     16  H7  <0> d           3.878   2.589   0.680  0.00  0.00     0.159 HD
ATOM     17  H8  <0> d           5.151   1.764   1.402  0.00  0.00     0.159 HD
ENDBRANCH   3  13
TORSDOF 1
