REMARK  6 active torsions:
REMARK  status: ('A' for Active; 'I' for Inactive)
REMARK    1  A    between atoms: C1_1  and  C2_2 
REMARK       I    between atoms: C2_2  and  N1_4 
REMARK    2  A    between atoms: N1_4  and  C3_5 
REMARK    3  A    between atoms: C3_5  and  C4_6 
REMARK    4  A    between atoms: C4_6  and  C5_7 
REMARK    5  A    between atoms: C5_7  and  C6_8 
REMARK    6  A    between atoms: C6_8  and  O2_9 
ROOT
ATOM      1  C3  <0> d           2.393   5.250   0.007  0.00  0.00    -0.005 C 
ATOM      2  H5  <0> d           1.851   5.562   0.912  0.00  0.00     0.064 H 
ATOM      3  H6  <0> d           1.834   5.572  -0.884  0.00  0.00     0.064 H 
ENDROOT
BRANCH   1   4
ATOM      4  N1  <0> d           3.723   5.864  -0.002  0.00  0.00    -0.361 N 
ATOM      5  C2  <0> d           3.845   7.206   0.004  0.00  0.00     0.213 C 
ATOM      6  O1  <0> d           2.854   7.905   0.017  0.00  0.00    -0.274 OA
ATOM      7  H4  <0> d           4.621   5.229  -0.014  0.00  0.00     0.162 HD
BRANCH   5   8
ATOM      8  C1  <0> d           5.213   7.838  -0.006  0.00  0.00    -0.003 C 
ATOM      9  H1  <0> d           5.981   7.050  -0.017  0.00  0.00     0.040 H 
ATOM     10  H2  <0> d           5.338   8.457   0.895  0.00  0.00     0.040 H 
ATOM     11  H3  <0> d           5.321   8.467  -0.901  0.00  0.00     0.040 H 
ENDBRANCH   5   8
ENDBRANCH   1   4
BRANCH   1  12
ATOM     12  C4  <0> d           2.534   3.726  -0.002  0.00  0.00    -0.048 C 
ATOM     13  H7  <0> d           3.076   3.414  -0.907  0.00  0.00     0.035 H 
ATOM     14  H8  <0> d           3.093   3.405   0.889  0.00  0.00     0.035 H 
BRANCH  12  15
ATOM     15  C5  <0> d           1.145   3.085   0.008  0.00  0.00    -0.044 C 
ATOM     16  H9  <0> d           0.603   3.397   0.913  0.00  0.00     0.036 H 
ATOM     17  H10 <0> d           0.586   3.407  -0.883  0.00  0.00     0.036 H 
BRANCH  15  18
ATOM     18  C6  <0> d           1.286   1.562  -0.002  0.00  0.00     0.017 C 
ATOM     19  H11 <0> d           1.828   1.250  -0.907  0.00  0.00     0.073 H 
ATOM     20  H12 <0> d           1.845   1.240   0.889  0.00  0.00     0.073 H 
BRANCH  18  21
ATOM     21  O2  <0> d          -0.011   0.963   0.007  0.00  0.00    -0.401 OA
ATOM     22  H13 <0> d          -0.111  -0.133   0.002  0.00  0.00     0.209 HD
ENDBRANCH  18  21
ENDBRANCH  15  18
ENDBRANCH  12  15
ENDBRANCH   1  12
TORSDOF 6
