REMARK  3 active torsions:
REMARK  status: ('A' for Active; 'I' for Inactive)
REMARK    1  A    between atoms: C1_1  and  C2_2 
REMARK    2  A    between atoms: C4_4  and  N1_10 
REMARK    3  A    between atoms: C5_5  and  C8_9 
ROOT
ATOM      1  C2  <0> d          -1.230   2.406   0.021  0.00  0.00    -0.038 A 
ATOM      2  C3  <0> d          -1.251   3.787   0.033  0.00  0.00    -0.050 A 
ATOM      3  C4  <0> d          -0.059   4.499   0.026  0.00  0.00     0.032 A 
ATOM      4  C5  <0> d           1.153   3.820   0.012  0.00  0.00    -0.034 A 
ATOM      5  C6  <0> d           1.168   2.439   0.004  0.00  0.00    -0.054 A 
ATOM      6  C7  <0> d          -0.021   1.732   0.012  0.00  0.00     0.040 A 
ATOM      7 Cl1  <0> d           0.002  -0.004   0.002  0.00  0.00    -0.084 Cl
ATOM      8  H4  <0> d          -2.195   4.313   0.045  0.00  0.00     0.087 H 
ATOM      9  H5  <0> d           2.110   1.910  -0.007  0.00  0.00     0.087 H 
ENDROOT
BRANCH   1  10
ATOM     10  C1  <0> d          -2.523   1.633   0.023  0.00  0.00    -0.050 C 
ATOM     11  H1  <0> d          -2.830   1.441   1.052  0.00  0.00     0.033 H 
ATOM     12  H2  <0> d          -3.294   2.213  -0.484  0.00  0.00     0.033 H 
ATOM     13  H3  <0> d          -2.381   0.685  -0.496  0.00  0.00     0.033 H 
ENDBRANCH   1  10
BRANCH   3  14
ATOM     14  N1  <0> d          -0.078   5.896   0.035  0.00  0.00    -0.399 N 
ATOM     15  H9  <0> d           0.755   6.393   0.030  0.00  0.00     0.156 HD
ATOM     16  H10 <0> d          -0.924   6.370   0.045  0.00  0.00     0.156 HD
ENDBRANCH   3  14
BRANCH   4  17
ATOM     17  C8  <0> d           2.449   4.589   0.004  0.00  0.00    -0.049 C 
ATOM     18  H6  <0> d           2.752   4.779  -1.025  0.00  0.00     0.033 H 
ATOM     19  H7  <0> d           2.311   5.537   0.524  0.00  0.00     0.033 H 
ATOM     20  H8  <0> d           3.220   4.006   0.508  0.00  0.00     0.033 H 
ENDBRANCH   4  17
TORSDOF 3
