REMARK  3 active torsions:
REMARK  status: ('A' for Active; 'I' for Inactive)
REMARK    1  A    between atoms: C1_1  and  C2_2 
REMARK    2  A    between atoms: C4_4  and  C8_9 
REMARK    3  A    between atoms: C6_6  and  O1_8 
ROOT
ATOM      1  C2  <0> d           2.522   5.099   0.006  0.00  0.00    -0.058 A 
ATOM      2  C3  <0> d           2.472   3.720   0.004  0.00  0.00    -0.061 A 
ATOM      3  C4  <0> d           1.238   3.067   0.007  0.00  0.00     0.043 A 
ATOM      4  C5  <0> d           0.059   3.814   0.022  0.00  0.00    -0.035 A 
ATOM      5  C6  <0> d           0.121   5.197   0.029  0.00  0.00     0.067 A 
ATOM      6  C7  <0> d           1.353   5.838   0.021  0.00  0.00    -0.045 A 
ATOM      7  H4  <0> d           3.387   3.147  -0.003  0.00  0.00     0.086 H 
ATOM      8  H5  <0> d          -0.899   3.314   0.028  0.00  0.00     0.089 H 
ATOM      9  H6  <0> d           1.398   6.917   0.026  0.00  0.00     0.088 H 
ENDROOT
BRANCH   1  10
ATOM     10  C1  <0> d           3.854   5.803  -0.003  0.00  0.00    -0.051 C 
ATOM     11  H1  <0> d           4.185   5.967   1.023  0.00  0.00     0.033 H 
ATOM     12  H2  <0> d           4.586   5.189  -0.527  0.00  0.00     0.033 H 
ATOM     13  H3  <0> d           3.755   6.763  -0.510  0.00  0.00     0.033 H 
ENDBRANCH   1  10
BRANCH   5  14
ATOM     14  O1  <0> d          -1.025   5.928   0.044  0.00  0.00    -0.361 OA
ATOM     15  H7  <0> d          -1.348   6.135   0.931  0.00  0.00     0.217 HD
ENDBRANCH   5  14
BRANCH   3  16
ATOM     16  C8  <0> d           1.181   1.591  -0.001  0.00  0.00     0.209 C 
ATOM     17  O2  <0> d           2.208   0.943  -0.014  0.00  0.00    -0.644 OA
ATOM     18  O3  <0> d          -0.011   0.963   0.007  0.00  0.00    -0.644 OA
ENDBRANCH   3  16
TORSDOF 3
