REMARK  2 active torsions:
REMARK  status: ('A' for Active; 'I' for Inactive)
REMARK    1  A    between atoms: C2_2  and  C3_3 
REMARK    2  A    between atoms: C6_6  and  N1_10 
ROOT
ATOM      1  C1  <0> d           0.018  -1.178  -0.004  0.00  0.00    -0.149 C 
ATOM      2  C2  <0> d           0.002  -0.004   0.002  0.00  0.00    -0.075 C 
ATOM      3  H1  <0> d           0.032  -2.228  -0.010  0.00  0.00     0.166 H 
ENDROOT
BRANCH   2   4
ATOM      4  C3  <0> d          -0.017   1.428   0.010  0.00  0.00     0.058 A 
ATOM      5  C8  <0> d           1.183   2.145   0.002  0.00  0.00     0.137 A 
ATOM      6  C7  <0> d           1.160   3.526   0.005  0.00  0.00    -0.016 A 
ATOM      7  F1  <0> d           2.363   1.488  -0.013  0.00  0.00    -0.204 F 
ATOM      8  C6  <0> d          -0.053   4.202   0.026  0.00  0.00     0.067 A 
ATOM      9  H3  <0> d           2.087   4.080  -0.006  0.00  0.00     0.091 H 
ATOM     10  C5  <0> d          -1.250   3.490   0.039  0.00  0.00     0.144 A 
ATOM     11  C4  <0> d          -1.235   2.111   0.031  0.00  0.00    -0.022 A 
ATOM     12  F2  <0> d          -2.428   4.152   0.059  0.00  0.00    -0.204 F 
ATOM     13  H2  <0> d          -2.164   1.560   0.041  0.00  0.00     0.090 H 
BRANCH   8  14
ATOM     14  N1  <0> d          -0.072   5.598   0.033  0.00  0.00    -0.397 N 
ATOM     15  H4  <0> d          -0.919   6.072   0.047  0.00  0.00     0.156 HD
ATOM     16  H5  <0> d           0.761   6.095   0.024  0.00  0.00     0.156 HD
ENDBRANCH   8  14
ENDBRANCH   2   4
TORSDOF 2
