REMARK  2 active torsions:
REMARK  status: ('A' for Active; 'I' for Inactive)
REMARK    1  A    between atoms: C3_3  and  N1_4 
REMARK       I    between atoms: N1_4  and  C4_5 
REMARK    2  A    between atoms: C4_5  and  C5_7 
ROOT
ATOM      1  C5  <0> d          -2.482   0.853   0.018  0.00  0.00     0.088 C 
ATOM      2  C6  <0> d          -3.614   1.794   0.029  0.00  0.00     0.068 C 
ATOM      3  N2  <0> d          -4.487   2.520   0.037  0.00  0.00    -0.197 NA
ATOM      4  H7  <0> d          -2.535   0.230  -0.875  0.00  0.00     0.069 H 
ATOM      5  H8  <0> d          -2.527   0.220   0.905  0.00  0.00     0.069 H 
ENDROOT
BRANCH   1   6
ATOM      6  C4  <0> d          -1.187   1.624   0.017  0.00  0.00     0.231 C 
ATOM      7  N1  <0> d          -0.011   0.966   0.007  0.00  0.00    -0.356 N 
ATOM      8  H6  <0> d           0.002  -0.004   0.002  0.00  0.00     0.162 HD
ATOM      9  O1  <0> d          -1.204   2.837   0.023  0.00  0.00    -0.273 OA
BRANCH   7  10
ATOM     10  C3  <0> d           1.248   1.716  -0.001  0.00  0.00     0.012 A 
ATOM     11  C1  <0> d           2.347   1.240  -0.952  0.00  0.00    -0.044 A 
ATOM     12  C2  <0> d           2.490   1.016   0.555  0.00  0.00    -0.044 A 
ATOM     13  H1  <0> d           2.134   0.369  -1.572  0.00  0.00     0.036 H 
ATOM     14  H2  <0> d           2.980   2.000  -1.410  0.00  0.00     0.036 H 
ATOM     15  H3  <0> d           3.216   1.630   1.089  0.00  0.00     0.036 H 
ATOM     16  H4  <0> d           2.370  -0.001   0.928  0.00  0.00     0.036 H 
ATOM     17  H5  <0> d           1.157   2.789   0.167  0.00  0.00     0.072 H 
ENDBRANCH   7  10
ENDBRANCH   1   6
TORSDOF 2
