REMARK  3 active torsions:
REMARK  status: ('A' for Active; 'I' for Inactive)
REMARK    1  A    between atoms: C1_1  and  C2_2 
REMARK    2  A    between atoms: C3_3  and  C6_12 
REMARK    3  A    between atoms: C6_12  and  O3_13 
ROOT
ATOM      1  C2  <0> d          -0.071   3.637  -0.085  0.00  0.00     0.023 A 
ATOM      2  C3  <0> d           1.120   3.074   0.212  0.00  0.00     0.056 A 
ATOM      3  C4  <0> d           2.266   3.899   0.308  0.00  0.00     0.259 A 
ATOM      4  O1  <0> d           3.352   3.414   0.569  0.00  0.00    -0.267 OA
ATOM      5  N1  <0> d           2.145   5.227   0.106  0.00  0.00    -0.275 N 
ATOM      6  H1  <0> d           2.950   5.817   0.172  0.00  0.00     0.173 HD
ATOM      7  C5  <0> d           0.944   5.762  -0.184  0.00  0.00     0.327 A 
ATOM      8  O2  <0> d           0.850   6.961  -0.364  0.00  0.00    -0.247 OA
ATOM      9  N2  <0> d          -0.153   4.989  -0.277  0.00  0.00    -0.312 N 
ATOM     10  H2  <0> d          -1.037   5.407  -0.489  0.00  0.00     0.170 HD
ENDROOT
BRANCH   2  11
ATOM     11  C6  <0> d           1.228   1.588   0.433  0.00  0.00     0.048 C 
ATOM     12  H6  <0> d           1.837   1.147  -0.356  0.00  0.00     0.081 H 
ATOM     13  H7  <0> d           0.233   1.144   0.415  0.00  0.00     0.081 H 
BRANCH  11  14
ATOM     14  O3  <0> d           1.838   1.338   1.701  0.00  0.00    -0.396 OA
ATOM     15  H8  <0> d           1.940   0.399   1.910  0.00  0.00     0.209 HD
ENDBRANCH  11  14
ENDBRANCH   2  11
BRANCH   1  16
ATOM     16  C1  <0> d          -1.306   2.780  -0.199  0.00  0.00    -0.037 C 
ATOM     17  H3  <0> d          -1.738   2.632   0.791  0.00  0.00     0.035 H 
ATOM     18  H4  <0> d          -2.033   3.274  -0.843  0.00  0.00     0.035 H 
ATOM     19  H5  <0> d          -1.039   1.813  -0.626  0.00  0.00     0.035 H 
ENDBRANCH   1  16
TORSDOF 3
