REMARK  0 active torsions:
REMARK  status: ('A' for Active; 'I' for Inactive)
ROOT
ATOM      1  C1  <0> d          -0.019   1.543   0.011  0.00  0.00    -0.064 C 
ATOM      2  C2  <0> d           1.474   1.948  -0.002  0.00  0.00    -0.061 C 
ATOM      3  C3  <0> d           2.199   0.846   0.775  0.00  0.00    -0.046 C 
ATOM      4  H1  <0> d           2.410   1.161   1.810  0.00  0.00     0.041 H 
ATOM      5  C4  <0> d           3.492   0.385   0.055  0.00  0.00    -0.050 C 
ATOM      6  H2  <0> d           4.395   0.961   0.273  0.00  0.00     0.040 H 
ATOM      7  C5  <0> d           3.156   0.195  -1.449  0.00  0.00    -0.061 C 
ATOM      8  C6  <0> d           2.197  -1.018  -1.484  0.00  0.00    -0.061 C 
ATOM      9  C7  <0> d           2.084  -1.477  -0.004  0.00  0.00    -0.050 C 
ATOM     10  H3  <0> d           1.773  -2.513   0.152  0.00  0.00     0.040 H 
ATOM     11  C8  <0> d           3.534  -1.126   0.504  0.00  0.00    -0.058 C 
ATOM     12  C9  <0> d           1.272  -0.399   0.760  0.00  0.00    -0.046 C 
ATOM     13  H4  <0> d           1.041  -0.727   1.786  0.00  0.00     0.041 H 
ATOM     14  C10 <0> d           0.002  -0.004   0.002  0.00  0.00    -0.061 C 
ATOM     15  H5  <0> d          -0.510   1.915   0.912  0.00  0.00     0.033 H 
ATOM     16  H6  <0> d          -0.526   1.925  -0.878  0.00  0.00     0.033 H 
ATOM     17  H7  <0> d           1.833   2.072  -1.014  0.00  0.00     0.033 H 
ATOM     18  H8  <0> d           1.589   2.909   0.527  0.00  0.00     0.033 H 
ATOM     19  H9  <0> d           2.710   1.066  -1.904  0.00  0.00     0.033 H 
ATOM     20  H10 <0> d           4.074  -0.059  -2.000  0.00  0.00     0.033 H 
ATOM     21  H11 <0> d           1.246  -0.750  -1.922  0.00  0.00     0.033 H 
ATOM     22  H12 <0> d           2.651  -1.819  -2.084  0.00  0.00     0.033 H 
ATOM     23  H13 <0> d           4.298  -1.686  -0.030  0.00  0.00     0.034 H 
ATOM     24  H14 <0> d           3.621  -1.225   1.583  0.00  0.00     0.034 H 
ATOM     25  H15 <0> d          -0.882  -0.377   0.544  0.00  0.00     0.033 H 
ATOM     26  H16 <0> d          -0.034  -0.390  -1.008  0.00  0.00     0.033 H 
ENDROOT
TORSDOF 0
