REMARK  2 active torsions:
REMARK  status: ('A' for Active; 'I' for Inactive)
REMARK    1  A    between atoms: C1_1  and  C2_2 
REMARK    2  A    between atoms: C11_11  and  N1_12 
ROOT
ATOM      1  C2  <0> d          -0.017   1.388   0.010  0.00  0.00    -0.035 A 
ATOM      2  C3  <0> d           0.002  -0.004   0.002  0.00  0.00    -0.074 A 
ATOM      3  C4  <0> d           1.177  -0.691  -0.013  0.00  0.00    -0.072 A 
ATOM      4  C5  <0> d           2.398   0.006  -0.021  0.00  0.00    -0.024 A 
ATOM      5  C6  <0> d           3.626  -0.677  -0.036  0.00  0.00    -0.072 A 
ATOM      6  C7  <0> d           4.790   0.029  -0.042  0.00  0.00    -0.082 A 
ATOM      7  C8  <0> d           4.783   1.423  -0.034  0.00  0.00    -0.082 A 
ATOM      8  C9  <0> d           3.611   2.117  -0.020  0.00  0.00    -0.070 A 
ATOM      9  C10 <0> d           2.392   1.422  -0.013  0.00  0.00     0.001 A 
ATOM     10  C11 <0> d           1.158   2.108   0.002  0.00  0.00     0.043 A 
ATOM     11  H4  <0> d          -0.931  -0.548   0.008  0.00  0.00     0.084 H 
ATOM     12  H5  <0> d           1.172  -1.771  -0.019  0.00  0.00     0.084 H 
ATOM     13  H6  <0> d           3.647  -1.757  -0.042  0.00  0.00     0.084 H 
ATOM     14  H7  <0> d           5.732  -0.498  -0.052  0.00  0.00     0.083 H 
ATOM     15  H8  <0> d           5.720   1.960  -0.039  0.00  0.00     0.083 H 
ATOM     16  H9  <0> d           3.621   3.197  -0.015  0.00  0.00     0.084 H 
ENDROOT
BRANCH   1  17
ATOM     17  C1  <0> d          -1.337   2.115   0.020  0.00  0.00    -0.049 C 
ATOM     18  H1  <0> d          -1.650   2.284   1.050  0.00  0.00     0.033 H 
ATOM     19  H2  <0> d          -1.228   3.072  -0.489  0.00  0.00     0.033 H 
ATOM     20  H3  <0> d          -2.087   1.513  -0.494  0.00  0.00     0.033 H 
ENDBRANCH   1  17
BRANCH  10  21
ATOM     21  N1  <0> d           1.129   3.501   0.011  0.00  0.00    -0.398 N 
ATOM     22  H10 <0> d           0.278   3.968   0.021  0.00  0.00     0.156 HD
ATOM     23  H11 <0> d           1.958   4.004   0.005  0.00  0.00     0.156 HD
ENDBRANCH  10  21
TORSDOF 2
