REMARK  4 active torsions:
REMARK  status: ('A' for Active; 'I' for Inactive)
REMARK    1  A    between atoms: C1_1  and  C2_2 
REMARK    2  A    between atoms: C3_3  and  C5_9 
REMARK    3  A    between atoms: C5_9  and  C6_10 
REMARK    4  A    between atoms: C5_9  and  C7_11 
ROOT
ATOM      1  C2  <0> d           0.002  -0.004   0.002  0.00  0.00     0.007 A 
ATOM      2  C3  <0> d          -1.024  -0.860   0.002  0.00  0.00     0.029 A 
ATOM      3  N1  <0> d          -0.724  -2.191  -0.007  0.00  0.00    -0.320 N 
ATOM      4  H1  <0> d          -1.432  -2.854  -0.008  0.00  0.00     0.169 HD
ATOM      5  C4  <0> d           0.571  -2.571  -0.015  0.00  0.00     0.288 A 
ATOM      6  O1  <0> d           1.027  -3.700  -0.024  0.00  0.00    -0.260 OA
ATOM      7  S1  <0> d           1.401  -1.109  -0.018  0.00  0.00    -0.032 SA
ENDROOT
BRANCH   2   8
ATOM      8  C5  <0> d          -2.451  -0.376   0.011  0.00  0.00    -0.020 C 
ATOM      9  H5  <0> d          -2.465   0.714   0.018  0.00  0.00     0.048 H 
BRANCH   8  10
ATOM     10  C6  <0> d          -3.171  -0.888  -1.238  0.00  0.00    -0.068 C 
ATOM     11  H6  <0> d          -4.204  -0.538  -1.230  0.00  0.00     0.028 H 
ATOM     12  H7  <0> d          -2.666  -0.513  -2.128  0.00  0.00     0.028 H 
ATOM     13  H8  <0> d          -3.157  -1.978  -1.244  0.00  0.00     0.028 H 
ENDBRANCH   8  10
BRANCH   8  14
ATOM     14  C7  <0> d          -3.159  -0.903   1.261  0.00  0.00    -0.068 C 
ATOM     15  H9  <0> d          -2.646  -0.539   2.151  0.00  0.00     0.028 H 
ATOM     16  H10 <0> d          -4.192  -0.553   1.268  0.00  0.00     0.028 H 
ATOM     17  H11 <0> d          -3.145  -1.993   1.254  0.00  0.00     0.028 H 
ENDBRANCH   8  14
ENDBRANCH   2   8
BRANCH   1  18
ATOM     18  C1  <0> d          -0.018   1.503   0.010  0.00  0.00    -0.043 C 
ATOM     19  H2  <0> d           1.004   1.880   0.003  0.00  0.00     0.034 H 
ATOM     20  H3  <0> d          -0.545   1.864  -0.873  0.00  0.00     0.034 H 
ATOM     21  H4  <0> d          -0.529   1.854   0.907  0.00  0.00     0.034 H 
ENDBRANCH   1  18
TORSDOF 4
