REMARK  1 active torsions:
REMARK  status: ('A' for Active; 'I' for Inactive)
REMARK    1  A    between atoms: C4_5  and  N3_7 
ROOT
ATOM      1  C1  <0> d          -0.016   1.317   0.009  0.00  0.00     0.043 A 
ATOM      2  C2  <0> d           1.173   2.034   0.002  0.00  0.00     0.145 A 
ATOM      3  N1  <0> d           2.331   1.403  -0.013  0.00  0.00    -0.220 NA
ATOM      4  C3  <0> d           2.364   0.073  -0.021  0.00  0.00     0.183 A 
ATOM      5  C4  <0> d           1.160  -0.652  -0.012  0.00  0.00     0.161 A 
ATOM      6  N2  <0> d           0.002  -0.004   0.002  0.00  0.00    -0.238 NA
ATOM      7  C5  <0> d           3.619  -0.616  -0.037  0.00  0.00     0.123 C 
ATOM      8  N4  <0> d           4.614  -1.163  -0.050  0.00  0.00    -0.190 NA
ATOM      9 Cl1  <0> d           1.134   3.769   0.011  0.00  0.00    -0.061 Cl
ATOM     10  H1  <0> d          -0.960   1.841   0.026  0.00  0.00     0.119 H 
ENDROOT
BRANCH   5  11
ATOM     11  N3  <0> d           1.182  -2.037  -0.020  0.00  0.00    -0.382 N 
ATOM     12  H2  <0> d           2.030  -2.508  -0.031  0.00  0.00     0.157 HD
ATOM     13  H3  <0> d           0.350  -2.535  -0.014  0.00  0.00     0.157 HD
ENDBRANCH   5  11
TORSDOF 1
