REMARK  7 active torsions:
REMARK  status: ('A' for Active; 'I' for Inactive)
REMARK    1  A    between atoms: C2_2  and  C3_3 
REMARK    2  A    between atoms: C3_3  and  C4_4 
REMARK    3  A    between atoms: C4_4  and  C5_5 
REMARK    4  A    between atoms: C4_4  and  C8_8 
REMARK    5  A    between atoms: C4_4  and  O1_11 
REMARK    6  A    between atoms: C5_5  and  C6_6 
REMARK    7  A    between atoms: C8_8  and  C9_9 
ROOT
ATOM      1  C4  <0> d          -3.232   1.415   1.277  0.00  0.00     0.067 C 
ENDROOT
BRANCH   1   2
ATOM      2  C3  <0> d          -2.387   1.276   0.010  0.00  0.00    -0.021 C 
ATOM      3  H4  <0> d          -3.012   1.455  -0.865  0.00  0.00     0.043 H 
ATOM      4  H5  <0> d          -1.970   0.270  -0.041  0.00  0.00     0.043 H 
BRANCH   2   5
ATOM      5  C2  <0> d          -1.266   2.283   0.041  0.00  0.00    -0.109 C 
ATOM      6  C1  <0> d          -0.025   1.886  -0.099  0.00  0.00    -0.125 C 
ATOM      7  H1  <0> d           0.195   0.837  -0.235  0.00  0.00     0.066 H 
ATOM      8  H2  <0> d           0.778   2.608  -0.081  0.00  0.00     0.066 H 
ATOM      9  H3  <0> d          -1.485   3.331   0.178  0.00  0.00     0.075 H 
ENDBRANCH   2   5
ENDBRANCH   1   2
BRANCH   1  10
ATOM     10  C5  <0> d          -4.368   0.390   1.248  0.00  0.00    -0.021 C 
ATOM     11  H6  <0> d          -3.951  -0.616   1.288  0.00  0.00     0.043 H 
ATOM     12  H7  <0> d          -5.021   0.547   2.106  0.00  0.00     0.043 H 
BRANCH  10  13
ATOM     13  C6  <0> d          -5.160   0.555  -0.024  0.00  0.00    -0.109 C 
ATOM     14  C7  <0> d          -5.337  -0.467  -0.823  0.00  0.00    -0.125 C 
ATOM     15  H9  <0> d          -5.905  -0.349  -1.734  0.00  0.00     0.066 H 
ATOM     16  H10 <0> d          -4.915  -1.429  -0.570  0.00  0.00     0.066 H 
ATOM     17  H8  <0> d          -5.582   1.517  -0.276  0.00  0.00     0.075 H 
ENDBRANCH  10  13
ENDBRANCH   1  10
BRANCH   1  18
ATOM     18  C8  <0> d          -2.353   1.167   2.505  0.00  0.00    -0.021 C 
ATOM     19  H11 <0> d          -1.916   0.170   2.444  0.00  0.00     0.043 H 
ATOM     20  H12 <0> d          -1.558   1.911   2.539  0.00  0.00     0.043 H 
BRANCH  18  21
ATOM     21  C9  <0> d          -3.193   1.271   3.753  0.00  0.00    -0.109 C 
ATOM     22  C10 <0> d          -3.224   0.278   4.606  0.00  0.00    -0.125 C 
ATOM     23  H14 <0> d          -3.825   0.353   5.500  0.00  0.00     0.066 H 
ATOM     24  H15 <0> d          -2.647  -0.615   4.417  0.00  0.00     0.066 H 
ATOM     25  H13 <0> d          -3.769   2.165   3.943  0.00  0.00     0.075 H 
ENDBRANCH  18  21
ENDBRANCH   1  18
BRANCH   1  26
ATOM     26  O1  <0> d          -3.780   2.733   1.342  0.00  0.00    -0.389 OA
ATOM     27  H16 <0> d          -4.329   2.892   2.123  0.00  0.00     0.210 HD
ENDBRANCH   1  26
TORSDOF 7
