REMARK  5 active torsions:
REMARK  status: ('A' for Active; 'I' for Inactive)
REMARK    1  A    between atoms: C1_1  and  C2_2 
REMARK    2  A    between atoms: C2_2  and  C3_3 
REMARK    3  A    between atoms: C3_3  and  O1_4 
REMARK    4  A    between atoms: O1_4  and  C4_5 
REMARK    5  A    between atoms: C4_5  and  C5_7 
ROOT
ATOM      1  O1  <0> d          -0.016   1.345   0.009  0.00  0.00    -0.316 OA
ENDROOT
BRANCH   1   2
ATOM      2  C3  <0> d           1.268   2.022   0.001  0.00  0.00     0.029 C 
ATOM      3  H6  <0> d           1.838   1.732   0.884  0.00  0.00     0.075 H 
ATOM      4  H7  <0> d           1.821   1.741  -0.896  0.00  0.00     0.075 H 
BRANCH   2   5
ATOM      5  C2  <0> d           1.047   3.535   0.011  0.00  0.00    -0.048 C 
ATOM      6  H4  <0> d           0.478   3.825  -0.872  0.00  0.00     0.035 H 
ATOM      7  H5  <0> d           0.495   3.816   0.908  0.00  0.00     0.035 H 
BRANCH   5   8
ATOM      8  C1  <0> d           2.401   4.248   0.002  0.00  0.00    -0.075 C 
ATOM      9  H1  <0> d           2.970   3.958   0.885  0.00  0.00     0.027 H 
ATOM     10  H2  <0> d           2.953   3.968  -0.895  0.00  0.00     0.027 H 
ATOM     11  H3  <0> d           2.244   5.327   0.009  0.00  0.00     0.027 H 
ENDBRANCH   5   8
ENDBRANCH   2   5
ENDBRANCH   1   2
BRANCH   1  12
ATOM     12  C4  <0> d           0.002  -0.004   0.002  0.00  0.00     0.317 C 
ATOM     13  O2  <0> d           1.063  -0.598  -0.011  0.00  0.00    -0.257 OA
BRANCH  12  14
ATOM     14  C5  <0> d          -1.256  -0.754   0.010  0.00  0.00     0.149 A 
ATOM     15  O3  <0> d          -2.496  -0.222   0.031  0.00  0.00    -0.317 OA
ATOM     16  C8  <0> d          -3.403  -1.207   0.029  0.00  0.00     0.020 A 
ATOM     17  C7  <0> d          -2.756  -2.394   0.016  0.00  0.00    -0.059 A 
ATOM     18  H10 <0> d          -4.475  -1.076   0.041  0.00  0.00     0.123 H 
ATOM     19  C6  <0> d          -1.381  -2.114   0.004  0.00  0.00    -0.042 A 
ATOM     20  H9  <0> d          -3.211  -3.373   0.015  0.00  0.00     0.086 H 
ATOM     21  H8  <0> d          -0.576  -2.835  -0.008  0.00  0.00     0.088 H 
ENDBRANCH  12  14
ENDBRANCH   1  12
TORSDOF 5
