REMARK  0 active torsions:
REMARK  status: ('A' for Active; 'I' for Inactive)
ROOT
ATOM      1  C1  <0> d          -1.221   1.752   0.017  0.00  0.00    -0.082 A 
ATOM      2  C2  <0> d          -1.242   3.136   0.029  0.00  0.00    -0.082 A 
ATOM      3  C3  <0> d          -0.062   3.851   0.023  0.00  0.00    -0.072 A 
ATOM      4  C4  <0> d           1.161   3.176   0.008  0.00  0.00    -0.030 A 
ATOM      5  C5  <0> d           1.169   1.780   0.001  0.00  0.00    -0.044 A 
ATOM      6  C6  <0> d          -0.013   1.076   0.008  0.00  0.00    -0.076 A 
ATOM      7  C7  <0> d           2.620   1.365  -0.015  0.00  0.00    -0.025 A 
ATOM      8  C8  <0> d           3.408   2.654  -0.015  0.00  0.00    -0.098 A 
ATOM      9  C9  <0> d           2.554   3.662  -0.002  0.00  0.00    -0.076 A 
ATOM     10  H1  <0> d          -2.148   1.199   0.019  0.00  0.00     0.083 H 
ATOM     11  H2  <0> d          -2.187   3.659   0.041  0.00  0.00     0.083 H 
ATOM     12  H3  <0> d          -0.085   4.931   0.029  0.00  0.00     0.084 H 
ATOM     13  H4  <0> d           0.002  -0.004   0.002  0.00  0.00     0.084 H 
ATOM     14  H5  <0> d           2.854   0.779   0.874  0.00  0.00     0.046 H 
ATOM     15  H6  <0> d           2.838   0.789  -0.914  0.00  0.00     0.046 H 
ATOM     16  H7  <0> d           4.485   2.737  -0.024  0.00  0.00     0.077 H 
ATOM     17  H8  <0> d           2.838   4.704   0.002  0.00  0.00     0.084 H 
ENDROOT
TORSDOF 0
