REMARK  3 active torsions:
REMARK  status: ('A' for Active; 'I' for Inactive)
REMARK    1  A    between atoms: C1_1  and  C2_2 
REMARK    2  A    between atoms: C6_6  and  C7_8 
REMARK    3  A    between atoms: C7_8  and  C8_10 
ROOT
ATOM      1  C2  <0> d           1.094   2.029   0.003  0.00  0.00     0.031 A 
ATOM      2  C3  <0> d           2.333   1.407  -0.013  0.00  0.00    -0.059 A 
ATOM      3  C4  <0> d           2.399   0.022  -0.020  0.00  0.00    -0.079 A 
ATOM      4  C5  <0> d           1.213  -0.696  -0.013  0.00  0.00    -0.051 A 
ATOM      5  C6  <0> d           0.002  -0.004   0.002  0.00  0.00     0.102 A 
ATOM      6  N1  <0> d          -0.016   1.325   0.009  0.00  0.00    -0.250 NA
ATOM      7  H4  <0> d           3.238   1.995  -0.018  0.00  0.00     0.086 H 
ATOM      8  H5  <0> d           3.352  -0.485  -0.032  0.00  0.00     0.083 H 
ATOM      9  H6  <0> d           1.227  -1.776  -0.019  0.00  0.00     0.087 H 
ENDROOT
BRANCH   5  10
ATOM     10  C7  <0> d          -1.269  -0.753   0.010  0.00  0.00     0.174 C 
ATOM     11  O1  <0> d          -1.258  -1.966   0.004  0.00  0.00    -0.291 OA
BRANCH  10  12
ATOM     12  C8  <0> d          -2.581  -0.012   0.027  0.00  0.00    -0.015 C 
ATOM     13  H7  <0> d          -2.880   0.157  -0.912  0.00  0.00     0.038 H 
ATOM     14  H8  <0> d          -3.330  -0.611   0.544  0.00  0.00     0.038 H 
ATOM     15  H9  <0> d          -2.454   0.939   0.544  0.00  0.00     0.038 H 
ENDBRANCH  10  12
ENDBRANCH   5  10
BRANCH   1  16
ATOM     16  C1  <0> d           1.018   3.534   0.011  0.00  0.00    -0.035 C 
ATOM     17  H1  <0> d           1.010   3.892   1.040  0.00  0.00     0.035 H 
ATOM     18  H2  <0> d           1.884   3.944  -0.509  0.00  0.00     0.035 H 
ATOM     19  H3  <0> d           0.106   3.855  -0.493  0.00  0.00     0.035 H 
ENDBRANCH   1  16
TORSDOF 3
