REMARK  0 active torsions:
REMARK  status: ('A' for Active; 'I' for Inactive)
ROOT
ATOM      1  C1  <0> d          -0.013   1.076   0.008  0.00  0.00    -0.081 A 
ATOM      2  C2  <0> d           1.178   1.783   0.000  0.00  0.00    -0.075 A 
ATOM      3  C3  <0> d           1.169   3.159   0.007  0.00  0.00    -0.035 A 
ATOM      4  C4  <0> d          -0.048   3.856   0.023  0.00  0.00     0.038 A 
ATOM      5  C5  <0> d          -1.249   3.128   0.031  0.00  0.00     0.048 A 
ATOM      6  C6  <0> d          -1.220   1.749   0.017  0.00  0.00    -0.061 A 
ATOM      7 Cl1  <0> d          -2.770   3.965   0.050  0.00  0.00    -0.083 Cl
ATOM      8  C7  <0> d           0.582   5.193   0.023  0.00  0.00     0.166 A 
ATOM      9  O1  <0> d           0.205   6.345   0.031  0.00  0.00    -0.292 OA
ATOM     10  C8  <0> d           1.907   4.473   0.006  0.00  0.00     0.020 A 
ATOM     11  H1  <0> d           0.002  -0.004   0.002  0.00  0.00     0.083 H 
ATOM     12  H2  <0> d           2.119   1.252  -0.011  0.00  0.00     0.084 H 
ATOM     13  H3  <0> d          -2.146   1.193   0.018  0.00  0.00     0.086 H 
ATOM     14  H4  <0> d           2.519   4.513   0.796  0.00  0.00     0.052 H 
ATOM     15  H5  <0> d           2.481   4.644  -0.905  0.00  0.00     0.052 H 
ENDROOT
TORSDOF 0
