REMARK  2 active torsions:
REMARK  status: ('A' for Active; 'I' for Inactive)
REMARK    1  A    between atoms: C1_1  and  N1_2 
REMARK    2  A    between atoms: C4_7  and  N5_11 
ROOT
ATOM      1  N1  <0> d          -0.698   1.558   1.213  0.00  0.00    -0.272 N 
ATOM      2  C2  <0> d          -0.112   1.827   2.415  0.00  0.00     0.087 A 
ATOM      3  C3  <0> d           1.187   1.773   2.923  0.00  0.00     0.052 A 
ATOM      4  N2  <0> d           1.407   2.115   4.174  0.00  0.00    -0.158 NA
ATOM      5  N3  <0> d           0.479   2.502   4.969  0.00  0.00    -0.132 NA
ATOM      6  C4  <0> d          -0.788   2.593   4.600  0.00  0.00     0.157 A 
ATOM      7  C5  <0> d          -1.141   2.252   3.281  0.00  0.00     0.060 A 
ATOM      8  C6  <0> d          -2.340   2.220   2.541  0.00  0.00     0.038 A 
ATOM      9  N4  <0> d          -2.070   1.819   1.330  0.00  0.00    -0.184 NA
ATOM     10  H4  <0> d           2.005   1.453   2.294  0.00  0.00     0.121 H 
ATOM     11  H5  <0> d          -3.318   2.488   2.913  0.00  0.00     0.119 H 
ENDROOT
BRANCH   1  12
ATOM     12  C1  <0> d          -0.013   1.086   0.008  0.00  0.00     0.003 C 
ATOM     13  H1  <0> d           0.002  -0.004   0.002  0.00  0.00     0.059 H 
ATOM     14  H2  <0> d           1.010   1.463   0.000  0.00  0.00     0.059 H 
ATOM     15  H3  <0> d          -0.540   1.447  -0.875  0.00  0.00     0.059 H 
ENDBRANCH   1  12
BRANCH   6  16
ATOM     16  N5  <0> d          -1.754   3.018   5.500  0.00  0.00    -0.382 N 
ATOM     17  H6  <0> d          -1.503   3.251   6.407  0.00  0.00     0.157 HD
ATOM     18  H7  <0> d          -2.681   3.082   5.222  0.00  0.00     0.157 HD
ENDBRANCH   6  16
TORSDOF 2
