REMARK  2 active torsions:
REMARK  status: ('A' for Active; 'I' for Inactive)
REMARK    1  A    between atoms: C3_3  and  C4_4 
REMARK    2  A    between atoms: C6_10  and  N4_12 
ROOT
ATOM      1  C4  <0> d          -0.378  -0.712   1.277  0.00  0.00     0.105 A 
ATOM      2  N1  <0> d          -0.236  -0.086   2.466  0.00  0.00    -0.295 N 
ATOM      3  H1  <0> d           0.110   0.820   2.502  0.00  0.00     0.172 HD
ATOM      4  C5  <0> d          -0.579  -0.727   3.602  0.00  0.00     0.363 A 
ATOM      5  O1  <0> d          -0.456  -0.173   4.681  0.00  0.00    -0.244 OA
ATOM      6  N2  <0> d          -1.055  -1.974   3.537  0.00  0.00    -0.006 NA
ATOM      7  C6  <0> d          -1.188  -2.572   2.361  0.00  0.00     0.704 A 
ATOM      8  N3  <0> d          -0.851  -1.933   1.232  0.00  0.00    -0.178 N 
ATOM      9  H9  <0> d          -0.955  -2.378   0.377  0.00  0.00     0.185 HD
ENDROOT
BRANCH   1  10
ATOM     10  C3  <0> d           0.002  -0.004   0.002  0.00  0.00     0.003 A 
ATOM     11  C1  <0> d          -0.019   1.526   0.010  0.00  0.00    -0.054 A 
ATOM     12  C2  <0> d           1.317   0.779  -0.006  0.00  0.00    -0.054 A 
ATOM     13  H2  <0> d          -0.307   2.020   0.938  0.00  0.00     0.034 H 
ATOM     14  H3  <0> d          -0.325   2.030  -0.906  0.00  0.00     0.034 H 
ATOM     15  H4  <0> d           1.889   0.792  -0.934  0.00  0.00     0.034 H 
ATOM     16  H5  <0> d           1.906   0.782   0.910  0.00  0.00     0.034 H 
ATOM     17  H6  <0> d          -0.290  -0.506  -0.920  0.00  0.00     0.051 H 
ENDBRANCH   1  10
BRANCH   7  18
ATOM     18  N4  <0> d          -1.677  -3.853   2.299  0.00  0.00    -0.233 N 
ATOM     19  H7  <0> d          -1.925  -4.318   3.114  0.00  0.00     0.174 HD
ATOM     20  H8  <0> d          -1.775  -4.294   1.441  0.00  0.00     0.174 HD
ENDBRANCH   7  18
TORSDOF 2
