REMARK  5 active torsions:
REMARK  status: ('A' for Active; 'I' for Inactive)
REMARK    1  A    between atoms: C1_1  and  C2_2 
REMARK    2  A    between atoms: C2_2  and  O1_3 
REMARK    3  A    between atoms: O1_3  and  C3_4 
REMARK    4  A    between atoms: C3_4  and  C4_6 
REMARK    5  A    between atoms: C6_10  and  C7_12 
ROOT
ATOM      1  C4  <0> d          -2.850  -2.419   0.016  0.00  0.00     0.204 A 
ATOM      2  N1  <0> d          -3.149  -3.753   0.018  0.00  0.00    -0.344 N 
ATOM      3  H1  <0> d          -2.513  -4.486   0.012  0.00  0.00     0.167 HD
ATOM      4  C5  <0> d          -4.498  -3.859   0.029  0.00  0.00     0.002 A 
ATOM      5  C6  <0> d          -4.999  -2.599   0.034  0.00  0.00     0.048 A 
ATOM      6  N2  <0> d          -3.980  -1.743   0.031  0.00  0.00    -0.229 NA
ATOM      7  H7  <0> d          -5.069  -4.776   0.032  0.00  0.00     0.114 H 
ENDROOT
BRANCH   1   8
ATOM      8  C3  <0> d          -1.497  -1.837   0.006  0.00  0.00     0.329 C 
ATOM      9  O2  <0> d          -0.523  -2.564  -0.007  0.00  0.00    -0.256 OA
BRANCH   8  10
ATOM     10  O1  <0> d          -1.339  -0.499   0.012  0.00  0.00    -0.316 OA
BRANCH  10  11
ATOM     11  C2  <0> d           0.002  -0.004   0.002  0.00  0.00     0.026 C 
ATOM     12  H5  <0> d           0.512  -0.356  -0.895  0.00  0.00     0.074 H 
ATOM     13  H6  <0> d           0.529  -0.365   0.885  0.00  0.00     0.074 H 
BRANCH  11  14
ATOM     14  C1  <0> d          -0.019   1.526   0.010  0.00  0.00    -0.056 C 
ATOM     15  H2  <0> d           1.004   1.903   0.003  0.00  0.00     0.030 H 
ATOM     16  H3  <0> d          -0.546   1.887  -0.873  0.00  0.00     0.030 H 
ATOM     17  H4  <0> d          -0.529   1.877   0.907  0.00  0.00     0.030 H 
ENDBRANCH  11  14
ENDBRANCH  10  11
ENDBRANCH   8  10
ENDBRANCH   1   8
BRANCH   5  18
ATOM     18  C7  <0> d          -6.460  -2.230   0.046  0.00  0.00    -0.034 C 
ATOM     19  H8  <0> d          -6.804  -2.142   1.077  0.00  0.00     0.035 H 
ATOM     20  H9  <0> d          -6.599  -1.278  -0.466  0.00  0.00     0.035 H 
ATOM     21  H10 <0> d          -7.034  -3.004  -0.464  0.00  0.00     0.035 H 
ENDBRANCH   5  18
TORSDOF 5
