REMARK  2 active torsions:
REMARK  status: ('A' for Active; 'I' for Inactive)
REMARK    1  A    between atoms: C1_1  and  C2_2 
REMARK       I    between atoms: C2_2  and  N1_4 
REMARK    2  A    between atoms: N1_4  and  C3_5 
ROOT
ATOM      1  C3  <0> d           2.340   0.045  -0.015  0.00  0.00     0.070 A 
ATOM      2  C4  <0> d           1.153  -0.664   0.152  0.00  0.00     0.031 A 
ATOM      3  N2  <0> d           0.008  -0.003   0.165  0.00  0.00    -0.252 NA
ATOM      4  C5  <0> d          -0.019   1.308   0.024  0.00  0.00     0.086 A 
ATOM      5  N3  <0> d           1.082   2.014  -0.136  0.00  0.00    -0.252 NA
ATOM      6  C6  <0> d           2.268   1.427  -0.161  0.00  0.00     0.031 A 
ATOM      7  H5  <0> d           1.168  -1.737   0.268  0.00  0.00     0.118 H 
ATOM      8  H6  <0> d          -0.971   1.817   0.035  0.00  0.00     0.146 H 
ATOM      9  H7  <0> d           3.166   2.013  -0.293  0.00  0.00     0.118 H 
ENDROOT
BRANCH   1  10
ATOM     10  N1  <0> d           3.574  -0.616  -0.036  0.00  0.00    -0.325 N 
ATOM     11  C2  <0> d           3.662  -1.864  -0.537  0.00  0.00     0.218 C 
ATOM     12  O1  <0> d           2.694  -2.378  -1.057  0.00  0.00    -0.274 OA
ATOM     13  H4  <0> d           4.472  -0.117   0.357  0.00  0.00     0.169 HD
BRANCH  11  14
ATOM     14  C1  <0> d           4.963  -2.620  -0.452  0.00  0.00    -0.003 C 
ATOM     15  H1  <0> d           5.718  -1.996   0.048  0.00  0.00     0.040 H 
ATOM     16  H2  <0> d           5.308  -2.872  -1.466  0.00  0.00     0.040 H 
ATOM     17  H3  <0> d           4.812  -3.545   0.124  0.00  0.00     0.040 H 
ENDBRANCH  11  14
ENDBRANCH   1  10
TORSDOF 2
