REMARK  0 active torsions:
REMARK  status: ('A' for Active; 'I' for Inactive)
ROOT
ATOM      1  C1  <0> d           0.002  -0.004   0.002  0.00  0.00    -0.038 A 
ATOM      2  C2  <0> d          -0.017   1.383   0.010  0.00  0.00     0.053 A 
ATOM      3  C3  <0> d           1.182   2.073   0.002  0.00  0.00     0.023 A 
ATOM      4  N1  <0> d           2.332   1.428  -0.013  0.00  0.00    -0.270 NA
ATOM      5  C4  <0> d           2.388   0.111  -0.020  0.00  0.00     0.023 A 
ATOM      6  C5  <0> d           1.231  -0.647  -0.013  0.00  0.00     0.053 A 
ATOM      7 Cl1  <0> d           1.316  -2.381  -0.024  0.00  0.00    -0.083 Cl
ATOM      8 Cl2  <0> d          -1.526   2.242   0.021  0.00  0.00    -0.083 Cl
ATOM      9  H1  <0> d          -0.918  -0.570   0.008  0.00  0.00     0.088 H 
ATOM     10  H2  <0> d           1.176   3.153   0.007  0.00  0.00     0.117 H 
ATOM     11  H3  <0> d           3.349  -0.382  -0.032  0.00  0.00     0.117 H 
ENDROOT
TORSDOF 0
