REMARK  6 active torsions:
REMARK  status: ('A' for Active; 'I' for Inactive)
REMARK    1  A    between atoms: C1_1  and  C2_2 
REMARK    2  A    between atoms: C2_2  and  C3_3 
REMARK    3  A    between atoms: C3_3  and  C4_4 
REMARK    4  A    between atoms: C5_5  and  O1_6 
REMARK    5  A    between atoms: O1_6  and  C6_7 
REMARK    6  A    between atoms: C6_7  and  C7_8 
ROOT
ATOM      1  C3  <0> d          -1.433  -0.534   0.013  0.00  0.00    -0.007 C 
ATOM      2  H6  <0> d          -1.944  -0.182   0.910  0.00  0.00     0.051 H 
ATOM      3  H7  <0> d          -1.960  -0.173  -0.870  0.00  0.00     0.051 H 
ENDROOT
BRANCH   1   4
ATOM      4  C2  <0> d           0.002  -0.004   0.002  0.00  0.00    -0.059 C 
ATOM      5  H4  <0> d           0.512  -0.356  -0.895  0.00  0.00     0.033 H 
ATOM      6  H5  <0> d           0.529  -0.365   0.885  0.00  0.00     0.033 H 
BRANCH   4   7
ATOM      7  C1  <0> d          -0.019   1.526   0.010  0.00  0.00    -0.076 C 
ATOM      8  H1  <0> d           1.004   1.903   0.003  0.00  0.00     0.027 H 
ATOM      9  H2  <0> d          -0.546   1.887  -0.873  0.00  0.00     0.027 H 
ATOM     10  H3  <0> d          -0.529   1.877   0.907  0.00  0.00     0.027 H 
ENDBRANCH   4   7
ENDBRANCH   1   4
BRANCH   1  11
ATOM     11  C4  <0> d          -1.413  -2.006   0.005  0.00  0.00    -0.076 C 
ATOM     12  C5  <0> d          -1.397  -3.179  -0.002  0.00  0.00     0.054 C 
BRANCH  12  13
ATOM     13  O1  <0> d          -1.379  -4.534  -0.009  0.00  0.00    -0.304 OA
BRANCH  13  14
ATOM     14  C6  <0> d          -2.676  -5.133   0.000  0.00  0.00     0.032 C 
ATOM     15  H8  <0> d          -3.213  -4.824   0.897  0.00  0.00     0.075 H 
ATOM     16  H9  <0> d          -3.230  -4.814  -0.883  0.00  0.00     0.075 H 
BRANCH  14  17
ATOM     17  C7  <0> d          -2.535  -6.657  -0.009  0.00  0.00    -0.055 C 
ATOM     18  H10 <0> d          -3.525  -7.113  -0.003  0.00  0.00     0.030 H 
ATOM     19  H11 <0> d          -1.998  -6.966  -0.906  0.00  0.00     0.030 H 
ATOM     20  H12 <0> d          -1.981  -6.976   0.874  0.00  0.00     0.030 H 
ENDBRANCH  14  17
ENDBRANCH  13  14
ENDBRANCH  12  13
ENDBRANCH   1  11
TORSDOF 6
