REMARK  2 active torsions:
REMARK  status: ('A' for Active; 'I' for Inactive)
REMARK    1  A    between atoms: C1_1  and  C2_2 
REMARK    2  A    between atoms: C3_5  and  N3_9 
ROOT
ATOM      1  C2  <0> d           0.002  -0.004   0.002  0.00  0.00     0.054 A 
ATOM      2  N1  <0> d           0.008  -0.774  -1.034  0.00  0.00    -0.181 NA
ATOM      3  N2  <0> d           0.029  -2.123  -0.696  0.00  0.00    -0.265 N 
ATOM      4  C3  <0> d           0.037  -2.308   0.595  0.00  0.00     0.115 A 
ATOM      5  C4  <0> d           0.026  -0.921   1.208  0.00  0.00     0.113 A 
ATOM      6  H1  <0> d          -0.867  -0.779   1.817  0.00  0.00     0.086 H 
ATOM      7 Cl1  <0> d           1.514  -0.645   2.188  0.00  0.00    -0.110 Cl
ATOM      8  H7  <0> d           0.036  -2.844  -1.345  0.00  0.00     0.190 HD
ENDROOT
BRANCH   1   9
ATOM      9  C1  <0> d          -0.018   1.503   0.010  0.00  0.00    -0.035 C 
ATOM     10  H2  <0> d           1.004   1.880   0.003  0.00  0.00     0.035 H 
ATOM     11  H3  <0> d          -0.545   1.864  -0.873  0.00  0.00     0.035 H 
ATOM     12  H4  <0> d          -0.529   1.854   0.907  0.00  0.00     0.035 H 
ENDBRANCH   1   9
BRANCH   4  13
ATOM     13  N3  <0> d           0.056  -3.504   1.258  0.00  0.00    -0.386 N 
ATOM     14  H5  <0> d           0.066  -4.336   0.758  0.00  0.00     0.157 HD
ATOM     15  H6  <0> d           0.060  -3.521   2.228  0.00  0.00     0.157 HD
ENDBRANCH   4  13
TORSDOF 2
