REMARK  2 active torsions:
REMARK  status: ('A' for Active; 'I' for Inactive)
REMARK    1  A    between atoms: C1_1  and  N1_2 
REMARK       I    between atoms: N1_2  and  C2_3 
REMARK    2  A    between atoms: C2_3  and  C3_5 
ROOT
ATOM      1  C3  <0> d          -1.331   2.079   0.020  0.00  0.00     0.024 C 
ATOM      2  C4  <0> d          -2.135   1.706  -1.228  0.00  0.00    -0.054 C 
ATOM      3  C5  <0> d          -3.470   2.452  -1.217  0.00  0.00    -0.064 C 
ATOM      4  C6  <0> d          -3.211   3.960  -1.210  0.00  0.00    -0.065 C 
ATOM      5  C7  <0> d          -2.408   4.334   0.037  0.00  0.00    -0.064 C 
ATOM      6  C8  <0> d          -1.072   3.587   0.027  0.00  0.00    -0.054 C 
ATOM      7  H5  <0> d          -1.889   1.791   0.923  0.00  0.00     0.054 H 
ATOM      8  H6  <0> d          -1.566   1.984  -2.127  0.00  0.00     0.034 H 
ATOM      9  H7  <0> d          -2.321   0.621  -1.233  0.00  0.00     0.034 H 
ATOM     10  H8  <0> d          -4.047   2.184  -2.114  0.00  0.00     0.033 H 
ATOM     11  H9  <0> d          -4.039   2.174  -0.318  0.00  0.00     0.033 H 
ATOM     12  H10 <0> d          -2.642   4.239  -2.110  0.00  0.00     0.033 H 
ATOM     13  H11 <0> d          -4.171   4.497  -1.203  0.00  0.00     0.033 H 
ATOM     14  H12 <0> d          -2.221   5.418   0.042  0.00  0.00     0.033 H 
ATOM     15  H13 <0> d          -2.976   4.056   0.936  0.00  0.00     0.033 H 
ATOM     16  H14 <0> d          -0.495   3.856   0.923  0.00  0.00     0.034 H 
ATOM     17  H15 <0> d          -0.503   3.865  -0.873  0.00  0.00     0.034 H 
ENDROOT
BRANCH   1  18
ATOM     18  C2  <0> d          -0.016   1.344   0.009  0.00  0.00     0.221 C 
ATOM     19  N1  <0> d           0.002  -0.004   0.002  0.00  0.00    -0.365 N 
ATOM     20  H4  <0> d          -0.943  -0.567   0.008  0.00  0.00     0.161 HD
ATOM     21  O1  <0> d           1.026   1.964   0.003  0.00  0.00    -0.273 OA
BRANCH  19  22
ATOM     22  C1  <0> d           1.281  -0.719  -0.014  0.00  0.00    -0.018 C 
ATOM     23  H1  <0> d           1.094  -1.803  -0.018  0.00  0.00     0.056 H 
ATOM     24  H2  <0> d           1.862  -0.450   0.880  0.00  0.00     0.056 H 
ATOM     25  H3  <0> d           1.845  -0.441  -0.916  0.00  0.00     0.056 H 
ENDBRANCH  19  22
ENDBRANCH   1  18
TORSDOF 2
