REMARK  2 active torsions:
REMARK  status: ('A' for Active; 'I' for Inactive)
REMARK    1  A    between atoms: C3_3  and  C7_9 
REMARK    2  A    between atoms: C6_6  and  O1_7 
ROOT
ATOM      1  C1  <0> d           1.204  -0.674  -0.013  0.00  0.00    -0.050 A 
ATOM      2  C2  <0> d           0.002  -0.004   0.002  0.00  0.00    -0.061 A 
ATOM      3  C3  <0> d          -0.017   1.394   0.010  0.00  0.00     0.079 A 
ATOM      4  C4  <0> d           1.190   2.106   0.002  0.00  0.00     0.136 A 
ATOM      5  C5  <0> d           2.389   1.424  -0.014  0.00  0.00    -0.013 A 
ATOM      6  C6  <0> d           2.400   0.035  -0.021  0.00  0.00     0.068 A 
ATOM      7  F1  <0> d           1.179   3.457   0.009  0.00  0.00    -0.205 F 
ATOM      8  H1  <0> d           1.218  -1.754  -0.019  0.00  0.00     0.087 H 
ATOM      9  H2  <0> d          -0.925  -0.557   0.007  0.00  0.00     0.085 H 
ATOM     10  H3  <0> d           3.320   1.971  -0.020  0.00  0.00     0.092 H 
ENDROOT
BRANCH   3  11
ATOM     11  C7  <0> d          -1.301   2.116   0.020  0.00  0.00     0.212 C 
ATOM     12  O2  <0> d          -1.315   3.331   0.026  0.00  0.00    -0.644 OA
ATOM     13  O3  <0> d          -2.460   1.429   0.021  0.00  0.00    -0.644 OA
ENDBRANCH   3  11
BRANCH   6  14
ATOM     14  O1  <0> d           3.582  -0.631  -0.035  0.00  0.00    -0.361 OA
ATOM     15  H4  <0> d           3.916  -0.820  -0.923  0.00  0.00     0.217 HD
ENDBRANCH   6  14
TORSDOF 2
