REMARK  0 active torsions:
REMARK  status: ('A' for Active; 'I' for Inactive)
ROOT
ATOM      1  C1  <0> d           0.693   2.956   0.011  0.00  0.00     0.204 A 
ATOM      2  C2  <0> d           1.353   4.264   0.012  0.00  0.00     0.284 A 
ATOM      3  O1  <0> d           2.567   4.359   0.000  0.00  0.00    -0.265 OA
ATOM      4  N1  <0> d           0.561   5.363   0.025  0.00  0.00    -0.272 N 
ATOM      5  H1  <0> d           1.012   6.366   0.025  0.00  0.00     0.174 HD
ATOM      6  C3  <0> d          -0.776   5.238   0.037  0.00  0.00     0.351 A 
ATOM      7  O2  <0> d          -1.453   6.253   0.049  0.00  0.00    -0.244 OA
ATOM      8  N2  <0> d          -1.399   4.064   0.038  0.00  0.00    -0.165 NA
ATOM      9  C4  <0> d          -0.730   2.923   0.025  0.00  0.00     0.237 A 
ATOM     10  O3  <0> d          -1.034   1.621   0.015  0.00  0.00    -0.172 OA
ATOM     11  N3  <0> d          -0.011   0.966   0.007  0.00  0.00    -0.015 NA
ATOM     12  N4  <0> d           1.055   1.690   0.001  0.00  0.00    -0.115 NA
ENDROOT
TORSDOF 0
