REMARK  3 active torsions:
REMARK  status: ('A' for Active; 'I' for Inactive)
REMARK    1  A    between atoms: C1_1  and  O1_2 
REMARK    2  A    between atoms: O1_2  and  C2_3 
REMARK    3  A    between atoms: C2_3  and  C3_5 
ROOT
ATOM      1  C3  <0> d           0.679  -2.115   1.088  0.00  0.00     0.053 C 
ATOM      2  H1  <0> d          -0.327  -2.537   1.101  0.00  0.00     0.058 H 
ATOM      3  C4  <0> d           1.475  -2.577   2.333  0.00  0.00    -0.031 C 
ATOM      4  C5  <0> d           2.300  -3.762   1.770  0.00  0.00     0.020 C 
ATOM      5  O3  <0> d           2.643  -3.330   0.435  0.00  0.00    -0.390 OA
ATOM      6  C6  <0> d           1.481  -2.671  -0.104  0.00  0.00     0.031 C 
ATOM      7  H5  <0> d           2.130  -1.783   2.692  0.00  0.00     0.037 H 
ATOM      8  H6  <0> d           0.803  -2.912   3.123  0.00  0.00     0.037 H 
ATOM      9  H7  <0> d           3.200  -3.921   2.365  0.00  0.00     0.074 H 
ATOM     10  H8  <0> d           1.696  -4.669   1.736  0.00  0.00     0.074 H 
ATOM     11  H9  <0> d           0.873  -3.384  -0.660  0.00  0.00     0.075 H 
ATOM     12  H10 <0> d           1.788  -1.854  -0.757  0.00  0.00     0.075 H 
ENDROOT
BRANCH   1  13
ATOM     13  C2  <0> d           0.618  -0.611   1.029  0.00  0.00     0.264 C 
ATOM     14  O2  <0> d           1.124   0.049   1.905  0.00  0.00    -0.265 OA
BRANCH  13  15
ATOM     15  O1  <0> d           0.002  -0.004   0.002  0.00  0.00    -0.326 OA
BRANCH  15  16
ATOM     16  C1  <0> d          -0.017   1.425   0.010  0.00  0.00     0.013 C 
ATOM     17  H2  <0> d           1.005   1.802   0.002  0.00  0.00     0.067 H 
ATOM     18  H3  <0> d          -0.544   1.786  -0.873  0.00  0.00     0.067 H 
ATOM     19  H4  <0> d          -0.527   1.776   0.907  0.00  0.00     0.067 H 
ENDBRANCH  15  16
ENDBRANCH  13  15
ENDBRANCH   1  13
TORSDOF 3
