REMARK  4 active torsions:
REMARK  status: ('A' for Active; 'I' for Inactive)
REMARK    1  A    between atoms: C2_2  and  C7_9 
REMARK    2  A    between atoms: C4_4  and  N2_8 
REMARK    3  A    between atoms: C6_6  and  N1_7 
REMARK    4  A    between atoms: C7_9  and  O1_10 
ROOT
ATOM      1  C1  <0> d           2.406   0.037  -0.021  0.00  0.00    -0.050 A 
ATOM      2  C2  <0> d           2.384   1.419  -0.013  0.00  0.00    -0.030 A 
ATOM      3  C3  <0> d           1.178   2.093   0.002  0.00  0.00    -0.050 A 
ATOM      4  C4  <0> d          -0.017   1.383   0.010  0.00  0.00     0.028 A 
ATOM      5  C5  <0> d           0.002  -0.004   0.002  0.00  0.00    -0.033 A 
ATOM      6  C6  <0> d           1.215  -0.678  -0.013  0.00  0.00     0.028 A 
ATOM      7  H1  <0> d           3.350  -0.487  -0.033  0.00  0.00     0.087 H 
ATOM      8  H2  <0> d           1.164   3.173   0.008  0.00  0.00     0.087 H 
ATOM      9  H3  <0> d          -0.925  -0.558   0.008  0.00  0.00     0.090 H 
ENDROOT
BRANCH   2  10
ATOM     10  C7  <0> d           3.678   2.192  -0.021  0.00  0.00     0.041 C 
ATOM     11  H8  <0> d           3.538   3.139   0.499  0.00  0.00     0.081 H 
ATOM     12  H9  <0> d           4.451   1.611   0.482  0.00  0.00     0.081 H 
BRANCH  10  13
ATOM     13  O1  <0> d           4.074   2.443  -1.371  0.00  0.00    -0.396 OA
ATOM     14  H10 <0> d           4.900   2.938  -1.453  0.00  0.00     0.209 HD
ENDBRANCH  10  13
ENDBRANCH   2  10
BRANCH   6  15
ATOM     15  N1  <0> d           1.238  -2.075  -0.021  0.00  0.00    -0.399 N 
ATOM     16  H4  <0> d           0.406  -2.574  -0.016  0.00  0.00     0.156 HD
ATOM     17  H5  <0> d           2.086  -2.546  -0.032  0.00  0.00     0.156 HD
ENDBRANCH   6  15
BRANCH   4  18
ATOM     18  N2  <0> d          -1.235   2.066   0.019  0.00  0.00    -0.399 N 
ATOM     19  H6  <0> d          -2.069   1.570   0.020  0.00  0.00     0.156 HD
ATOM     20  H7  <0> d          -1.248   3.036   0.024  0.00  0.00     0.156 HD
ENDBRANCH   4  18
TORSDOF 4
