REMARK  0 active torsions:
REMARK  status: ('A' for Active; 'I' for Inactive)
ROOT
ATOM      1  C1  <0> d          -0.017   1.381   0.010  0.00  0.00    -0.082 A 
ATOM      2  C2  <0> d           1.169   2.094   0.002  0.00  0.00    -0.082 A 
ATOM      3  C3  <0> d           2.380   1.432  -0.013  0.00  0.00    -0.067 A 
ATOM      4  C4  <0> d           2.406   0.037  -0.021  0.00  0.00     0.049 A 
ATOM      5  C5  <0> d           1.203  -0.674  -0.013  0.00  0.00     0.001 A 
ATOM      6  C6  <0> d           0.002  -0.004   0.002  0.00  0.00    -0.072 A 
ATOM      7  C7  <0> d           1.578  -2.134  -0.024  0.00  0.00     0.157 A 
ATOM      8  H1  <0> d           1.194  -2.624   0.870  0.00  0.00     0.115 H 
ATOM      9  O1  <0> d           3.007  -2.192  -0.038  0.00  0.00    -0.292 OA
ATOM     10  C8  <0> d           3.506  -0.945  -0.037  0.00  0.00     0.295 A 
ATOM     11  O2  <0> d           4.688  -0.667  -0.047  0.00  0.00    -0.259 OA
ATOM     12  C9  <0> d           1.034  -2.784  -1.228  0.00  0.00     0.097 C 
ATOM     13  N1  <0> d           0.615  -3.286  -2.156  0.00  0.00    -0.194 NA
ATOM     14  H2  <0> d          -0.960   1.906   0.026  0.00  0.00     0.083 H 
ATOM     15  H3  <0> d           1.147   3.174   0.008  0.00  0.00     0.083 H 
ATOM     16  H4  <0> d           3.303   1.992  -0.020  0.00  0.00     0.085 H 
ATOM     17  H5  <0> d          -0.925  -0.557   0.008  0.00  0.00     0.084 H 
ENDROOT
TORSDOF 0
