REMARK  2 active torsions:
REMARK  status: ('A' for Active; 'I' for Inactive)
REMARK    1  A    between atoms: C1_1  and  C2_2 
REMARK    2  A    between atoms: C8_10  and  C10_12 
ROOT
ATOM      1  C2  <0> d           2.417   0.038  -0.021  0.00  0.00    -0.034 A 
ATOM      2  C3  <0> d           2.375   1.415  -0.013  0.00  0.00    -0.075 A 
ATOM      3  C4  <0> d           1.160   2.086   0.002  0.00  0.00    -0.082 A 
ATOM      4  C5  <0> d          -0.017   1.392   0.010  0.00  0.00    -0.071 A 
ATOM      5  C6  <0> d           0.002  -0.004   0.002  0.00  0.00    -0.007 A 
ATOM      6  C7  <0> d           1.231  -0.689  -0.013  0.00  0.00     0.048 A 
ATOM      7  N1  <0> d           0.945  -2.036  -0.018  0.00  0.00    -0.359 N 
ATOM      8  H1  <0> d           1.605  -2.746  -0.028  0.00  0.00     0.166 HD
ATOM      9  C8  <0> d          -0.411  -2.224  -0.006  0.00  0.00     0.006 A 
ATOM     10  C9  <0> d          -1.037  -1.037   0.006  0.00  0.00    -0.050 A 
ATOM     11  H5  <0> d           3.296   1.978  -0.018  0.00  0.00     0.084 H 
ATOM     12  H6  <0> d           1.145   3.166   0.008  0.00  0.00     0.083 H 
ATOM     13  H7  <0> d          -0.958   1.921   0.017  0.00  0.00     0.084 H 
ATOM     14  H8  <0> d          -2.105  -0.874   0.018  0.00  0.00     0.087 H 
ENDROOT
BRANCH   1  15
ATOM     15  C1  <0> d           3.742  -0.678  -0.038  0.00  0.00    -0.049 C 
ATOM     16  H2  <0> d           4.052  -0.845  -1.069  0.00  0.00     0.033 H 
ATOM     17  H3  <0> d           4.490  -0.071   0.472  0.00  0.00     0.033 H 
ATOM     18  H4  <0> d           3.644  -1.637   0.471  0.00  0.00     0.033 H 
ENDBRANCH   1  15
BRANCH   9  19
ATOM     19  C10 <0> d          -1.099  -3.565  -0.007  0.00  0.00    -0.037 C 
ATOM     20  H9  <0> d          -1.255  -3.894   1.020  0.00  0.00     0.035 H 
ATOM     21  H10 <0> d          -2.061  -3.479  -0.511  0.00  0.00     0.035 H 
ATOM     22  H11 <0> d          -0.477  -4.291  -0.531  0.00  0.00     0.035 H 
ENDBRANCH   9  19
TORSDOF 2
