REMARK  4 active torsions:
REMARK  status: ('A' for Active; 'I' for Inactive)
REMARK    1  A    between atoms: C1_1  and  C2_2 
REMARK    2  A    between atoms: C2_2  and  C3_3 
REMARK    3  A    between atoms: C3_3  and  C7_9 
REMARK    4  A    between atoms: C7_9  and  C8_10 
ROOT
ATOM      1  C3  <0> d          -0.703   1.552  -1.291  0.00  0.00    -0.024 A 
ATOM      2  C4  <0> d          -1.350   0.446  -2.126  0.00  0.00    -0.041 A 
ATOM      3  C5  <0> d          -0.140   1.209  -2.672  0.00  0.00     0.038 A 
ATOM      4  H1  <0> d           0.813   0.681  -2.710  0.00  0.00     0.064 H 
ATOM      5  C6  <0> d          -0.378   2.170  -3.761  0.00  0.00     0.064 C 
ATOM      6  N1  <0> d          -0.561   2.912  -4.602  0.00  0.00    -0.197 NA
ATOM      7  H7  <0> d          -1.193  -0.584  -1.806  0.00  0.00     0.036 H 
ATOM      8  H8  <0> d          -2.321   0.655  -2.575  0.00  0.00     0.036 H 
ENDROOT
BRANCH   1   9
ATOM      9  C2  <0> d           0.115   1.129  -0.069  0.00  0.00    -0.060 C 
ATOM     10  H5  <0> d           0.616   0.183  -0.277  0.00  0.00     0.033 H 
ATOM     11  H6  <0> d           0.860   1.893   0.152  0.00  0.00     0.033 H 
BRANCH   9  12
ATOM     12  C1  <0> d          -0.815   0.960   1.133  0.00  0.00    -0.076 C 
ATOM     13  H2  <0> d          -0.229   0.688   2.011  0.00  0.00     0.027 H 
ATOM     14  H3  <0> d          -1.339   1.897   1.323  0.00  0.00     0.027 H 
ATOM     15  H4  <0> d          -1.541   0.174   0.924  0.00  0.00     0.027 H 
ENDBRANCH   9  12
ENDBRANCH   1   9
BRANCH   1  16
ATOM     16  C7  <0> d          -1.469   2.869  -1.148  0.00  0.00    -0.060 C 
ATOM     17  H9  <0> d          -2.017   3.072  -2.068  0.00  0.00     0.033 H 
ATOM     18  H10 <0> d          -2.171   2.793  -0.317  0.00  0.00     0.033 H 
BRANCH  16  19
ATOM     19  C8  <0> d          -0.482   4.007  -0.880  0.00  0.00    -0.076 C 
ATOM     20  H11 <0> d          -0.015   3.861   0.093  0.00  0.00     0.027 H 
ATOM     21  H12 <0> d           0.285   4.012  -1.655  0.00  0.00     0.027 H 
ATOM     22  H13 <0> d          -1.014   4.958  -0.889  0.00  0.00     0.027 H 
ENDBRANCH  16  19
ENDBRANCH   1  16
TORSDOF 4
