REMARK  1 active torsions:
REMARK  status: ('A' for Active; 'I' for Inactive)
REMARK    1  A    between atoms: C1_1  and  N1_2 
ROOT
ATOM      1  N1  <0> d          -0.145   5.050   0.031  0.00  0.00    -0.236 N 
ATOM      2  C2  <0> d           0.098   3.709   0.021  0.00  0.00     0.184 A 
ATOM      3  C3  <0> d          -1.157   3.087   0.030  0.00  0.00     0.197 A 
ATOM      4  C4  <0> d          -1.194   1.623   0.017  0.00  0.00     0.302 A 
ATOM      5  O1  <0> d          -2.252   1.018   0.018  0.00  0.00    -0.263 OA
ATOM      6  N2  <0> d          -0.011   0.966   0.007  0.00  0.00    -0.201 NA
ATOM      7  C5  <0> d           1.156   1.656  -0.000  0.00  0.00     0.093 A 
ATOM      8  N3  <0> d           1.208   2.957   0.006  0.00  0.00    -0.220 NA
ATOM      9  N4  <0> d          -2.095   4.044   0.044  0.00  0.00    -0.122 NA
ATOM     10  N5  <0> d          -1.539   5.206   0.045  0.00  0.00    -0.064 NA
ATOM     11  H4  <0> d           2.083   1.103  -0.011  0.00  0.00     0.146 H 
ENDROOT
BRANCH   1  12
ATOM     12  C1  <0> d           0.856   6.120   0.027  0.00  0.00     0.006 C 
ATOM     13  H1  <0> d           1.863   5.679   0.015  0.00  0.00     0.059 H 
ATOM     14  H2  <0> d           0.736   6.737   0.930  0.00  0.00     0.059 H 
ATOM     15  H3  <0> d           0.719   6.747  -0.866  0.00  0.00     0.059 H 
ENDBRANCH   1  12
TORSDOF 1
