REMARK  5 active torsions:
REMARK  status: ('A' for Active; 'I' for Inactive)
REMARK    1  A    between atoms: C1_1  and  C2_2 
REMARK    2  A    between atoms: C2_2  and  C7_9 
REMARK    3  A    between atoms: C3_3  and  C4_4 
REMARK    4  A    between atoms: C3_3  and  C6_7 
REMARK    5  A    between atoms: C4_4  and  C5_5 
ROOT
ATOM      1  C2  <0> d          -3.107   0.451   0.949  0.00  0.00    -0.074 C 
ATOM      2  C3  <0> d          -2.228   0.845   0.030  0.00  0.00     0.030 C 
ENDROOT
BRANCH   2   3
ATOM      3  C4  <0> d          -1.371   2.059   0.279  0.00  0.00     0.046 C 
ATOM      4  H4  <0> d          -1.871   2.718   0.988  0.00  0.00     0.056 H 
ATOM      5  H5  <0> d          -1.211   2.590  -0.660  0.00  0.00     0.056 H 
BRANCH   3   6
ATOM      6  C5  <0> d          -0.042   1.628   0.844  0.00  0.00     0.177 C 
ATOM      7  O1  <0> d           0.185   0.455   1.026  0.00  0.00    -0.648 OA
ATOM      8  O3  <0> d           0.891   2.546   1.140  0.00  0.00    -0.648 OA
ENDBRANCH   3   6
ENDBRANCH   2   3
BRANCH   2   9
ATOM      9  C6  <0> d          -2.096   0.097  -1.228  0.00  0.00     0.205 C 
ATOM     10  O2  <0> d          -2.705  -0.943  -1.383  0.00  0.00    -0.644 OA
ATOM     11  O4  <0> d          -1.298   0.564  -2.209  0.00  0.00    -0.644 OA
ENDBRANCH   2   9
BRANCH   1  12
ATOM     12  C1  <0> d          -3.130   1.115   2.302  0.00  0.00    -0.054 C 
ATOM     13  H1  <0> d          -3.812   1.965   2.278  0.00  0.00     0.033 H 
ATOM     14  H2  <0> d          -3.468   0.400   3.052  0.00  0.00     0.033 H 
ATOM     15  H3  <0> d          -2.128   1.461   2.555  0.00  0.00     0.033 H 
ENDBRANCH   1  12
BRANCH   1  16
ATOM     16  C7  <0> d          -4.077  -0.658   0.637  0.00  0.00    -0.054 C 
ATOM     17  H6  <0> d          -3.599  -1.621   0.819  0.00  0.00     0.033 H 
ATOM     18  H7  <0> d          -4.955  -0.563   1.276  0.00  0.00     0.033 H 
ATOM     19  H8  <0> d          -4.379  -0.594  -0.408  0.00  0.00     0.033 H 
ENDBRANCH   1  16
TORSDOF 5
