REMARK  1 active torsions:
REMARK  status: ('A' for Active; 'I' for Inactive)
REMARK    1  A    between atoms: C1_1  and  C2_2 
ROOT
ATOM      1  C2  <0> d           1.410   1.957  -0.001  0.00  0.00     0.009 A 
ATOM      2  H1  <0> d           1.587   2.514  -0.812  0.00  0.00     0.052 H 
ATOM      3  C3  <0> d           2.273   0.688  -0.016  0.00  0.00    -0.030 A 
ATOM      4  C4  <0> d           1.313  -0.478  -0.013  0.00  0.00    -0.043 A 
ATOM      5  C5  <0> d           1.554  -1.839  -0.023  0.00  0.00    -0.076 A 
ATOM      6  C6  <0> d           0.501  -2.735  -0.018  0.00  0.00    -0.082 A 
ATOM      7  C7  <0> d          -0.804  -2.274  -0.003  0.00  0.00    -0.082 A 
ATOM      8  C8  <0> d          -1.061  -0.921   0.008  0.00  0.00    -0.069 A 
ATOM      9  C9  <0> d           0.002  -0.004   0.002  0.00  0.00     0.016 A 
ATOM     10  C10 <0> d          -0.018   1.468   0.010  0.00  0.00     0.164 A 
ATOM     11  O1  <0> d          -1.009   2.167   0.019  0.00  0.00    -0.292 OA
ATOM     12  H5  <0> d           2.905   0.654   0.871  0.00  0.00     0.041 H 
ATOM     13  H6  <0> d           2.889   0.663  -0.915  0.00  0.00     0.041 H 
ATOM     14  H7  <0> d           2.571  -2.205  -0.034  0.00  0.00     0.084 H 
ATOM     15  H8  <0> d           0.697  -3.797  -0.026  0.00  0.00     0.083 H 
ATOM     16  H9  <0> d          -1.624  -2.978   0.002  0.00  0.00     0.083 H 
ATOM     17  H10 <0> d          -2.080  -0.565   0.020  0.00  0.00     0.085 H 
ENDROOT
BRANCH   1  18
ATOM     18  C1  <0> d           1.699   2.779   1.256  0.00  0.00    -0.066 C 
ATOM     19  H2  <0> d           1.516   2.168   2.140  0.00  0.00     0.028 H 
ATOM     20  H3  <0> d           2.740   3.103   1.248  0.00  0.00     0.028 H 
ATOM     21  H4  <0> d           1.047   3.652   1.277  0.00  0.00     0.028 H 
ENDBRANCH   1  18
TORSDOF 1
