REMARK  0 active torsions:
REMARK  status: ('A' for Active; 'I' for Inactive)
ROOT
ATOM      1  C1  <0> d          -0.013   1.076   0.008  0.00  0.00    -0.063 A 
ATOM      2  C2  <0> d           1.173   1.787   0.001  0.00  0.00    -0.047 A 
ATOM      3  C3  <0> d           1.111   3.180   0.006  0.00  0.00     0.101 A 
ATOM      4  C4  <0> d          -0.148   3.796   0.019  0.00  0.00     0.135 A 
ATOM      5  N1  <0> d          -1.260   3.071   0.028  0.00  0.00    -0.255 NA
ATOM      6  C5  <0> d          -1.222   1.758   0.017  0.00  0.00     0.003 A 
ATOM      7  C6  <0> d          -0.215   5.273   0.018  0.00  0.00     0.182 C 
ATOM      8  O1  <0> d          -1.253   5.865  -0.188  0.00  0.00    -0.291 OA
ATOM      9  C7  <0> d           1.084   6.011   0.288  0.00  0.00     0.017 C 
ATOM     10  C8  <0> d           2.196   5.260  -0.459  0.00  0.00     0.033 C 
ATOM     11  O2  <0> d           2.248   3.910   0.005  0.00  0.00    -0.348 OA
ATOM     12  H1  <0> d           0.002  -0.004   0.002  0.00  0.00     0.085 H 
ATOM     13  H2  <0> d           2.125   1.276  -0.009  0.00  0.00     0.087 H 
ATOM     14  H3  <0> d          -2.147   1.199   0.020  0.00  0.00     0.114 H 
ATOM     15  H4  <0> d           1.002   7.045  -0.079  0.00  0.00     0.048 H 
ATOM     16  H5  <0> d           1.283   6.020   1.370  0.00  0.00     0.048 H 
ATOM     17  H6  <0> d           1.985   5.270  -1.538  0.00  0.00     0.075 H 
ATOM     18  H7  <0> d           3.162   5.751  -0.269  0.00  0.00     0.075 H 
ENDROOT
TORSDOF 0
