REMARK  3 active torsions:
REMARK  status: ('A' for Active; 'I' for Inactive)
REMARK    1  A    between atoms: C3_3  and  C5_5 
REMARK    2  A    between atoms: C3_3  and  O2_7 
REMARK    3  A    between atoms: C5_5  and  O1_6 
ROOT
ATOM      1  C1  <0> d           0.002  -0.004   0.002  0.00  0.00    -0.060 C 
ATOM      2  C2  <0> d          -0.019   1.534   0.011  0.00  0.00    -0.034 C 
ATOM      3  C3  <0> d           1.518   1.476  -0.004  0.00  0.00     0.079 C 
ATOM      4  C4  <0> d           1.394   0.090   0.649  0.00  0.00    -0.034 C 
ATOM      5  H1  <0> d          -0.751  -0.455   0.649  0.00  0.00     0.033 H 
ATOM      6  H2  <0> d           0.014  -0.435  -0.999  0.00  0.00     0.033 H 
ATOM      7  H3  <0> d          -0.448   1.969  -0.892  0.00  0.00     0.037 H 
ATOM      8  H4  <0> d          -0.431   1.960   0.925  0.00  0.00     0.037 H 
ATOM      9  H5  <0> d           1.368   0.121   1.738  0.00  0.00     0.037 H 
ATOM     10  H6  <0> d           2.105  -0.640   0.262  0.00  0.00     0.037 H 
ENDROOT
BRANCH   3  11
ATOM     11  C5  <0> d           2.179   2.521   0.896  0.00  0.00     0.045 C 
ATOM     12  H7  <0> d           1.888   3.519   0.569  0.00  0.00     0.078 H 
ATOM     13  H8  <0> d           1.858   2.368   1.927  0.00  0.00     0.078 H 
BRANCH  11  14
ATOM     14  O1  <0> d           3.600   2.389   0.816  0.00  0.00    -0.398 OA
ATOM     15  H9  <0> d           4.085   3.022   1.363  0.00  0.00     0.209 HD
ENDBRANCH  11  14
ENDBRANCH   3  11
BRANCH   3  16
ATOM     16  O2  <0> d           2.077   1.442  -1.319  0.00  0.00    -0.388 OA
ATOM     17  H10 <0> d           3.043   1.405  -1.335  0.00  0.00     0.210 HD
ENDBRANCH   3  16
TORSDOF 3
