REMARK  1 active torsions:
REMARK  status: ('A' for Active; 'I' for Inactive)
REMARK    1  A    between atoms: C2_2  and  C4_7 
ROOT
ATOM      1  C4  <0> d           1.719   3.206   0.002  0.00  0.00     0.054 C 
ATOM      2  C5  <0> d           1.768   3.703   1.387  0.00  0.00     0.065 C 
ATOM      3  N3  <0> d           1.805   4.087   2.456  0.00  0.00    -0.197 NA
ATOM      4  H4  <0> d           2.713   3.270  -0.441  0.00  0.00     0.064 H 
ATOM      5  H5  <0> d           1.023   3.812  -0.577  0.00  0.00     0.064 H 
ENDROOT
BRANCH   1   6
ATOM      6  C2  <0> d           1.259   1.771  -0.000  0.00  0.00     0.041 A 
ATOM      7  C1  <0> d          -0.016   1.337   0.009  0.00  0.00     0.026 A 
ATOM      8  N2  <0> d           0.002  -0.004   0.002  0.00  0.00    -0.254 NA
ATOM      9  H2  <0> d          -0.898   1.960   0.025  0.00  0.00     0.117 H 
ATOM     10  C3  <0> d           1.240  -0.418  -0.012  0.00  0.00     0.064 A 
ATOM     11  N1  <0> d           2.056   0.658  -0.014  0.00  0.00    -0.352 N 
ATOM     12  H3  <0> d           1.558  -1.450  -0.021  0.00  0.00     0.143 H 
ATOM     13  H1  <0> d           3.026   0.645  -0.023  0.00  0.00     0.166 HD
ENDBRANCH   1   6
TORSDOF 1
