REMARK  7 active torsions:
REMARK  status: ('A' for Active; 'I' for Inactive)
REMARK    1  A    between atoms: C1_1  and  C2_2 
REMARK    2  A    between atoms: C2_2  and  C3_3 
REMARK    3  A    between atoms: C2_2  and  O1_4 
REMARK    4  A    between atoms: O1_4  and  C4_5 
REMARK    5  A    between atoms: C4_5  and  C5_6 
REMARK    6  A    between atoms: C4_5  and  C6_7 
REMARK    7  A    between atoms: C4_5  and  C7_8 
ROOT
ATOM      1  C4  <0> d           1.297   1.867   0.588  0.00  0.00     0.050 C 
ENDROOT
BRANCH   1   2
ATOM      2  O1  <0> d           0.059   1.332   0.116  0.00  0.00    -0.377 OA
BRANCH   2   3
ATOM      3  C2  <0> d          -0.031  -0.091   0.206  0.00  0.00     0.032 C 
ATOM      4  H4  <0> d           0.878  -0.484   0.662  0.00  0.00     0.082 H 
BRANCH   3   5
ATOM      5  C1  <0> d          -1.239  -0.472   1.065  0.00  0.00    -0.052 C 
ATOM      6  H1  <0> d          -2.147  -0.079   0.609  0.00  0.00     0.030 H 
ATOM      7  H2  <0> d          -1.307  -1.558   1.134  0.00  0.00     0.030 H 
ATOM      8  H3  <0> d          -1.122  -0.052   2.064  0.00  0.00     0.030 H 
ENDBRANCH   3   5
BRANCH   3   9
ATOM      9  C3  <0> d          -0.195  -0.682  -1.195  0.00  0.00    -0.052 C 
ATOM     10  H5  <0> d          -0.242  -1.769  -1.128  0.00  0.00     0.030 H 
ATOM     11  H6  <0> d          -1.115  -0.305  -1.643  0.00  0.00     0.030 H 
ATOM     12  H7  <0> d           0.655  -0.392  -1.813  0.00  0.00     0.030 H 
ENDBRANCH   3   9
ENDBRANCH   2   3
ENDBRANCH   1   2
BRANCH   1  13
ATOM     13  C5  <0> d           2.451   1.274  -0.223  0.00  0.00    -0.048 C 
ATOM     14  H8  <0> d           2.320   1.522  -1.276  0.00  0.00     0.031 H 
ATOM     15  H9  <0> d           3.395   1.687   0.133  0.00  0.00     0.031 H 
ATOM     16  H10 <0> d           2.460   0.191  -0.102  0.00  0.00     0.031 H 
ENDBRANCH   1  13
BRANCH   1  17
ATOM     17  C6  <0> d           1.289   3.389   0.426  0.00  0.00    -0.048 C 
ATOM     18  H11 <0> d           0.467   3.812   1.004  0.00  0.00     0.031 H 
ATOM     19  H12 <0> d           2.234   3.797   0.786  0.00  0.00     0.031 H 
ATOM     20  H13 <0> d           1.162   3.642  -0.626  0.00  0.00     0.031 H 
ENDBRANCH   1  17
BRANCH   1  21
ATOM     21  C7  <0> d           1.476   1.513   2.065  0.00  0.00    -0.048 C 
ATOM     22  H14 <0> d           1.481   0.429   2.181  0.00  0.00     0.031 H 
ATOM     23  H15 <0> d           2.420   1.921   2.425  0.00  0.00     0.031 H 
ATOM     24  H16 <0> d           0.654   1.935   2.643  0.00  0.00     0.031 H 
ENDBRANCH   1  21
TORSDOF 7
