REMARK  2 active torsions:
REMARK  status: ('A' for Active; 'I' for Inactive)
REMARK    1  A    between atoms: C1_1  and  C2_2 
REMARK    2  A    between atoms: C2_2  and  C6_9 
ROOT
ATOM      1  C2  <0> d          -2.726   2.186   0.096  0.00  0.00     0.047 C 
ATOM      2  C3  <0> d          -2.089   1.298   1.166  0.00  0.00     0.043 C 
ATOM      3  O1  <0> d          -0.679   1.546   1.186  0.00  0.00    -0.380 OA
ATOM      4  C4  <0> d          -0.013   1.086   0.008  0.00  0.00     0.093 C 
ATOM      5  C5  <0> d          -0.737   1.583  -1.212  0.00  0.00     0.242 C 
ATOM      6  O2  <0> d          -0.171   1.545  -2.284  0.00  0.00    -0.271 OA
ATOM      7  N1  <0> d          -1.984   2.066  -1.157  0.00  0.00    -0.349 N 
ATOM      8  H4  <0> d          -2.516   1.535   2.140  0.00  0.00     0.078 H 
ATOM      9  H5  <0> d          -2.275   0.250   0.931  0.00  0.00     0.078 H 
ATOM     10  H6  <0> d           0.002  -0.004   0.002  0.00  0.00     0.089 H 
ATOM     11  H7  <0> d           1.010   1.462   0.000  0.00  0.00     0.089 H 
ATOM     12  H8  <0> d          -2.412   2.347  -1.981  0.00  0.00     0.163 HD
ENDROOT
BRANCH   1  13
ATOM     13  C1  <0> d          -2.701   3.642   0.563  0.00  0.00    -0.051 C 
ATOM     14  H1  <0> d          -3.163   4.275  -0.195  0.00  0.00     0.030 H 
ATOM     15  H2  <0> d          -3.255   3.733   1.498  0.00  0.00     0.030 H 
ATOM     16  H3  <0> d          -1.669   3.956   0.720  0.00  0.00     0.030 H 
ENDBRANCH   1  13
BRANCH   1  17
ATOM     17  C6  <0> d          -4.176   1.750  -0.128  0.00  0.00    -0.051 C 
ATOM     18  H9  <0> d          -4.196   0.714  -0.465  0.00  0.00     0.030 H 
ATOM     19  H10 <0> d          -4.730   1.840   0.806  0.00  0.00     0.030 H 
ATOM     20  H11 <0> d          -4.634   2.388  -0.885  0.00  0.00     0.030 H 
ENDBRANCH   1  17
TORSDOF 2
