REMARK  3 active torsions:
REMARK  status: ('A' for Active; 'I' for Inactive)
REMARK    1  A    between atoms: C1_1  and  C2_2 
REMARK    2  A    between atoms: C5_6  and  O2_11 
REMARK    3  A    between atoms: C6_8  and  O1_10 
ROOT
ATOM      1  C2  <0> d          -0.019   1.526   0.010  0.00  0.00    -0.030 C 
ATOM      2  H1  <0> d          -0.549   1.887   0.892  0.00  0.00     0.043 H 
ATOM      3  C3  <0> d           1.423   2.074  -0.000  0.00  0.00    -0.057 C 
ATOM      4  C4  <0> d           1.344   3.333  -0.899  0.00  0.00    -0.038 C 
ATOM      5  C5  <0> d           0.355   2.900  -2.009  0.00  0.00     0.060 C 
ATOM      6  H2  <0> d           0.866   2.302  -2.764  0.00  0.00     0.086 H 
ATOM      7  C6  <0> d          -0.698   2.051  -1.266  0.00  0.00     0.063 C 
ATOM      8  H3  <0> d          -1.013   1.216  -1.892  0.00  0.00     0.087 H 
ATOM      9  H7  <0> d           1.736   2.344   1.008  0.00  0.00     0.033 H 
ATOM     10  H8  <0> d           2.107   1.341  -0.430  0.00  0.00     0.033 H 
ATOM     11  H9  <0> d           0.950   4.182  -0.340  0.00  0.00     0.036 H 
ATOM     12  H10 <0> d           2.322   3.570  -1.319  0.00  0.00     0.036 H 
ENDROOT
BRANCH   1  13
ATOM     13  C1  <0> d           0.002  -0.004   0.002  0.00  0.00    -0.070 C 
ATOM     14  H4  <0> d           0.507  -0.365   0.898  0.00  0.00     0.028 H 
ATOM     15  H5  <0> d          -1.020  -0.381  -0.016  0.00  0.00     0.028 H 
ATOM     16  H6  <0> d           0.535  -0.355  -0.882  0.00  0.00     0.028 H 
ENDBRANCH   1  13
BRANCH   7  17
ATOM     17  O1  <0> d          -1.826   2.859  -0.924  0.00  0.00    -0.393 OA
ATOM     18  H11 <0> d          -2.297   3.220  -1.687  0.00  0.00     0.210 HD
ENDBRANCH   7  17
BRANCH   5  19
ATOM     19  O2  <0> d          -0.257   4.043  -2.608  0.00  0.00    -0.393 OA
ATOM     20  H12 <0> d           0.367   4.643  -3.039  0.00  0.00     0.210 HD
ENDBRANCH   5  19
TORSDOF 3
