REMARK  3 active torsions:
REMARK  status: ('A' for Active; 'I' for Inactive)
REMARK    1  A    between atoms: C1_1  and  C2_2 
REMARK    2  A    between atoms: C2_2  and  C3_3 
REMARK    3  A    between atoms: C4_4  and  C6_9 
ROOT
ATOM      1  C3  <0> d           2.133   0.637  -0.015  0.00  0.00     0.046 A 
ATOM      2  C4  <0> d           1.322   1.755  -0.001  0.00  0.00     0.083 A 
ATOM      3  C5  <0> d          -0.016   1.300   0.009  0.00  0.00     0.040 A 
ATOM      4  N1  <0> d           0.002  -0.004   0.002  0.00  0.00    -0.186 NA
ATOM      5  N2  <0> d           1.332  -0.440  -0.013  0.00  0.00    -0.282 N 
ATOM      6  H1  <0> d           1.634  -1.393  -0.021  0.00  0.00     0.189 HD
ATOM      7  H7  <0> d          -0.898   1.923   0.017  0.00  0.00     0.119 H 
ENDROOT
BRANCH   1   8
ATOM      8  C2  <0> d           3.640   0.628  -0.030  0.00  0.00    -0.028 C 
ATOM      9  H5  <0> d           3.993  -0.304  -0.472  0.00  0.00     0.041 H 
ATOM     10  H6  <0> d           4.003   1.470  -0.619  0.00  0.00     0.041 H 
BRANCH   8  11
ATOM     11  C1  <0> d           4.165   0.743   1.403  0.00  0.00    -0.071 C 
ATOM     12  H2  <0> d           5.255   0.736   1.392  0.00  0.00     0.028 H 
ATOM     13  H3  <0> d           3.812   1.674   1.845  0.00  0.00     0.028 H 
ATOM     14  H4  <0> d           3.802  -0.100   1.992  0.00  0.00     0.028 H 
ENDBRANCH   8  11
ENDBRANCH   1   8
BRANCH   2  15
ATOM     15  C6  <0> d           1.769   3.159   0.002  0.00  0.00     0.212 C 
ATOM     16  O1  <0> d           2.956   3.419  -0.008  0.00  0.00    -0.644 OA
ATOM     17  O2  <0> d           0.861   4.155   0.017  0.00  0.00    -0.644 OA
ENDBRANCH   2  15
TORSDOF 3
