REMARK  5 active torsions:
REMARK  status: ('A' for Active; 'I' for Inactive)
REMARK    1  A    between atoms: C1_1  and  C2_2 
REMARK    2  A    between atoms: C2_2  and  C3_3 
REMARK    3  A    between atoms: C2_2  and  C4_4 
REMARK    4  A    between atoms: C7_7  and  C8_10 
REMARK    5  A    between atoms: C8_10  and  C9_12 
ROOT
ATOM      1  C4  <0> d          -1.412  -0.526   0.013  0.00  0.00     0.013 A 
ATOM      2  C5  <0> d          -2.458   0.051   0.655  0.00  0.00    -0.059 A 
ATOM      3  C6  <0> d          -3.589  -0.734   0.421  0.00  0.00    -0.052 A 
ATOM      4  C7  <0> d          -3.189  -1.792  -0.376  0.00  0.00     0.078 A 
ATOM      5  N1  <0> d          -1.841  -1.637  -0.619  0.00  0.00    -0.356 N 
ATOM      6  H1  <0> d          -1.291  -2.231  -1.154  0.00  0.00     0.166 HD
ATOM      7  H9  <0> d          -2.423   0.956   1.243  0.00  0.00     0.086 H 
ATOM      8  H10 <0> d          -4.587  -0.550   0.793  0.00  0.00     0.087 H 
ENDROOT
BRANCH   1   9
ATOM      9  C2  <0> d           0.002  -0.004   0.002  0.00  0.00    -0.021 C 
ATOM     10  H5  <0> d           0.512  -0.356  -0.895  0.00  0.00     0.048 H 
BRANCH   9  11
ATOM     11  C1  <0> d          -0.019   1.526   0.010  0.00  0.00    -0.068 C 
ATOM     12  H2  <0> d           1.004   1.903   0.003  0.00  0.00     0.028 H 
ATOM     13  H3  <0> d          -0.546   1.887  -0.873  0.00  0.00     0.028 H 
ATOM     14  H4  <0> d          -0.529   1.877   0.907  0.00  0.00     0.028 H 
ENDBRANCH   9  11
BRANCH   9  15
ATOM     15  C3  <0> d           0.742  -0.511   1.242  0.00  0.00    -0.068 C 
ATOM     16  H6  <0> d           0.757  -1.601   1.236  0.00  0.00     0.028 H 
ATOM     17  H7  <0> d           1.765  -0.134   1.234  0.00  0.00     0.028 H 
ATOM     18  H8  <0> d           0.232  -0.159   2.138  0.00  0.00     0.028 H 
ENDBRANCH   9  15
ENDBRANCH   1   9
BRANCH   4  19
ATOM     19  C8  <0> d          -4.012  -2.836  -0.857  0.00  0.00     0.172 C 
ATOM     20  O1  <0> d          -3.538  -3.712  -1.552  0.00  0.00    -0.291 OA
BRANCH  19  21
ATOM     21  C9  <0> d          -5.477  -2.862  -0.506  0.00  0.00    -0.015 C 
ATOM     22  H11 <0> d          -5.717  -2.003   0.119  0.00  0.00     0.038 H 
ATOM     23  H12 <0> d          -6.070  -2.823  -1.420  0.00  0.00     0.038 H 
ATOM     24  H13 <0> d          -5.705  -3.781   0.035  0.00  0.00     0.038 H 
ENDBRANCH  19  21
ENDBRANCH   4  19
TORSDOF 5
