REMARK  1 active torsions:
REMARK  status: ('A' for Active; 'I' for Inactive)
REMARK    1  A    between atoms: C6_6  and  N1_7 
ROOT
ATOM      1  C1  <0> d          -1.218   1.747   0.017  0.00  0.00    -0.056 A 
ATOM      2  C2  <0> d          -0.013   1.076   0.008  0.00  0.00    -0.054 A 
ATOM      3  C3  <0> d           1.186   1.786   0.000  0.00  0.00     0.041 A 
ATOM      4  C4  <0> d           1.147   3.175   0.008  0.00  0.00    -0.021 A 
ATOM      5  C5  <0> d          -0.053   3.848   0.024  0.00  0.00    -0.049 A 
ATOM      6  C6  <0> d          -1.246   3.135   0.032  0.00  0.00     0.026 A 
ATOM      7  C7  <0> d           2.585   3.641  -0.003  0.00  0.00     0.035 A 
ATOM      8  C8  <0> d           3.389   2.358  -0.018  0.00  0.00     0.226 A 
ATOM      9  O1  <0> d           4.598   2.266  -0.029  0.00  0.00    -0.273 OA
ATOM     10  N2  <0> d           2.511   1.341  -0.015  0.00  0.00    -0.326 N 
ATOM     11  H1  <0> d          -2.143   1.190   0.019  0.00  0.00     0.087 H 
ATOM     12  H2  <0> d           0.002  -0.004   0.002  0.00  0.00     0.087 H 
ATOM     13  H3  <0> d          -0.068   4.928   0.030  0.00  0.00     0.087 H 
ATOM     14  H6  <0> d           2.806   4.220   0.894  0.00  0.00     0.054 H 
ATOM     15  H7  <0> d           2.791   4.230  -0.897  0.00  0.00     0.054 H 
ATOM     16  H8  <0> d           2.767   0.405  -0.023  0.00  0.00     0.169 HD
ENDROOT
BRANCH   6  17
ATOM     17  N1  <0> d          -2.470   3.813   0.047  0.00  0.00    -0.399 N 
ATOM     18  H4  <0> d          -2.487   4.782   0.053  0.00  0.00     0.156 HD
ATOM     19  H5  <0> d          -3.301   3.313   0.053  0.00  0.00     0.156 HD
ENDBRANCH   6  17
TORSDOF 1
