REMARK  1 active torsions:
REMARK  status: ('A' for Active; 'I' for Inactive)
REMARK    1  A    between atoms: C1_1  and  C2_2 
ROOT
ATOM      1  C2  <0> d           0.002  -0.004   0.002  0.00  0.00     0.144 A 
ATOM      2  N1  <0> d          -1.054  -0.761   0.003  0.00  0.00    -0.225 NA
ATOM      3  C3  <0> d          -0.658  -2.061  -0.006  0.00  0.00     0.112 A 
ATOM      4  C4  <0> d          -1.334  -3.284  -0.009  0.00  0.00    -0.049 A 
ATOM      5  C5  <0> d          -0.583  -4.444  -0.018  0.00  0.00    -0.064 A 
ATOM      6  C6  <0> d           0.800  -4.360  -0.025  0.00  0.00     0.005 A 
ATOM      7  N2  <0> d           1.417  -3.196  -0.021  0.00  0.00    -0.235 NA
ATOM      8  C7  <0> d           0.746  -2.056  -0.013  0.00  0.00     0.200 A 
ATOM      9  O1  <0> d           1.114  -0.756  -0.013  0.00  0.00    -0.275 OA
ATOM     10  H4  <0> d          -2.414  -3.321  -0.004  0.00  0.00     0.087 H 
ATOM     11  H5  <0> d          -1.069  -5.408  -0.021  0.00  0.00     0.085 H 
ATOM     12  H6  <0> d           1.385  -5.268  -0.032  0.00  0.00     0.114 H 
ENDROOT
BRANCH   1  13
ATOM     13  C1  <0> d          -0.018   1.503   0.010  0.00  0.00    -0.015 C 
ATOM     14  H1  <0> d           1.004   1.880   0.003  0.00  0.00     0.038 H 
ATOM     15  H2  <0> d          -0.545   1.864  -0.873  0.00  0.00     0.038 H 
ATOM     16  H3  <0> d          -0.529   1.854   0.907  0.00  0.00     0.038 H 
ENDBRANCH   1  13
TORSDOF 1
