REMARK  1 active torsions:
REMARK  status: ('A' for Active; 'I' for Inactive)
REMARK    1  A    between atoms: C4_5  and  N2_8 
ROOT
ATOM      1  C1  <0> d          -2.426   3.702   0.035  0.00  0.00    -0.037 A 
ATOM      2  C2  <0> d          -3.610   2.949   0.037  0.00  0.00     0.064 A 
ATOM      3  C3  <0> d          -3.527   1.556   0.028  0.00  0.00     0.025 A 
ATOM      4  N1  <0> d          -2.354   0.955   0.018  0.00  0.00    -0.241 NA
ATOM      5  C4  <0> d          -1.221   1.643   0.017  0.00  0.00     0.142 A 
ATOM      6  C5  <0> d          -1.229   3.037   0.030  0.00  0.00     0.081 A 
ATOM      7 Cl1  <0> d           0.265   3.922   0.035  0.00  0.00    -0.080 Cl
ATOM      8  C6  <0> d          -4.886   3.600   0.047  0.00  0.00     0.101 C 
ATOM      9  N3  <0> d          -5.897   4.116   0.055  0.00  0.00    -0.191 NA
ATOM     10  H1  <0> d          -2.458   4.782   0.042  0.00  0.00     0.088 H 
ATOM     11  H2  <0> d          -4.431   0.965   0.029  0.00  0.00     0.117 H 
ENDROOT
BRANCH   5  12
ATOM     12  N2  <0> d          -0.011   0.966   0.007  0.00  0.00    -0.383 N 
ATOM     13  H3  <0> d           0.934   1.529   0.006  0.00  0.00     0.157 HD
ATOM     14  H4  <0> d           0.004  -0.134   0.001  0.00  0.00     0.157 HD
ENDBRANCH   5  12
TORSDOF 1
