REMARK  5 active torsions:
REMARK  status: ('A' for Active; 'I' for Inactive)
REMARK    1  A    between atoms: C1_1  and  C2_2 
REMARK    2  A    between atoms: C2_2  and  C3_3 
REMARK    3  A    between atoms: C2_2  and  C4_4 
REMARK    4  A    between atoms: C6_6  and  N3_10 
REMARK    5  A    between atoms: N1_7  and  C7_9 
ROOT
ATOM      1  C4  <0> d          -1.027   2.233   3.279  0.00  0.00     0.062 A 
ATOM      2  C5  <0> d          -2.252   2.225   2.605  0.00  0.00    -0.014 A 
ATOM      3  C6  <0> d          -2.022   1.810   1.329  0.00  0.00     0.119 A 
ATOM      4  N1  <0> d          -0.698   1.558   1.213  0.00  0.00    -0.259 N 
ATOM      5  N2  <0> d          -0.098   1.835   2.448  0.00  0.00    -0.175 NA
ATOM      6  H8  <0> d          -3.209   2.503   3.022  0.00  0.00     0.092 H 
ENDROOT
BRANCH   1   7
ATOM      7  C2  <0> d          -0.813   2.632   4.716  0.00  0.00    -0.017 C 
ATOM      8  H4  <0> d           0.084   2.146   5.099  0.00  0.00     0.048 H 
BRANCH   7   9
ATOM      9  C1  <0> d          -0.648   4.151   4.805  0.00  0.00    -0.068 C 
ATOM     10  H1  <0> d          -1.546   4.637   4.422  0.00  0.00     0.028 H 
ATOM     11  H2  <0> d          -0.493   4.439   5.844  0.00  0.00     0.028 H 
ATOM     12  H3  <0> d           0.213   4.458   4.210  0.00  0.00     0.028 H 
ENDBRANCH   7   9
BRANCH   7  13
ATOM     13  C3  <0> d          -2.022   2.201   5.550  0.00  0.00    -0.068 C 
ATOM     14  H5  <0> d          -2.139   1.120   5.487  0.00  0.00     0.028 H 
ATOM     15  H6  <0> d          -1.867   2.490   6.590  0.00  0.00     0.028 H 
ATOM     16  H7  <0> d          -2.919   2.687   5.168  0.00  0.00     0.028 H 
ENDBRANCH   7  13
ENDBRANCH   1   7
BRANCH   4  17
ATOM     17  C7  <0> d          -0.013   1.086   0.008  0.00  0.00     0.004 C 
ATOM     18  H9  <0> d           0.002  -0.004   0.002  0.00  0.00     0.059 H 
ATOM     19  H10 <0> d           1.010   1.463   0.000  0.00  0.00     0.059 H 
ATOM     20  H11 <0> d          -0.540   1.447  -0.875  0.00  0.00     0.059 H 
ENDBRANCH   4  17
BRANCH   3  21
ATOM     21  N3  <0> d          -2.977   1.667   0.326  0.00  0.00    -0.384 N 
ATOM     22  H12 <0> d          -2.713   1.361  -0.555  0.00  0.00     0.157 HD
ATOM     23  H13 <0> d          -3.907   1.875   0.509  0.00  0.00     0.157 HD
ENDBRANCH   3  21
TORSDOF 5
