REMARK  1 active torsions:
REMARK  status: ('A' for Active; 'I' for Inactive)
REMARK    1  A    between atoms: C1_1  and  C2_2 
ROOT
ATOM      1  C2  <0> d           0.002  -0.004   0.002  0.00  0.00     0.029 A 
ATOM      2  C3  <0> d          -1.186  -0.706   0.004  0.00  0.00     0.067 A 
ATOM      3  C4  <0> d          -1.160  -2.121  -0.004  0.00  0.00    -0.056 A 
ATOM      4  C5  <0> d           0.042  -2.759  -0.013  0.00  0.00    -0.016 A 
ATOM      5  C6  <0> d           1.228  -2.002  -0.015  0.00  0.00     0.245 A 
ATOM      6  O1  <0> d           2.308  -2.569  -0.023  0.00  0.00    -0.268 OA
ATOM      7  N1  <0> d           1.180  -0.657  -0.013  0.00  0.00    -0.326 N 
ATOM      8  H1  <0> d           2.007  -0.150  -0.018  0.00  0.00     0.169 HD
ATOM      9  C7  <0> d          -2.436  -0.007   0.014  0.00  0.00     0.101 C 
ATOM     10  N2  <0> d          -3.428   0.547   0.022  0.00  0.00    -0.191 NA
ATOM     11  H5  <0> d          -2.080  -2.687  -0.002  0.00  0.00     0.086 H 
ATOM     12  H6  <0> d           0.085  -3.838  -0.019  0.00  0.00     0.092 H 
ENDROOT
BRANCH   1  13
ATOM     13  C1  <0> d          -0.018   1.503   0.010  0.00  0.00    -0.036 C 
ATOM     14  H2  <0> d           1.004   1.880   0.003  0.00  0.00     0.035 H 
ATOM     15  H3  <0> d          -0.545   1.864  -0.873  0.00  0.00     0.035 H 
ATOM     16  H4  <0> d          -0.529   1.854   0.907  0.00  0.00     0.035 H 
ENDBRANCH   1  13
TORSDOF 1
