REMARK  2 active torsions:
REMARK  status: ('A' for Active; 'I' for Inactive)
REMARK    1  A    between atoms: C2_2  and  N1_10 
REMARK    2  A    between atoms: C3_3  and  O1_9 
ROOT
ATOM      1  C1  <0> d           1.173   2.054   0.002  0.00  0.00    -0.015 A 
ATOM      2  C2  <0> d           1.155   3.441   0.009  0.00  0.00     0.062 A 
ATOM      3  C3  <0> d          -0.061   4.119   0.024  0.00  0.00     0.095 A 
ATOM      4  C4  <0> d          -1.249   3.407   0.031  0.00  0.00    -0.009 A 
ATOM      5  C5  <0> d          -1.227   2.023   0.019  0.00  0.00     0.157 A 
ATOM      6  C6  <0> d          -0.016   1.347   0.009  0.00  0.00     0.157 A 
ATOM      7  F1  <0> d           0.002  -0.004   0.002  0.00  0.00    -0.203 F 
ATOM      8  F2  <0> d          -2.386   1.329   0.021  0.00  0.00    -0.203 F 
ATOM      9  H1  <0> d           2.115   1.526  -0.009  0.00  0.00     0.092 H 
ATOM     10  H2  <0> d          -2.193   3.931   0.043  0.00  0.00     0.092 H 
ENDROOT
BRANCH   2  11
ATOM     11  N1  <0> d           2.358   4.159   0.002  0.00  0.00    -0.397 N 
ATOM     12  H4  <0> d           3.205   3.686  -0.008  0.00  0.00     0.156 HD
ATOM     13  H5  <0> d           2.345   5.128   0.007  0.00  0.00     0.156 HD
ENDBRANCH   2  11
BRANCH   3  14
ATOM     14  O1  <0> d          -0.083   5.479   0.031  0.00  0.00    -0.358 OA
ATOM     15  H3  <0> d          -0.097   5.877  -0.850  0.00  0.00     0.217 HD
ENDBRANCH   3  14
TORSDOF 2
