REMARK  4 active torsions:
REMARK  status: ('A' for Active; 'I' for Inactive)
REMARK    1  A    between atoms: C1_1  and  C2_2 
REMARK    2  A    between atoms: C2_2  and  O1_3 
REMARK    3  A    between atoms: O1_3  and  C3_4 
REMARK    4  A    between atoms: C5_6  and  C6_10 
ROOT
ATOM      1  C3  <0> d          -0.148   1.182   2.380  0.00  0.00     0.185 A 
ATOM      2  C4  <0> d          -0.646   1.532   3.645  0.00  0.00    -0.008 A 
ATOM      3  C5  <0> d           0.160   0.973   4.577  0.00  0.00     0.028 A 
ATOM      4  N1  <0> d           1.136   0.302   3.931  0.00  0.00    -0.280 N 
ATOM      5  H1  <0> d           1.881  -0.209   4.359  0.00  0.00     0.189 HD
ATOM      6  N2  <0> d           0.923   0.447   2.554  0.00  0.00    -0.149 NA
ATOM      7  H7  <0> d          -1.518   2.138   3.839  0.00  0.00     0.093 H 
ENDROOT
BRANCH   1   8
ATOM      8  O1  <0> d          -0.682   1.547   1.184  0.00  0.00    -0.334 OA
BRANCH   8   9
ATOM      9  C2  <0> d          -0.013   1.086   0.008  0.00  0.00     0.024 C 
ATOM     10  H5  <0> d           0.002  -0.004   0.002  0.00  0.00     0.074 H 
ATOM     11  H6  <0> d           1.010   1.463   0.000  0.00  0.00     0.074 H 
BRANCH   9  12
ATOM     12  C1  <0> d          -0.753   1.593  -1.232  0.00  0.00    -0.056 C 
ATOM     13  H2  <0> d          -0.242   1.241  -2.128  0.00  0.00     0.030 H 
ATOM     14  H3  <0> d          -1.775   1.215  -1.224  0.00  0.00     0.030 H 
ATOM     15  H4  <0> d          -0.767   2.683  -1.226  0.00  0.00     0.030 H 
ENDBRANCH   9  12
ENDBRANCH   8   9
ENDBRANCH   1   8
BRANCH   3  16
ATOM     16  C6  <0> d          -0.001   1.085   6.071  0.00  0.00    -0.036 C 
ATOM     17  H8  <0> d           0.542   1.959   6.430  0.00  0.00     0.035 H 
ATOM     18  H9  <0> d          -1.058   1.188   6.316  0.00  0.00     0.035 H 
ATOM     19  H10 <0> d           0.397   0.189   6.548  0.00  0.00     0.035 H 
ENDBRANCH   3  16
TORSDOF 4
