REMARK  1 active torsions:
REMARK  status: ('A' for Active; 'I' for Inactive)
REMARK    1  A    between atoms: C7_9  and  N4_13 
ROOT
ATOM      1  C1  <0> d           1.188  -0.717  -0.013  0.00  0.00    -0.045 A 
ATOM      2  C2  <0> d           0.002  -0.004   0.002  0.00  0.00     0.006 A 
ATOM      3  N1  <0> d          -0.016   1.312   0.009  0.00  0.00    -0.242 NA
ATOM      4  C3  <0> d           1.098   2.031   0.003  0.00  0.00     0.141 A 
ATOM      5  C4  <0> d           2.350   1.386  -0.013  0.00  0.00     0.058 A 
ATOM      6  C5  <0> d           2.401  -0.022  -0.021  0.00  0.00     0.062 A 
ATOM      7  C6  <0> d           3.652  -0.718  -0.037  0.00  0.00     0.100 C 
ATOM      8  N2  <0> d           4.645  -1.270  -0.050  0.00  0.00    -0.191 NA
ATOM      9  C7  <0> d           3.360   2.444  -0.017  0.00  0.00     0.057 A 
ATOM     10  C8  <0> d           2.696   3.617  -0.005  0.00  0.00     0.005 A 
ATOM     11  N3  <0> d           1.341   3.384   0.007  0.00  0.00    -0.348 N 
ATOM     12  H1  <0> d           0.658   4.072   0.017  0.00  0.00     0.167 HD
ATOM     13  H2  <0> d           1.177  -1.797  -0.018  0.00  0.00     0.088 H 
ATOM     14  H3  <0> d          -0.934  -0.542   0.008  0.00  0.00     0.114 H 
ATOM     15  H4  <0> d           3.159   4.593  -0.005  0.00  0.00     0.114 H 
ENDROOT
BRANCH   9  16
ATOM     16  N4  <0> d           4.756   2.270  -0.032  0.00  0.00    -0.397 N 
ATOM     17  H5  <0> d           5.134   1.376  -0.040  0.00  0.00     0.156 HD
ATOM     18  H6  <0> d           5.341   3.043  -0.034  0.00  0.00     0.156 HD
ENDBRANCH   9  16
TORSDOF 1
