REMARK  2 active torsions:
REMARK  status: ('A' for Active; 'I' for Inactive)
REMARK    1  A    between atoms: C3_3  and  N3_11 
REMARK    2  A    between atoms: C5_5  and  N1_7 
REMARK       I    between atoms: N1_7  and  C7_8 
REMARK       I    between atoms: C7_8  and  N2_10 
ROOT
ATOM      1  C1  <0> d           0.005   1.380   0.172  0.00  0.00    -0.079 A 
ATOM      2  C2  <0> d           1.177   2.087  -0.015  0.00  0.00    -0.058 A 
ATOM      3  C3  <0> d           2.376   1.411  -0.204  0.00  0.00     0.027 A 
ATOM      4  C4  <0> d           2.395   0.023  -0.206  0.00  0.00    -0.032 A 
ATOM      5  C5  <0> d           1.216  -0.684  -0.019  0.00  0.00     0.038 A 
ATOM      6  C6  <0> d           0.021  -0.002   0.170  0.00  0.00    -0.057 A 
ATOM      7  H1  <0> d          -0.925   1.908   0.323  0.00  0.00     0.083 H 
ATOM      8  H2  <0> d           1.161   3.167  -0.013  0.00  0.00     0.086 H 
ATOM      9  H3  <0> d           3.325  -0.505  -0.354  0.00  0.00     0.090 H 
ATOM     10  H4  <0> d          -0.897  -0.552   0.316  0.00  0.00     0.086 H 
ENDROOT
BRANCH   5  11
ATOM     11  N1  <0> d           1.232  -2.083  -0.021  0.00  0.00    -0.309 N 
ATOM     12  C7  <0> d           2.303  -2.746   0.459  0.00  0.00     0.318 C 
ATOM     13  O1  <0> d           3.213  -2.133   0.981  0.00  0.00    -0.247 OA
ATOM     14  N2  <0> d           2.364  -4.089   0.360  0.00  0.00    -0.352 N 
ATOM     15  H6  <0> d           1.637  -4.578  -0.057  0.00  0.00     0.160 HD
ATOM     16  H7  <0> d           3.135  -4.566   0.705  0.00  0.00     0.160 HD
ATOM     17  H5  <0> d           0.471  -2.576  -0.367  0.00  0.00     0.170 HD
ENDBRANCH   5  11
BRANCH   3  18
ATOM     18  N3  <0> d           3.560   2.127  -0.393  0.00  0.00    -0.399 N 
ATOM     19  H8  <0> d           3.546   3.097  -0.392  0.00  0.00     0.156 HD
ATOM     20  H9  <0> d           4.397   1.654  -0.525  0.00  0.00     0.156 HD
ENDBRANCH   3  18
TORSDOF 2
