REMARK  3 active torsions:
REMARK  status: ('A' for Active; 'I' for Inactive)
REMARK    1  A    between atoms: C1_1  and  C2_2 
REMARK    2  A    between atoms: C8_10  and  C11_13 
REMARK    3  A    between atoms: C9_11  and  C10_12 
ROOT
ATOM      1  C2  <0> d          -1.204   1.745   0.017  0.00  0.00    -0.055 A 
ATOM      2  C3  <0> d          -0.013   1.076   0.008  0.00  0.00    -0.065 A 
ATOM      3  C4  <0> d           1.185   1.793   0.000  0.00  0.00    -0.007 A 
ATOM      4  C5  <0> d           2.600   1.412  -0.015  0.00  0.00    -0.056 A 
ATOM      5  C6  <0> d           3.312   2.549  -0.016  0.00  0.00    -0.022 A 
ATOM      6  N1  <0> d           2.470   3.628  -0.002  0.00  0.00    -0.365 N 
ATOM      7  H1  <0> d           2.882   4.648  -0.001  0.00  0.00     0.165 HD
ATOM      8  C7  <0> d           1.161   3.199   0.008  0.00  0.00     0.049 A 
ATOM      9  C8  <0> d          -0.062   3.860   0.022  0.00  0.00    -0.028 A 
ATOM     10  C9  <0> d          -1.233   3.133   0.030  0.00  0.00    -0.048 A 
ATOM     11  H5  <0> d           0.002  -0.004   0.002  0.00  0.00     0.085 H 
ATOM     12  H6  <0> d           2.994   0.406  -0.024  0.00  0.00     0.086 H 
ATOM     13  H7  <0> d           4.391   2.605  -0.026  0.00  0.00     0.111 H 
ENDROOT
BRANCH   1  14
ATOM     14  C1  <0> d          -2.497   0.971   0.019  0.00  0.00    -0.051 C 
ATOM     15  H2  <0> d          -2.278  -0.107   0.008  0.00  0.00     0.033 H 
ATOM     16  H3  <0> d          -3.084   1.235  -0.873  0.00  0.00     0.033 H 
ATOM     17  H4  <0> d          -3.071   1.219   0.923  0.00  0.00     0.033 H 
ENDBRANCH   1  14
BRANCH  10  18
ATOM     18  C10 <0> d          -2.557   3.852   0.046  0.00  0.00    -0.050 C 
ATOM     19  H8  <0> d          -2.385   4.938   0.054  0.00  0.00     0.033 H 
ATOM     20  H9  <0> d          -3.120   3.563   0.946  0.00  0.00     0.033 H 
ATOM     21  H10 <0> d          -3.134   3.579  -0.850  0.00  0.00     0.033 H 
ENDBRANCH  10  18
BRANCH   9  22
ATOM     22  C11 <0> d          -0.108   5.367   0.030  0.00  0.00    -0.049 C 
ATOM     23  H11 <0> d          -1.156   5.701   0.041  0.00  0.00     0.033 H 
ATOM     24  H12 <0> d           0.391   5.753  -0.871  0.00  0.00     0.033 H 
ATOM     25  H13 <0> d           0.408   5.745   0.925  0.00  0.00     0.033 H 
ENDBRANCH   9  22
TORSDOF 3
