REMARK  1 active torsions:
REMARK  status: ('A' for Active; 'I' for Inactive)
REMARK    1  A    between atoms: C2_4  and  N3_8 
ROOT
ATOM      1  C1  <0> d          -0.018   1.511   0.010  0.00  0.00     0.026 A 
ATOM      2  N1  <0> d           1.217   1.887   0.001  0.00  0.00    -0.188 NA
ATOM      3  N2  <0> d           2.101   0.813  -0.014  0.00  0.00    -0.266 N 
ATOM      4  C2  <0> d           1.482  -0.335  -0.014  0.00  0.00     0.115 A 
ATOM      5  C3  <0> d           0.002  -0.004   0.002  0.00  0.00     0.107 A 
ATOM      6  H1  <0> d          -0.487  -0.390  -0.892  0.00  0.00     0.085 H 
ATOM      7 Cl1  <0> d          -0.779  -0.658   1.489  0.00  0.00    -0.111 Cl
ATOM      8  H2  <0> d          -0.890   2.149   0.026  0.00  0.00     0.113 H 
ATOM      9  H5  <0> d           3.066   0.907  -0.023  0.00  0.00     0.190 HD
ENDROOT
BRANCH   4  10
ATOM     10  N3  <0> d           2.050  -1.579  -0.027  0.00  0.00    -0.386 N 
ATOM     11  H3  <0> d           3.015  -1.672  -0.037  0.00  0.00     0.157 HD
ATOM     12  H4  <0> d           1.487  -2.369  -0.026  0.00  0.00     0.157 HD
ENDBRANCH   4  10
TORSDOF 1
