REMARK  1 active torsions:
REMARK  status: ('A' for Active; 'I' for Inactive)
REMARK    1  A    between atoms: C3_3  and  C5_5 
ROOT
ATOM      1  C1  <0> d          -0.019   1.534   0.011  0.00  0.00    -0.064 C 
ATOM      2  C2  <0> d           1.518   1.476  -0.004  0.00  0.00    -0.055 C 
ATOM      3  C3  <0> d           1.394   0.090   0.649  0.00  0.00     0.012 C 
ATOM      4  C4  <0> d           0.002  -0.004   0.002  0.00  0.00    -0.055 C 
ATOM      5  H1  <0> d          -0.431   1.960   0.925  0.00  0.00     0.033 H 
ATOM      6  H2  <0> d          -0.448   1.969  -0.892  0.00  0.00     0.033 H 
ATOM      7  H3  <0> d           1.944   1.450  -1.007  0.00  0.00     0.034 H 
ATOM      8  H4  <0> d           1.989   2.221   0.637  0.00  0.00     0.034 H 
ATOM      9  H5  <0> d           1.368   0.121   1.738  0.00  0.00     0.052 H 
ATOM     10  H6  <0> d          -0.751  -0.455   0.649  0.00  0.00     0.034 H 
ATOM     11  H7  <0> d           0.014  -0.435  -0.999  0.00  0.00     0.034 H 
ENDROOT
BRANCH   3  12
ATOM     12  C5  <0> d           2.377  -0.920   0.114  0.00  0.00     0.174 A 
ATOM     13  N1  <0> d           2.138  -1.768  -0.830  0.00  0.00    -0.148 NA
ATOM     14  N2  <0> d           3.302  -2.525  -1.033  0.00  0.00    -0.220 N 
ATOM     15  C6  <0> d           4.221  -2.067  -0.157  0.00  0.00     0.387 A 
ATOM     16  H8  <0> d           3.422  -3.240  -1.678  0.00  0.00     0.194 HD
ATOM     17  O1  <0> d           3.646  -1.075   0.542  0.00  0.00    -0.243 OA
ATOM     18  O2  <0> d           5.361  -2.474  -0.028  0.00  0.00    -0.236 OA
ENDBRANCH   3  12
TORSDOF 1
