REMARK  1 active torsions:
REMARK  status: ('A' for Active; 'I' for Inactive)
REMARK    1  A    between atoms: C1_1  and  C2_2 
ROOT
ATOM      1  C2  <0> d           2.017   1.452   1.183  0.00  0.00    -0.035 A 
ATOM      2  C3  <0> d           3.305   1.940   1.235  0.00  0.00    -0.075 A 
ATOM      3  C4  <0> d           3.877   2.503   0.109  0.00  0.00    -0.082 A 
ATOM      4  C5  <0> d           3.154   2.578  -1.065  0.00  0.00    -0.075 A 
ATOM      5  C6  <0> d           1.858   2.092  -1.125  0.00  0.00    -0.031 A 
ATOM      6  C7  <0> d           1.283   1.522  -0.002  0.00  0.00     0.040 A 
ATOM      7  N1  <0> d          -0.012   1.005   0.008  0.00  0.00    -0.389 N 
ATOM      8  C8  <0> d          -0.847   1.524  -1.077  0.00  0.00    -0.007 C 
ATOM      9  C9  <0> d          -0.117   1.301  -2.408  0.00  0.00    -0.047 C 
ATOM     10  C10 <0> d           1.112   2.213  -2.430  0.00  0.00    -0.037 C 
ATOM     11  H4  <0> d           3.868   1.883   2.155  0.00  0.00     0.084 H 
ATOM     12  H5  <0> d           4.886   2.885   0.148  0.00  0.00     0.083 H 
ATOM     13  H6  <0> d           3.603   3.018  -1.944  0.00  0.00     0.084 H 
ATOM     14  H7  <0> d          -0.428   0.281   0.724  0.00  0.00     0.159 HD
ATOM     15  H8  <0> d          -1.810   0.993  -1.085  0.00  0.00     0.064 H 
ATOM     16  H9  <0> d          -1.022   2.599  -0.923  0.00  0.00     0.064 H 
ATOM     17  H10 <0> d           0.190   0.248  -2.486  0.00  0.00     0.035 H 
ATOM     18  H11 <0> d          -0.790   1.550  -3.242  0.00  0.00     0.035 H 
ATOM     19  H12 <0> d           0.791   3.255  -2.573  0.00  0.00     0.040 H 
ATOM     20  H13 <0> d           1.772   1.916  -3.259  0.00  0.00     0.040 H 
ENDROOT
BRANCH   1  21
ATOM     21  C1  <0> d           1.399   0.839   2.412  0.00  0.00    -0.049 C 
ATOM     22  H1  <0> d           2.121   0.871   3.241  0.00  0.00     0.033 H 
ATOM     23  H2  <0> d           1.127  -0.207   2.203  0.00  0.00     0.033 H 
ATOM     24  H3  <0> d           0.496   1.404   2.689  0.00  0.00     0.033 H 
ENDBRANCH   1  21
TORSDOF 1
