REMARK  6 active torsions:
REMARK  status: ('A' for Active; 'I' for Inactive)
REMARK    1  A    between atoms: C1_1  and  C2_2 
REMARK    2  A    between atoms: C2_2  and  C3_3 
REMARK    3  A    between atoms: C2_2  and  C4_4 
REMARK    4  A    between atoms: C2_2  and  O1_9 
REMARK    5  A    between atoms: C5_5  and  C6_6 
REMARK    6  A    between atoms: C6_6  and  C7_7 
ROOT
ATOM      1  C4  <0> d           0.707  -0.490  -1.238  0.00  0.00    -0.075 C 
ATOM      2  C5  <0> d           1.185   0.372  -2.100  0.00  0.00    -0.101 C 
ATOM      3  H7  <0> d           0.819  -1.550  -1.415  0.00  0.00     0.081 H 
ATOM      4  H8  <0> d           1.074   1.432  -1.923  0.00  0.00     0.076 H 
ENDROOT
BRANCH   1   5
ATOM      5  C2  <0> d           0.002  -0.004   0.002  0.00  0.00     0.068 C 
BRANCH   5   6
ATOM      6  C1  <0> d           0.742  -0.511   1.242  0.00  0.00    -0.045 C 
ATOM      7  H1  <0> d           0.232  -0.159   2.138  0.00  0.00     0.032 H 
ATOM      8  H2  <0> d           0.757  -1.601   1.236  0.00  0.00     0.032 H 
ATOM      9  H3  <0> d           1.765  -0.134   1.234  0.00  0.00     0.032 H 
ENDBRANCH   5   6
BRANCH   5  10
ATOM     10  C3  <0> d          -1.433  -0.534   0.013  0.00  0.00    -0.045 C 
ATOM     11  H4  <0> d          -1.960  -0.173  -0.870  0.00  0.00     0.032 H 
ATOM     12  H5  <0> d          -1.419  -1.623   0.007  0.00  0.00     0.032 H 
ATOM     13  H6  <0> d          -1.944  -0.182   0.910  0.00  0.00     0.032 H 
ENDBRANCH   5  10
BRANCH   5  14
ATOM     14  O1  <0> d          -0.017   1.425   0.010  0.00  0.00    -0.387 OA
ATOM     15  H14 <0> d           0.861   1.830   0.004  0.00  0.00     0.211 HD
ENDBRANCH   5  14
ENDBRANCH   1   5
BRANCH   2  16
ATOM     16  C6  <0> d           1.891  -0.114  -3.340  0.00  0.00    -0.036 C 
ATOM     17  H9  <0> d           2.937   0.189  -3.305  0.00  0.00     0.044 H 
ATOM     18  H10 <0> d           1.828  -1.200  -3.391  0.00  0.00     0.044 H 
BRANCH  16  19
ATOM     19  C7  <0> d           1.236   0.485  -4.558  0.00  0.00    -0.109 C 
ATOM     20  C8  <0> d           1.953   1.157  -5.424  0.00  0.00    -0.124 C 
ATOM     21  H12 <0> d           3.014   1.282  -5.265  0.00  0.00     0.066 H 
ATOM     22  H13 <0> d           1.484   1.586  -6.297  0.00  0.00     0.066 H 
ATOM     23  H11 <0> d           0.175   0.361  -4.717  0.00  0.00     0.075 H 
ENDBRANCH  16  19
ENDBRANCH   2  16
TORSDOF 6
