REMARK  2 active torsions:
REMARK  status: ('A' for Active; 'I' for Inactive)
REMARK    1  A    between atoms: C1_1  and  C2_2 
REMARK    2  A    between atoms: C4_5  and  C5_7 
ROOT
ATOM      1  C5  <0> d          -4.112   2.493   2.506  0.00  0.00     0.061 C 
ATOM      2  C6  <0> d          -4.800   1.273   2.962  0.00  0.00     0.065 C 
ATOM      3  N2  <0> d          -5.330   0.332   3.313  0.00  0.00    -0.197 NA
ATOM      4  H5  <0> d          -4.236   3.279   3.251  0.00  0.00     0.065 H 
ATOM      5  H6  <0> d          -4.542   2.819   1.559  0.00  0.00     0.065 H 
ENDROOT
BRANCH   1   6
ATOM      6  C4  <0> d          -2.646   2.202   2.320  0.00  0.00     0.088 A 
ATOM      7  S1  <0> d          -1.351   2.342   3.469  0.00  0.00    -0.084 SA
ATOM      8  C3  <0> d          -0.028   1.807   2.393  0.00  0.00    -0.020 A 
ATOM      9  C2  <0> d          -0.718   1.572   1.248  0.00  0.00     0.038 A 
ATOM     10  H4  <0> d           1.027   1.700   2.598  0.00  0.00     0.098 H 
ATOM     11  N1  <0> d          -2.017   1.784   1.245  0.00  0.00    -0.249 NA
BRANCH   9  12
ATOM     12  C1  <0> d          -0.013   1.086   0.008  0.00  0.00    -0.035 C 
ATOM     13  H1  <0> d           0.002  -0.004   0.002  0.00  0.00     0.035 H 
ATOM     14  H2  <0> d           1.010   1.463   0.000  0.00  0.00     0.035 H 
ATOM     15  H3  <0> d          -0.540   1.447  -0.875  0.00  0.00     0.035 H 
ENDBRANCH   9  12
ENDBRANCH   1   6
TORSDOF 2
