REMARK  1 active torsions:
REMARK  status: ('A' for Active; 'I' for Inactive)
REMARK    1  A    between atoms: C4_4  and  N3_10 
ROOT
ATOM      1  C1  <0> d          -0.017   1.381   0.010  0.00  0.00    -0.065 A 
ATOM      2  C2  <0> d           1.179   2.076   0.002  0.00  0.00    -0.064 A 
ATOM      3  C3  <0> d           2.366   1.341  -0.013  0.00  0.00     0.067 A 
ATOM      4  C4  <0> d           3.790   1.702  -0.025  0.00  0.00     0.163 A 
ATOM      5  N1  <0> d           4.469   0.589  -0.037  0.00  0.00    -0.108 NA
ATOM      6  O1  <0> d           3.580  -0.510  -0.035  0.00  0.00    -0.190 OA
ATOM      7  C5  <0> d           2.308  -0.063  -0.020  0.00  0.00     0.208 A 
ATOM      8  N2  <0> d           1.134  -0.676  -0.013  0.00  0.00    -0.234 NA
ATOM      9  C6  <0> d           0.002  -0.004   0.002  0.00  0.00     0.005 A 
ATOM     10  H1  <0> d          -0.956   1.914   0.026  0.00  0.00     0.085 H 
ATOM     11  H2  <0> d           1.195   3.156   0.007  0.00  0.00     0.085 H 
ATOM     12  H3  <0> d          -0.933  -0.545   0.008  0.00  0.00     0.114 H 
ENDROOT
BRANCH   4  13
ATOM     13  N3  <0> d           4.314   2.987  -0.023  0.00  0.00    -0.381 N 
ATOM     14  H4  <0> d           3.720   3.753  -0.014  0.00  0.00     0.157 HD
ATOM     15  H5  <0> d           5.275   3.119  -0.031  0.00  0.00     0.157 HD
ENDBRANCH   4  13
TORSDOF 1
