REMARK  5 active torsions:
REMARK  status: ('A' for Active; 'I' for Inactive)
REMARK    1  A    between atoms: C1_1  and  C2_2 
REMARK    2  A    between atoms: C2_2  and  N1_3 
REMARK    3  A    between atoms: N1_3  and  C3_4 
REMARK    4  A    between atoms: N1_3  and  C5_6 
REMARK    5  A    between atoms: C3_4  and  C4_5 
ROOT
ATOM      1  N1  <0> d           0.713  -0.491   1.192  0.00  0.00    -0.042 N 
ATOM      2  H16 <0> d           1.632  -0.076   1.228  0.00  0.00     0.286 HD
ENDROOT
BRANCH   1   3
ATOM      3  C2  <0> d           0.002  -0.004   0.002  0.00  0.00     0.085 C 
ATOM      4  H4  <0> d          -1.020  -0.381   0.010  0.00  0.00     0.076 H 
ATOM      5  H5  <0> d           0.512  -0.356  -0.895  0.00  0.00     0.076 H 
BRANCH   3   6
ATOM      6  C1  <0> d          -0.019   1.526   0.010  0.00  0.00    -0.053 C 
ATOM      7  H1  <0> d           1.004   1.903   0.003  0.00  0.00     0.029 H 
ATOM      8  H2  <0> d          -0.546   1.887  -0.873  0.00  0.00     0.029 H 
ATOM      9  H3  <0> d          -0.529   1.877   0.907  0.00  0.00     0.029 H 
ENDBRANCH   3   6
ENDBRANCH   1   3
BRANCH   1  10
ATOM     10  C3  <0> d          -0.040  -0.119   2.398  0.00  0.00     0.085 C 
ATOM     11  H6  <0> d          -0.209   0.958   2.403  0.00  0.00     0.076 H 
ATOM     12  H7  <0> d          -0.999  -0.637   2.402  0.00  0.00     0.076 H 
BRANCH  10  13
ATOM     13  C4  <0> d           0.760  -0.515   3.640  0.00  0.00    -0.053 C 
ATOM     14  H8  <0> d           0.929  -1.592   3.636  0.00  0.00     0.029 H 
ATOM     15  H9  <0> d           1.719   0.004   3.636  0.00  0.00     0.029 H 
ATOM     16  H10 <0> d           0.202  -0.239   4.535  0.00  0.00     0.029 H 
ENDBRANCH  10  13
ENDBRANCH   1  10
BRANCH   1  17
ATOM     17  C5  <0> d           0.831  -1.882   1.127  0.00  0.00     0.134 A 
ATOM     18  C10 <0> d           2.083  -2.470   1.121  0.00  0.00    -0.050 A 
ATOM     19  C9  <0> d           2.200  -3.846   1.062  0.00  0.00    -0.081 A 
ATOM     20  H15 <0> d           2.969  -1.854   1.166  0.00  0.00     0.086 H 
ATOM     21  C8  <0> d           1.066  -4.634   0.999  0.00  0.00    -0.083 A 
ATOM     22  H14 <0> d           3.177  -4.305   1.061  0.00  0.00     0.083 H 
ATOM     23  C7  <0> d          -0.185  -4.046   1.000  0.00  0.00    -0.081 A 
ATOM     24  H13 <0> d           1.158  -5.709   0.950  0.00  0.00     0.083 H 
ATOM     25  C6  <0> d          -0.303  -2.670   1.064  0.00  0.00    -0.050 A 
ATOM     26  H12 <0> d          -1.071  -4.662   0.952  0.00  0.00     0.083 H 
ATOM     27  H11 <0> d          -1.280  -2.211   1.065  0.00  0.00     0.086 H 
ENDBRANCH   1  17
TORSDOF 5
