REMARK  3 active torsions:
REMARK  status: ('A' for Active; 'I' for Inactive)
REMARK    1  A    between atoms: C1_1  and  C2_2 
REMARK    2  A    between atoms: C3_5  and  C4_7 
REMARK    3  A    between atoms: C4_7  and  O2_8 
ROOT
ATOM      1  C2  <0> d           0.002  -0.004   0.002  0.00  0.00     0.165 A 
ATOM      2  N1  <0> d           1.250  -0.378  -0.012  0.00  0.00    -0.127 NA
ATOM      3  N2  <0> d           2.007   0.663  -0.013  0.00  0.00    -0.124 NA
ATOM      4  C3  <0> d           1.268   1.736  -0.001  0.00  0.00     0.192 A 
ATOM      5  O1  <0> d          -0.016   1.339   0.009  0.00  0.00    -0.276 OA
ENDROOT
BRANCH   4   6
ATOM      6  C4  <0> d           1.762   3.159   0.002  0.00  0.00     0.079 C 
ATOM      7  H4  <0> d           1.045   3.792   0.525  0.00  0.00     0.086 H 
ATOM      8  H5  <0> d           2.726   3.208   0.506  0.00  0.00     0.086 H 
BRANCH   6   9
ATOM      9  O2  <0> d           1.905   3.616  -1.345  0.00  0.00    -0.393 OA
ATOM     10  H6  <0> d           2.221   4.527  -1.420  0.00  0.00     0.210 HD
ENDBRANCH   6   9
ENDBRANCH   4   6
BRANCH   1  11
ATOM     11  C1  <0> d          -1.200  -0.912   0.009  0.00  0.00    -0.013 C 
ATOM     12  H1  <0> d          -1.501  -1.126  -1.016  0.00  0.00     0.038 H 
ATOM     13  H2  <0> d          -0.949  -1.844   0.516  0.00  0.00     0.038 H 
ATOM     14  H3  <0> d          -2.022  -0.424   0.534  0.00  0.00     0.038 H 
ENDBRANCH   1  11
TORSDOF 3
