REMARK  6 active torsions:
REMARK  status: ('A' for Active; 'I' for Inactive)
REMARK    1  A    between atoms: C1_1  and  C2_2 
REMARK    2  A    between atoms: C2_2  and  C3_4 
REMARK    3  A    between atoms: C2_2  and  N1_7 
REMARK    4  A    between atoms: C3_4  and  O1_5 
REMARK    5  A    between atoms: O1_5  and  C4_6 
REMARK       I    between atoms: N1_7  and  C5_8 
REMARK    6  A    between atoms: C5_8  and  C6_10 
ROOT
ATOM      1  C6  <0> d           2.462   0.920  -0.017  0.00  0.00     0.088 C 
ATOM      2  C7  <0> d           3.568   1.892  -0.022  0.00  0.00     0.068 C 
ATOM      3  N2  <0> d           4.421   2.641  -0.026  0.00  0.00    -0.197 NA
ATOM      4  H11 <0> d           2.537   0.289   0.869  0.00  0.00     0.069 H 
ATOM      5  H12 <0> d           2.520   0.299  -0.910  0.00  0.00     0.069 H 
ENDROOT
BRANCH   1   6
ATOM      6  C5  <0> d           1.147   1.655  -0.000  0.00  0.00     0.231 C 
ATOM      7  N1  <0> d          -0.011   0.966   0.007  0.00  0.00    -0.354 N 
ATOM      8  H10 <0> d           0.002  -0.004   0.002  0.00  0.00     0.162 HD
ATOM      9  O2  <0> d           1.130   2.868   0.007  0.00  0.00    -0.273 OA
BRANCH   7  10
ATOM     10  C2  <0> d          -1.290   1.681   0.017  0.00  0.00     0.029 C 
ATOM     11  H1  <0> d          -1.193   2.590   0.611  0.00  0.00     0.075 H 
BRANCH  10  12
ATOM     12  C1  <0> d          -1.680   2.047  -1.416  0.00  0.00    -0.055 C 
ATOM     13  H2  <0> d          -0.910   2.685  -1.850  0.00  0.00     0.030 H 
ATOM     14  H3  <0> d          -1.777   1.139  -2.010  0.00  0.00     0.030 H 
ATOM     15  H4  <0> d          -2.631   2.580  -1.409  0.00  0.00     0.030 H 
ENDBRANCH  10  12
BRANCH  10  16
ATOM     16  C3  <0> d          -2.370   0.786   0.627  0.00  0.00     0.037 C 
ATOM     17  H5  <0> d          -2.051   0.452   1.615  0.00  0.00     0.077 H 
ATOM     18  H6  <0> d          -3.300   1.348   0.716  0.00  0.00     0.077 H 
BRANCH  16  19
ATOM     19  O1  <0> d          -2.579  -0.350  -0.215  0.00  0.00    -0.394 OA
BRANCH  19  20
ATOM     20  C4  <0> d          -3.574  -1.255   0.267  0.00  0.00     0.004 C 
ATOM     21  H7  <0> d          -4.529  -0.736   0.348  0.00  0.00     0.066 H 
ATOM     22  H8  <0> d          -3.673  -2.090  -0.428  0.00  0.00     0.066 H 
ATOM     23  H9  <0> d          -3.280  -1.631   1.247  0.00  0.00     0.066 H 
ENDBRANCH  19  20
ENDBRANCH  16  19
ENDBRANCH  10  16
ENDBRANCH   7  10
ENDBRANCH   1   6
TORSDOF 6
