REMARK  0 active torsions:
REMARK  status: ('A' for Active; 'I' for Inactive)
ROOT
ATOM      1  C1  <0> d           2.377   5.233   0.006  0.00  0.00    -0.082 A 
ATOM      2  C2  <0> d           1.172   5.932   0.020  0.00  0.00    -0.082 A 
ATOM      3  C3  <0> d          -0.020   5.272   0.028  0.00  0.00    -0.071 A 
ATOM      4  C4  <0> d          -0.036   3.872   0.022  0.00  0.00    -0.005 A 
ATOM      5  C5  <0> d           1.188   3.158   0.007  0.00  0.00    -0.025 A 
ATOM      6  C6  <0> d           2.399   3.872  -0.001  0.00  0.00    -0.072 A 
ATOM      7  C7  <0> d           1.168   1.754   0.000  0.00  0.00    -0.072 A 
ATOM      8  C8  <0> d          -0.013   1.076   0.008  0.00  0.00    -0.081 A 
ATOM      9  C9  <0> d          -1.235   1.734   0.017  0.00  0.00    -0.062 A 
ATOM     10  C10 <0> d          -1.290   3.122   0.031  0.00  0.00     0.055 A 
ATOM     11  C11 <0> d          -2.549   3.804   0.046  0.00  0.00     0.100 C 
ATOM     12  N1  <0> d          -3.548   4.344   0.058  0.00  0.00    -0.191 NA
ATOM     13  H1  <0> d           3.309   5.780  -0.001  0.00  0.00     0.083 H 
ATOM     14  H2  <0> d           1.183   7.012   0.025  0.00  0.00     0.083 H 
ATOM     15  H3  <0> d          -0.947   5.825   0.038  0.00  0.00     0.084 H 
ATOM     16  H4  <0> d           3.340   3.344  -0.013  0.00  0.00     0.084 H 
ATOM     17  H5  <0> d           2.099   1.206  -0.011  0.00  0.00     0.084 H 
ATOM     18  H6  <0> d           0.002  -0.004   0.002  0.00  0.00     0.083 H 
ATOM     19  H7  <0> d          -2.151   1.162   0.019  0.00  0.00     0.085 H 
ENDROOT
TORSDOF 0
