REMARK  6 active torsions:
REMARK  status: ('A' for Active; 'I' for Inactive)
REMARK    1  A    between atoms: C1_1  and  C2_2 
REMARK    2  A    between atoms: C2_2  and  C4_6 
REMARK    3  A    between atoms: C4_6  and  C5_8 
REMARK    4  A    between atoms: C5_8  and  C6_9 
REMARK    5  A    between atoms: C5_8  and  C7_10 
REMARK    6  A    between atoms: C5_8  and  C8_11 
ROOT
ATOM      1  C2  <0> d          -0.013   1.086   0.008  0.00  0.00     0.085 C 
ATOM      2  H1  <0> d           0.001   0.086   0.002  0.00  0.00     0.074 H 
ATOM      3  C3  <0> d          -0.702   1.560   1.219  0.00  0.00     0.071 C 
ATOM      4  N1  <0> d          -1.233   1.927   2.154  0.00  0.00    -0.196 NA
ENDROOT
BRANCH   1   5
ATOM      5  C1  <0> d          -0.753   1.593  -1.232  0.00  0.00    -0.054 C 
ATOM      6  H2  <0> d          -0.767   2.683  -1.226  0.00  0.00     0.029 H 
ATOM      7  H3  <0> d          -0.242   1.241  -2.128  0.00  0.00     0.029 H 
ATOM      8  H4  <0> d          -1.775   1.215  -1.224  0.00  0.00     0.029 H 
ENDBRANCH   1   5
BRANCH   1   9
ATOM      9  C4  <0> d           1.401   1.607  -0.003  0.00  0.00     0.151 C 
ATOM     10  O1  <0> d           1.677   2.617   0.600  0.00  0.00    -0.296 OA
BRANCH   9  11
ATOM     11  C5  <0> d           2.471   0.869  -0.765  0.00  0.00     0.011 C 
BRANCH  11  12
ATOM     12  C6  <0> d           3.804   1.604  -0.614  0.00  0.00    -0.063 C 
ATOM     13  H5  <0> d           4.076   1.650   0.441  0.00  0.00     0.029 H 
ATOM     14  H6  <0> d           4.578   1.070  -1.166  0.00  0.00     0.029 H 
ATOM     15  H7  <0> d           3.709   2.615  -1.009  0.00  0.00     0.029 H 
ENDBRANCH  11  12
BRANCH  11  16
ATOM     16  C7  <0> d           2.605  -0.550  -0.211  0.00  0.00    -0.063 C 
ATOM     17  H8  <0> d           1.655  -1.074  -0.319  0.00  0.00     0.029 H 
ATOM     18  H9  <0> d           3.379  -1.084  -0.763  0.00  0.00     0.029 H 
ATOM     19  H10 <0> d           2.877  -0.505   0.843  0.00  0.00     0.029 H 
ENDBRANCH  11  16
BRANCH  11  20
ATOM     20  C8  <0> d           2.089   0.805  -2.246  0.00  0.00    -0.063 C 
ATOM     21  H11 <0> d           1.994   1.816  -2.641  0.00  0.00     0.029 H 
ATOM     22  H12 <0> d           2.863   0.271  -2.797  0.00  0.00     0.029 H 
ATOM     23  H13 <0> d           1.139   0.282  -2.354  0.00  0.00     0.029 H 
ENDBRANCH  11  20
ENDBRANCH   9  11
ENDBRANCH   1   9
TORSDOF 6
