REMARK  5 active torsions:
REMARK  status: ('A' for Active; 'I' for Inactive)
REMARK    1  A    between atoms: C1_1  and  C2_2 
REMARK    2  A    between atoms: C4_4  and  C10_11 
REMARK    3  A    between atoms: C5_5  and  O1_9 
REMARK    4  A    between atoms: C6_6  and  C8_8 
REMARK    5  A    between atoms: O1_9  and  C9_10 
ROOT
ATOM      1  C2  <0> d           1.176   1.783   0.000  0.00  0.00    -0.061 A 
ATOM      2  C3  <0> d          -0.013   1.076   0.008  0.00  0.00    -0.069 A 
ATOM      3  C4  <0> d          -1.218   1.750   0.017  0.00  0.00    -0.028 A 
ATOM      4  C5  <0> d          -1.237   3.137   0.031  0.00  0.00     0.080 A 
ATOM      5  C6  <0> d          -0.043   3.844   0.024  0.00  0.00    -0.028 A 
ATOM      6  C7  <0> d           1.160   3.165   0.008  0.00  0.00    -0.069 A 
ATOM      7  H4  <0> d           0.002  -0.004   0.002  0.00  0.00     0.085 H 
ATOM      8  H5  <0> d           2.090   3.715   0.003  0.00  0.00     0.085 H 
ENDROOT
BRANCH   4   9
ATOM      9  O1  <0> d          -2.422   3.802   0.046  0.00  0.00    -0.355 OA
BRANCH   9  10
ATOM     10  C9  <0> d          -2.999   4.127  -1.220  0.00  0.00     0.010 C 
ATOM     11  H9  <0> d          -2.314   4.763  -1.780  0.00  0.00     0.066 H 
ATOM     12  H10 <0> d          -3.185   3.211  -1.781  0.00  0.00     0.066 H 
ATOM     13  H11 <0> d          -3.940   4.655  -1.065  0.00  0.00     0.066 H 
ENDBRANCH   9  10
ENDBRANCH   4   9
BRANCH   3  14
ATOM     14  C10 <0> d          -2.513   0.979   0.019  0.00  0.00    -0.049 C 
ATOM     15  H12 <0> d          -2.821   0.787   1.047  0.00  0.00     0.033 H 
ATOM     16  H13 <0> d          -3.283   1.560  -0.488  0.00  0.00     0.033 H 
ATOM     17  H14 <0> d          -2.372   0.031  -0.501  0.00  0.00     0.033 H 
ENDBRANCH   3  14
BRANCH   5  18
ATOM     18  C8  <0> d          -0.059   5.351   0.032  0.00  0.00    -0.049 C 
ATOM     19  H6  <0> d          -0.073   5.720  -0.994  0.00  0.00     0.033 H 
ATOM     20  H7  <0> d          -0.948   5.702   0.556  0.00  0.00     0.033 H 
ATOM     21  H8  <0> d           0.832   5.721   0.539  0.00  0.00     0.033 H 
ENDBRANCH   5  18
BRANCH   1  22
ATOM     22  C1  <0> d           2.490   1.045  -0.016  0.00  0.00    -0.051 C 
ATOM     23  H1  <0> d           2.797   0.873  -1.048  0.00  0.00     0.033 H 
ATOM     24  H2  <0> d           3.247   1.641   0.494  0.00  0.00     0.033 H 
ATOM     25  H3  <0> d           2.376   0.088   0.494  0.00  0.00     0.033 H 
ENDBRANCH   1  22
TORSDOF 5
