REMARK  3 active torsions:
REMARK  status: ('A' for Active; 'I' for Inactive)
REMARK    1  A    between atoms: C1_1  and  C2_2 
REMARK    2  A    between atoms: C2_2  and  C4_4 
REMARK    3  A    between atoms: C4_4  and  C5_5 
ROOT
ATOM      1  C5  <0> d          -0.018   1.468   0.010  0.00  0.00     0.018 C 
ATOM      2  C6  <0> d           0.002  -0.004   0.002  0.00  0.00     0.059 C 
ATOM      3  N1  <0> d           0.018  -1.140  -0.004  0.00  0.00    -0.197 NA
ATOM      4  H8  <0> d           1.005   1.845   0.002  0.00  0.00     0.055 H 
ATOM      5  H9  <0> d          -0.545   1.829  -0.873  0.00  0.00     0.055 H 
ENDROOT
BRANCH   1   6
ATOM      6  C4  <0> d          -0.734   1.961   1.269  0.00  0.00    -0.034 C 
ATOM      7  H6  <0> d          -1.757   1.584   1.277  0.00  0.00     0.041 H 
ATOM      8  H7  <0> d          -0.207   1.600   2.152  0.00  0.00     0.041 H 
BRANCH   6   9
ATOM      9  C2  <0> d          -0.754   3.468   1.277  0.00  0.00    -0.092 C 
ATOM     10  C3  <0> d          -1.796   4.112   0.811  0.00  0.00    -0.119 C 
ATOM     11  H4  <0> d          -1.811   5.191   0.817  0.00  0.00     0.067 H 
ATOM     12  H5  <0> d          -2.640   3.562   0.421  0.00  0.00     0.067 H 
BRANCH   9  13
ATOM     13  C1  <0> d           0.423   4.235   1.822  0.00  0.00    -0.055 C 
ATOM     14  H1  <0> d           1.187   3.535   2.161  0.00  0.00     0.033 H 
ATOM     15  H2  <0> d           0.836   4.871   1.039  0.00  0.00     0.033 H 
ATOM     16  H3  <0> d           0.099   4.852   2.659  0.00  0.00     0.033 H 
ENDBRANCH   9  13
ENDBRANCH   6   9
ENDBRANCH   1   6
TORSDOF 3
