REMARK  5 active torsions:
REMARK  status: ('A' for Active; 'I' for Inactive)
REMARK    1  A    between atoms: C1_1  and  C2_2 
REMARK    2  A    between atoms: C3_4  and  C5_7 
REMARK    3  A    between atoms: C6_8  and  C7_9 
REMARK    4  A    between atoms: C6_8  and  C8_10 
REMARK    5  A    between atoms: C8_10  and  O2_11 
ROOT
ATOM      1  C5  <0> d           3.560   0.640  -0.230  0.00  0.00    -0.049 C 
ATOM      2  C6  <0> d           4.184  -0.493   0.059  0.00  0.00    -0.058 C 
ATOM      3  H5  <0> d           4.085   1.601  -0.119  0.00  0.00     0.087 H 
ENDROOT
BRANCH   1   4
ATOM      4  C3  <0> d           2.159   0.614  -0.700  0.00  0.00     0.082 A 
ATOM      5  N1  <0> d           1.426  -0.493  -0.987  0.00  0.00    -0.227 NA
ATOM      6  C2  <0> d           0.241  -0.117  -1.370  0.00  0.00     0.141 A 
ATOM      7  O1  <0> d           0.174   1.221  -1.343  0.00  0.00    -0.306 OA
ATOM      8  C4  <0> d           1.364   1.691  -0.926  0.00  0.00     0.048 A 
ATOM      9  H4  <0> d           1.636   2.729  -0.797  0.00  0.00     0.127 H 
BRANCH   6  10
ATOM     10  C1  <0> d          -0.878  -1.039  -1.780  0.00  0.00    -0.015 C 
ATOM     11  H1  <0> d          -0.539  -2.083  -1.705  0.00  0.00     0.038 H 
ATOM     12  H2  <0> d          -1.171  -0.822  -2.818  0.00  0.00     0.038 H 
ATOM     13  H3  <0> d          -1.742  -0.886  -1.116  0.00  0.00     0.038 H 
ENDBRANCH   6  10
ENDBRANCH   1   4
BRANCH   2  14
ATOM     14  C7  <0> d           3.422  -1.794   0.059  0.00  0.00    -0.052 C 
ATOM     15  H6  <0> d           4.103  -2.617   0.320  0.00  0.00     0.033 H 
ATOM     16  H7  <0> d           2.999  -1.970  -0.941  0.00  0.00     0.033 H 
ATOM     17  H8  <0> d           2.609  -1.742   0.798  0.00  0.00     0.033 H 
ENDBRANCH   2  14
BRANCH   2  18
ATOM     18  C8  <0> d           5.655  -0.481   0.387  0.00  0.00     0.037 C 
ATOM     19  H9  <0> d           5.807  -0.879   1.401  0.00  0.00     0.081 H 
ATOM     20  H10 <0> d           6.197  -1.107  -0.337  0.00  0.00     0.081 H 
BRANCH  18  21
ATOM     21  O2  <0> d           6.146   0.859   0.322  0.00  0.00    -0.397 OA
ATOM     22  H11 <0> d           7.206   1.067   0.532  0.00  0.00     0.209 HD
ENDBRANCH  18  21
ENDBRANCH   2  18
TORSDOF 5
