REMARK  4 active torsions:
REMARK  status: ('A' for Active; 'I' for Inactive)
REMARK    1  A    between atoms: C1_1  and  C2_2 
REMARK    2  A    between atoms: C2_2  and  C3_3 
REMARK    3  A    between atoms: C3_3  and  C4_5 
REMARK    4  A    between atoms: C3_3  and  O1_12 
ROOT
ATOM      1  C4  <0> d          -0.074   0.981   2.485  0.00  0.00    -0.029 A 
ATOM      2  C5  <0> d           1.041   1.584   3.036  0.00  0.00    -0.071 A 
ATOM      3  C6  <0> d           1.639   1.039   4.157  0.00  0.00    -0.045 A 
ATOM      4  C7  <0> d           1.129  -0.119   4.720  0.00  0.00     0.116 A 
ATOM      5  C8  <0> d           0.015  -0.725   4.163  0.00  0.00    -0.045 A 
ATOM      6  C9  <0> d          -0.585  -0.175   3.046  0.00  0.00    -0.071 A 
ATOM      7  F1  <0> d           1.716  -0.656   5.811  0.00  0.00    -0.206 F 
ATOM      8  H7  <0> d           1.442   2.484   2.594  0.00  0.00     0.084 H 
ATOM      9  H8  <0> d           2.507   1.513   4.590  0.00  0.00     0.088 H 
ATOM     10  H9  <0> d          -0.384  -1.628   4.601  0.00  0.00     0.088 H 
ATOM     11  H10 <0> d          -1.453  -0.648   2.612  0.00  0.00     0.084 H 
ENDROOT
BRANCH   1  12
ATOM     12  C3  <0> d          -0.729   1.579   1.267  0.00  0.00     0.060 C 
ATOM     13  H1  <0> d          -1.776   1.277   1.232  0.00  0.00     0.090 H 
BRANCH  12  14
ATOM     14  C2  <0> d          -0.013   1.086   0.008  0.00  0.00    -0.041 C 
ATOM     15  H5  <0> d           0.002  -0.004   0.002  0.00  0.00     0.036 H 
ATOM     16  H6  <0> d           1.010   1.463   0.000  0.00  0.00     0.036 H 
BRANCH  14  17
ATOM     17  C1  <0> d          -0.753   1.593  -1.232  0.00  0.00    -0.074 C 
ATOM     18  H2  <0> d          -0.242   1.241  -2.128  0.00  0.00     0.027 H 
ATOM     19  H3  <0> d          -1.775   1.215  -1.224  0.00  0.00     0.027 H 
ATOM     20  H4  <0> d          -0.767   2.683  -1.226  0.00  0.00     0.027 H 
ENDBRANCH  14  17
ENDBRANCH  12  14
BRANCH  12  21
ATOM     21  O1  <0> d          -0.647   3.004   1.334  0.00  0.00    -0.391 OA
ATOM     22  H11 <0> d           0.258   3.345   1.368  0.00  0.00     0.210 HD
ENDBRANCH  12  21
ENDBRANCH   1  12
TORSDOF 4
