REMARK  0 active torsions:
REMARK  status: ('A' for Active; 'I' for Inactive)
ROOT
ATOM      1  C1  <0> d           1.434  -0.401   0.421  0.00  0.00    -0.042 C 
ATOM      2  C2  <0> d           2.243   0.845  -0.008  0.00  0.00    -0.005 C 
ATOM      3  C3  <0> d           1.228   1.966   0.001  0.00  0.00     0.148 A 
ATOM      4  N1  <0> d           1.114   3.273   0.004  0.00  0.00    -0.114 NA
ATOM      5  N2  <0> d          -0.142   3.561   0.018  0.00  0.00    -0.023 NA
ATOM      6  N3  <0> d          -0.830   2.473   0.019  0.00  0.00    -0.044 NA
ATOM      7  N4  <0> d          -0.018   1.466   0.010  0.00  0.00    -0.234 N 
ATOM      8  C4  <0> d           0.002  -0.004   0.002  0.00  0.00     0.021 C 
ATOM      9  H1  <0> d           1.497  -0.555   1.498  0.00  0.00     0.036 H 
ATOM     10  H2  <0> d           1.768  -1.287  -0.119  0.00  0.00     0.036 H 
ATOM     11  H3  <0> d           3.041   1.047   0.707  0.00  0.00     0.044 H 
ATOM     12  H4  <0> d           2.654   0.708  -1.008  0.00  0.00     0.044 H 
ATOM     13  H5  <0> d          -0.722  -0.395   0.717  0.00  0.00     0.067 H 
ATOM     14  H6  <0> d          -0.215  -0.379  -0.998  0.00  0.00     0.067 H 
ENDROOT
TORSDOF 0
