REMARK  0 active torsions:
REMARK  status: ('A' for Active; 'I' for Inactive)
ROOT
ATOM      1  C1  <0> d          -0.017   1.363   0.009  0.00  0.00    -0.082 A 
ATOM      2  C2  <0> d           1.165   2.092   0.002  0.00  0.00    -0.082 A 
ATOM      3  C3  <0> d           2.386   1.454  -0.013  0.00  0.00    -0.067 A 
ATOM      4  C4  <0> d           2.429   0.060  -0.021  0.00  0.00     0.045 A 
ATOM      5  C5  <0> d           1.224  -0.679  -0.013  0.00  0.00    -0.001 A 
ATOM      6  C6  <0> d           0.002  -0.004   0.002  0.00  0.00    -0.071 A 
ATOM      7  C7  <0> d           1.300  -2.140  -0.022  0.00  0.00     0.033 A 
ATOM      8  N1  <0> d           2.458  -2.731  -0.037  0.00  0.00    -0.183 NA
ATOM      9  N2  <0> d           3.663  -2.028  -0.045  0.00  0.00    -0.243 N 
ATOM     10  C8  <0> d           3.698  -0.679  -0.038  0.00  0.00     0.272 A 
ATOM     11  O1  <0> d           4.762  -0.086  -0.046  0.00  0.00    -0.266 OA
ATOM     12  H1  <0> d          -0.963   1.882   0.026  0.00  0.00     0.083 H 
ATOM     13  H2  <0> d           1.127   3.172   0.008  0.00  0.00     0.083 H 
ATOM     14  H3  <0> d           3.301   2.028  -0.020  0.00  0.00     0.085 H 
ATOM     15  H4  <0> d          -0.924  -0.559   0.007  0.00  0.00     0.084 H 
ATOM     16  H5  <0> d           0.394  -2.727  -0.017  0.00  0.00     0.118 H 
ATOM     17  H6  <0> d           4.497  -2.522  -0.056  0.00  0.00     0.192 HD
ENDROOT
TORSDOF 0
