REMARK  0 active torsions:
REMARK  status: ('A' for Active; 'I' for Inactive)
ROOT
ATOM      1  C1  <0> d           0.023  -2.788  -0.021  0.00  0.00    -0.082 A 
ATOM      2  C2  <0> d          -1.080  -2.096   0.455  0.00  0.00    -0.080 A 
ATOM      3  C3  <0> d          -1.095  -0.716   0.468  0.00  0.00    -0.050 A 
ATOM      4  C4  <0> d           0.002  -0.004   0.002  0.00  0.00     0.082 A 
ATOM      5  C5  <0> d           1.121  -0.706  -0.475  0.00  0.00     0.043 A 
ATOM      6  C6  <0> d           1.123  -2.102  -0.486  0.00  0.00    -0.067 A 
ATOM      7  C7  <0> d           2.289   0.053  -0.956  0.00  0.00     0.164 C 
ATOM      8  O1  <0> d           3.354  -0.485  -1.175  0.00  0.00    -0.292 OA
ATOM      9  C8  <0> d           2.090   1.545  -1.162  0.00  0.00     0.015 C 
ATOM     10  C9  <0> d           1.226   2.052   0.001  0.00  0.00     0.033 C 
ATOM     11  O2  <0> d          -0.016   1.349   0.009  0.00  0.00    -0.350 OA
ATOM     12  H1  <0> d           0.019  -3.868  -0.027  0.00  0.00     0.083 H 
ATOM     13  H2  <0> d          -1.938  -2.643   0.820  0.00  0.00     0.083 H 
ATOM     14  H3  <0> d          -1.961  -0.189   0.841  0.00  0.00     0.087 H 
ATOM     15  H4  <0> d           1.983  -2.640  -0.858  0.00  0.00     0.085 H 
ATOM     16  H5  <0> d           3.068   2.048  -1.166  0.00  0.00     0.048 H 
ATOM     17  H6  <0> d           1.585   1.717  -2.124  0.00  0.00     0.048 H 
ATOM     18  H7  <0> d           1.752   1.880   0.952  0.00  0.00     0.075 H 
ATOM     19  H8  <0> d           1.038   3.129  -0.124  0.00  0.00     0.075 H 
ENDROOT
TORSDOF 0
