REMARK  1 active torsions:
REMARK  status: ('A' for Active; 'I' for Inactive)
REMARK    1  A    between atoms: C7_9  and  O1_11 
ROOT
ATOM      1  C1  <0> d           1.471   1.966  -0.001  0.00  0.00    -0.061 C 
ATOM      2  C2  <0> d          -0.019   1.555   0.011  0.00  0.00    -0.059 C 
ATOM      3  C3  <0> d           0.002  -0.004   0.002  0.00  0.00    -0.029 C 
ATOM      4  H1  <0> d          -0.909  -0.495   0.343  0.00  0.00     0.043 H 
ATOM      5  C4  <0> d           1.296  -0.281   0.846  0.00  0.00    -0.056 C 
ATOM      6  C5  <0> d           2.252   0.617  -0.048  0.00  0.00    -0.051 C 
ATOM      7  H2  <0> d           3.298   0.654   0.255  0.00  0.00     0.040 H 
ATOM      8  C6  <0> d           1.973   0.031  -1.466  0.00  0.00    -0.037 C 
ATOM      9  C7  <0> d           0.483  -0.380  -1.433  0.00  0.00     0.039 C 
ATOM     10  H3  <0> d           0.379  -1.452  -1.600  0.00  0.00     0.083 H 
ATOM     11  H4  <0> d           1.698   2.546  -0.896  0.00  0.00     0.033 H 
ATOM     12  H5  <0> d           1.715   2.537   0.895  0.00  0.00     0.033 H 
ATOM     13  H6  <0> d          -0.525   1.933  -0.878  0.00  0.00     0.033 H 
ATOM     14  H7  <0> d          -0.508   1.923   0.913  0.00  0.00     0.033 H 
ATOM     15  H8  <0> d           1.203   0.085   1.868  0.00  0.00     0.034 H 
ATOM     16  H9  <0> d           1.586  -1.332   0.817  0.00  0.00     0.034 H 
ATOM     17  H10 <0> d           2.603  -0.839  -1.648  0.00  0.00     0.037 H 
ATOM     18  H11 <0> d           2.141   0.788  -2.232  0.00  0.00     0.037 H 
ENDROOT
BRANCH   9  19
ATOM     19  O1  <0> d          -0.257   0.350  -2.413  0.00  0.00    -0.395 OA
ATOM     20  H12 <0> d          -0.000   0.155  -3.325  0.00  0.00     0.210 HD
ENDBRANCH   9  19
TORSDOF 1
