REMARK  3 active torsions:
REMARK  status: ('A' for Active; 'I' for Inactive)
REMARK    1  A    between atoms: C1_1  and  C2_2 
REMARK    2  A    between atoms: C6_6  and  C8_8 
REMARK    3  A    between atoms: C8_8  and  C9_10 
ROOT
ATOM      1  C9  <0> d           1.225   6.088   0.021  0.00  0.00     0.074 C 
ATOM      2  C10 <0> d           0.936   7.532   0.031  0.00  0.00     0.067 C 
ATOM      3  N1  <0> d           0.713   8.646   0.039  0.00  0.00    -0.197 NA
ATOM      4  H8  <0> d           1.760   5.850   0.832  0.00  0.00     0.067 H 
ATOM      5  H9  <0> d           1.791   5.837  -0.875  0.00  0.00     0.067 H 
ENDROOT
BRANCH   1   6
ATOM      6  C8  <0> d          -0.070   5.317   0.029  0.00  0.00     0.172 C 
ATOM      7  O1  <0> d          -1.128   5.909   0.042  0.00  0.00    -0.291 OA
BRANCH   6   8
ATOM      8  C6  <0> d          -0.050   3.846   0.022  0.00  0.00     0.011 A 
ATOM      9  C5  <0> d           1.168   3.159   0.007  0.00  0.00    -0.069 A 
ATOM     10  C4  <0> d           1.179   1.780   0.000  0.00  0.00    -0.082 A 
ATOM     11  H6  <0> d           2.098   3.708   0.000  0.00  0.00     0.085 H 
ATOM     12  C3  <0> d          -0.013   1.076   0.008  0.00  0.00    -0.077 A 
ATOM     13  H5  <0> d           2.119   1.249  -0.011  0.00  0.00     0.083 H 
ATOM     14  C2  <0> d          -1.223   1.748   0.017  0.00  0.00    -0.061 A 
ATOM     15  H4  <0> d           0.002  -0.004   0.002  0.00  0.00     0.084 H 
ATOM     16  C7  <0> d          -1.250   3.126   0.030  0.00  0.00    -0.064 A 
ATOM     17  H7  <0> d          -2.195   3.649   0.042  0.00  0.00     0.085 H 
BRANCH  14  18
ATOM     18  C1  <0> d          -2.514   0.971   0.019  0.00  0.00    -0.051 C 
ATOM     19  H1  <0> d          -2.820   0.778   1.047  0.00  0.00     0.033 H 
ATOM     20  H2  <0> d          -3.287   1.549  -0.488  0.00  0.00     0.033 H 
ATOM     21  H3  <0> d          -2.369   0.024  -0.500  0.00  0.00     0.033 H 
ENDBRANCH  14  18
ENDBRANCH   6   8
ENDBRANCH   1   6
TORSDOF 3
