REMARK  2 active torsions:
REMARK  status: ('A' for Active; 'I' for Inactive)
REMARK    1  A    between atoms: C1_1  and  C2_2 
REMARK    2  A    between atoms: N2_6  and  C5_7 
ROOT
ATOM      1  C2  <0> d          -0.018   1.503   0.010  0.00  0.00     0.101 A 
ATOM      2  N1  <0> d          -1.089   2.249   0.019  0.00  0.00    -0.246 NA
ATOM      3  C3  <0> d          -0.728   3.541   0.027  0.00  0.00     0.019 A 
ATOM      4  C4  <0> d           0.618   3.597   0.015  0.00  0.00    -0.003 A 
ATOM      5  N2  <0> d           1.068   2.305   0.004  0.00  0.00    -0.348 N 
ATOM      6  H4  <0> d          -1.399   4.387   0.036  0.00  0.00     0.117 H 
ATOM      7  H5  <0> d           1.224   4.491   0.013  0.00  0.00     0.113 H 
ENDROOT
BRANCH   1   8
ATOM      8  C1  <0> d           0.002  -0.004   0.002  0.00  0.00    -0.021 C 
ATOM      9  H1  <0> d           0.017  -0.373   1.028  0.00  0.00     0.037 H 
ATOM     10  H2  <0> d          -0.888  -0.377  -0.505  0.00  0.00     0.037 H 
ATOM     11  H3  <0> d           0.892  -0.352  -0.522  0.00  0.00     0.037 H 
ENDBRANCH   1   8
BRANCH   5  12
ATOM     12  C5  <0> d           2.468   1.872  -0.010  0.00  0.00    -0.013 C 
ATOM     13  H6  <0> d           2.806   1.770  -1.042  0.00  0.00     0.057 H 
ATOM     14  H7  <0> d           3.082   2.613   0.501  0.00  0.00     0.057 H 
ATOM     15  H8  <0> d           2.557   0.912   0.498  0.00  0.00     0.057 H 
ENDBRANCH   5  12
TORSDOF 2
