REMARK  3 active torsions:
REMARK  status: ('A' for Active; 'I' for Inactive)
REMARK    1  A    between atoms: C1_1  and  C2_2 
REMARK    2  A    between atoms: C6_7  and  C7_8 
REMARK    3  A    between atoms: C6_7  and  C8_9 
ROOT
ATOM      1  C2  <0> d           0.002  -0.004   0.002  0.00  0.00     0.024 C 
ATOM      2  C3  <0> d          -1.390  -0.703   0.064  0.00  0.00    -0.051 C 
ATOM      3  C4  <0> d          -1.085  -2.137   0.556  0.00  0.00    -0.059 C 
ATOM      4  C5  <0> d           0.465  -2.165   0.735  0.00  0.00    -0.040 C 
ATOM      5  H1  <0> d           0.859  -2.958   1.370  0.00  0.00     0.041 H 
ATOM      6  C6  <0> d           0.727  -0.692   1.212  0.00  0.00    -0.029 C 
ATOM      7  C9  <0> d           1.022  -2.111  -0.721  0.00  0.00    -0.005 C 
ATOM      8  C10 <0> d           0.731  -0.657  -1.181  0.00  0.00     0.136 C 
ATOM      9  O1  <0> d           0.996  -0.153  -2.246  0.00  0.00    -0.297 OA
ATOM     10  H5  <0> d          -2.043  -0.190   0.770  0.00  0.00     0.034 H 
ATOM     11  H6  <0> d          -1.846  -0.730  -0.926  0.00  0.00     0.034 H 
ATOM     12  H7  <0> d          -1.581  -2.326   1.507  0.00  0.00     0.033 H 
ATOM     13  H8  <0> d          -1.395  -2.869  -0.190  0.00  0.00     0.033 H 
ATOM     14  H15 <0> d           2.097  -2.290  -0.722  0.00  0.00     0.044 H 
ATOM     15  H16 <0> d           0.514  -2.844  -1.349  0.00  0.00     0.044 H 
ENDROOT
BRANCH   6  16
ATOM     16  C7  <0> d           2.220  -0.359   1.253  0.00  0.00    -0.068 C 
ATOM     17  H9  <0> d           2.349   0.719   1.349  0.00  0.00     0.028 H 
ATOM     18  H10 <0> d           2.680  -0.857   2.106  0.00  0.00     0.028 H 
ATOM     19  H11 <0> d           2.694  -0.701   0.333  0.00  0.00     0.028 H 
ENDBRANCH   6  16
BRANCH   6  20
ATOM     20  C8  <0> d           0.040  -0.388   2.544  0.00  0.00    -0.068 C 
ATOM     21  H12 <0> d          -0.988  -0.750   2.514  0.00  0.00     0.028 H 
ATOM     22  H13 <0> d           0.577  -0.885   3.352  0.00  0.00     0.028 H 
ATOM     23  H14 <0> d           0.041   0.689   2.715  0.00  0.00     0.028 H 
ENDBRANCH   6  20
BRANCH   1  24
ATOM     24  C1  <0> d          -0.019   1.526   0.010  0.00  0.00    -0.062 C 
ATOM     25  H2  <0> d           1.004   1.903   0.003  0.00  0.00     0.029 H 
ATOM     26  H3  <0> d          -0.546   1.887  -0.873  0.00  0.00     0.029 H 
ATOM     27  H4  <0> d          -0.529   1.877   0.907  0.00  0.00     0.029 H 
ENDBRANCH   1  24
TORSDOF 3
