REMARK  2 active torsions:
REMARK  status: ('A' for Active; 'I' for Inactive)
REMARK    1  A    between atoms: C1_1  and  O1_2 
REMARK    2  A    between atoms: O1_2  and  C2_3 
ROOT
ATOM      1  C2  <0> d          -1.295  -0.603   0.011  0.00  0.00     0.151 C 
ATOM      2  H1  <0> d          -1.901  -0.176   0.811  0.00  0.00     0.136 H 
ATOM      3  C3  <0> d          -1.178  -2.100   0.188  0.00  0.00    -0.050 C 
ATOM      4  C4  <0> d          -2.001  -2.683  -0.655  0.00  0.00    -0.043 C 
ATOM      5  C5  <0> d          -2.709  -1.608  -1.439  0.00  0.00     0.186 C 
ATOM      6  O2  <0> d          -1.943  -0.406  -1.262  0.00  0.00    -0.318 OA
ATOM      7  C6  <0> d          -4.137  -1.406  -0.901  0.00  0.00    -0.007 C 
ATOM      8  C7  <0> d          -4.940  -1.134  -2.204  0.00  0.00    -0.040 C 
ATOM      9  C8  <0> d          -4.180  -2.034  -3.212  0.00  0.00     0.024 C 
ATOM     10  O3  <0> d          -2.799  -1.954  -2.820  0.00  0.00    -0.351 OA
ATOM     11  H5  <0> d          -0.528  -2.605   0.887  0.00  0.00     0.084 H 
ATOM     12  H6  <0> d          -2.145  -3.747  -0.767  0.00  0.00     0.085 H 
ATOM     13  H7  <0> d          -4.496  -2.307  -0.404  0.00  0.00     0.041 H 
ATOM     14  H8  <0> d          -4.182  -0.548  -0.231  0.00  0.00     0.041 H 
ATOM     15  H9  <0> d          -5.977  -1.452  -2.099  0.00  0.00     0.036 H 
ATOM     16  H10 <0> d          -4.879  -0.085  -2.491  0.00  0.00     0.036 H 
ATOM     17  H11 <0> d          -4.534  -3.062  -3.143  0.00  0.00     0.074 H 
ATOM     18  H12 <0> d          -4.307  -1.656  -4.227  0.00  0.00     0.074 H 
ENDROOT
BRANCH   1  19
ATOM     19  O1  <0> d           0.002  -0.004   0.002  0.00  0.00    -0.363 OA
BRANCH  19  20
ATOM     20  C1  <0> d          -0.017   1.425   0.010  0.00  0.00     0.007 C 
ATOM     21  H2  <0> d           1.005   1.802   0.002  0.00  0.00     0.066 H 
ATOM     22  H3  <0> d          -0.544   1.786  -0.873  0.00  0.00     0.066 H 
ATOM     23  H4  <0> d          -0.527   1.776   0.907  0.00  0.00     0.066 H 
ENDBRANCH  19  20
ENDBRANCH   1  19
TORSDOF 2
