REMARK  3 active torsions:
REMARK  status: ('A' for Active; 'I' for Inactive)
REMARK    1  A    between atoms: C1_1  and  C2_2 
REMARK    2  A    between atoms: C2_2  and  C3_4 
REMARK    3  A    between atoms: C2_2  and  N2_7 
ROOT
ATOM      1  C3  <0> d          -2.938   1.100   1.458  0.00  0.00     0.035 C 
ATOM      2  C4  <0> d          -4.367   0.746   1.475  0.00  0.00     0.061 C 
ATOM      3  N1  <0> d          -5.470   0.472   1.488  0.00  0.00    -0.197 NA
ATOM      4  H5  <0> d          -2.354   0.270   1.856  0.00  0.00     0.058 H 
ATOM      5  H6  <0> d          -2.776   1.986   2.072  0.00  0.00     0.058 H 
ENDROOT
BRANCH   1   6
ATOM      6  C2  <0> d          -2.502   1.389   0.021  0.00  0.00     0.042 C 
ATOM      7  H1  <0> d          -3.145   2.158  -0.407  0.00  0.00     0.076 H 
BRANCH   6   8
ATOM      8  C1  <0> d          -2.611   0.110  -0.813  0.00  0.00    -0.054 C 
ATOM      9  H2  <0> d          -2.300   0.316  -1.837  0.00  0.00     0.030 H 
ATOM     10  H3  <0> d          -1.968  -0.658  -0.385  0.00  0.00     0.030 H 
ATOM     11  H4  <0> d          -3.644  -0.237  -0.810  0.00  0.00     0.030 H 
ENDBRANCH   6   8
BRANCH   6  12
ATOM     12  N2  <0> d          -1.113   1.857   0.017  0.00  0.00    -0.276 N 
ATOM     13  N3  <0> d          -0.694   3.193   0.025  0.00  0.00    -0.185 NA
ATOM     14  C7  <0> d           0.614   3.211   0.013  0.00  0.00     0.023 A 
ATOM     15  C6  <0> d           1.069   1.888   0.002  0.00  0.00    -0.048 A 
ATOM     16  H9  <0> d           1.236   4.094   0.012  0.00  0.00     0.117 H 
ATOM     17  C5  <0> d          -0.013   1.076   0.008  0.00  0.00     0.000 A 
ATOM     18  H8  <0> d           2.102   1.572  -0.009  0.00  0.00     0.087 H 
ATOM     19  H7  <0> d           0.002  -0.004   0.002  0.00  0.00     0.114 H 
ENDBRANCH   6  12
ENDBRANCH   1   6
TORSDOF 3
