REMARK  2 active torsions:
REMARK  status: ('A' for Active; 'I' for Inactive)
REMARK    1  A    between atoms: C6_9  and  N4_12 
REMARK    2  A    between atoms: C7_10  and  N3_11 
ROOT
ATOM      1  C1  <0> d           1.192   2.115   0.002  0.00  0.00    -0.042 A 
ATOM      2  C2  <0> d          -0.017   1.403   0.010  0.00  0.00     0.013 A 
ATOM      3  C3  <0> d          -1.377   1.796   0.030  0.00  0.00     0.034 A 
ATOM      4  N1  <0> d          -2.120   0.727   0.027  0.00  0.00    -0.186 NA
ATOM      5  N2  <0> d          -1.309  -0.414   0.013  0.00  0.00    -0.278 N 
ATOM      6  H1  <0> d          -1.628  -1.361   0.011  0.00  0.00     0.189 HD
ATOM      7  C4  <0> d           0.002  -0.004   0.002  0.00  0.00     0.064 A 
ATOM      8  C5  <0> d           1.219  -0.681  -0.014  0.00  0.00    -0.028 A 
ATOM      9  C6  <0> d           2.402   0.030  -0.021  0.00  0.00     0.054 A 
ATOM     10  C7  <0> d           2.387   1.432  -0.014  0.00  0.00     0.053 A 
ATOM     11  H2  <0> d           1.185   3.195   0.007  0.00  0.00     0.088 H 
ATOM     12  H3  <0> d          -1.738   2.813   0.042  0.00  0.00     0.118 H 
ATOM     13  H4  <0> d           1.237  -1.761  -0.020  0.00  0.00     0.090 H 
ENDROOT
BRANCH   9  14
ATOM     14  N4  <0> d           3.623  -0.652  -0.037  0.00  0.00    -0.397 N 
ATOM     15  H7  <0> d           3.637  -1.622  -0.043  0.00  0.00     0.156 HD
ATOM     16  H8  <0> d           4.456  -0.155  -0.043  0.00  0.00     0.156 HD
ENDBRANCH   9  14
BRANCH  10  17
ATOM     17  N3  <0> d           3.596   2.142  -0.023  0.00  0.00    -0.397 N 
ATOM     18  H5  <0> d           4.439   1.663  -0.034  0.00  0.00     0.156 HD
ATOM     19  H6  <0> d           3.588   3.112  -0.018  0.00  0.00     0.156 HD
ENDBRANCH  10  17
TORSDOF 2
