REMARK  3 active torsions:
REMARK  status: ('A' for Active; 'I' for Inactive)
REMARK    1  A    between atoms: C1_1  and  C2_2 
REMARK    2  A    between atoms: N1_5  and  C6_10 
REMARK    3  A    between atoms: N2_8  and  C5_9 
ROOT
ATOM      1  C2  <0> d           0.727   3.380   0.013  0.00  0.00     0.028 A 
ATOM      2  H1  <0> d           1.094   3.878  -0.884  0.00  0.00     0.074 H 
ATOM      3  C3  <0> d          -0.814   3.359   0.028  0.00  0.00     0.017 A 
ATOM      4  N1  <0> d          -1.147   1.927   0.018  0.00  0.00    -0.337 N 
ATOM      5  C4  <0> d          -0.014   1.212   0.009  0.00  0.00     0.320 A 
ATOM      6  O1  <0> d           0.002  -0.004   0.002  0.00  0.00    -0.247 OA
ATOM      7  N2  <0> d           1.098   1.957   0.002  0.00  0.00    -0.333 N 
ATOM      8  H5  <0> d          -1.195   3.837   0.930  0.00  0.00     0.067 H 
ATOM      9  H6  <0> d          -1.212   3.849  -0.861  0.00  0.00     0.067 H 
ENDROOT
BRANCH   1  10
ATOM     10  C1  <0> d           1.266   4.066   1.270  0.00  0.00    -0.056 C 
ATOM     11  H2  <0> d           2.355   4.007   1.277  0.00  0.00     0.030 H 
ATOM     12  H3  <0> d           0.959   5.112   1.273  0.00  0.00     0.030 H 
ATOM     13  H4  <0> d           0.870   3.568   2.155  0.00  0.00     0.030 H 
ENDBRANCH   1  10
BRANCH   7  14
ATOM     14  C5  <0> d           2.468   1.438  -0.014  0.00  0.00    -0.014 C 
ATOM     15  H7  <0> d           2.443   0.348  -0.020  0.00  0.00     0.056 H 
ATOM     16  H8  <0> d           2.982   1.794  -0.907  0.00  0.00     0.056 H 
ATOM     17  H9  <0> d           2.998   1.784   0.873  0.00  0.00     0.056 H 
ENDBRANCH   7  14
BRANCH   4  18
ATOM     18  C6  <0> d          -2.502   1.370   0.021  0.00  0.00    -0.014 C 
ATOM     19  H10 <0> d          -2.448   0.281   0.015  0.00  0.00     0.056 H 
ATOM     20  H11 <0> d          -3.030   1.703   0.914  0.00  0.00     0.056 H 
ATOM     21  H12 <0> d          -3.037   1.712  -0.865  0.00  0.00     0.056 H 
ENDBRANCH   4  18
TORSDOF 3
