REMARK  1 active torsions:
REMARK  status: ('A' for Active; 'I' for Inactive)
REMARK    1  A    between atoms: C5_5  and  C6_6 
ROOT
ATOM      1  C1  <0> d           0.125  -2.396  -1.752  0.00  0.00    -0.065 C 
ATOM      2  C2  <0> d           1.264  -1.387  -1.909  0.00  0.00    -0.062 C 
ATOM      3  C3  <0> d           1.421  -0.591  -0.610  0.00  0.00    -0.044 C 
ATOM      4  C4  <0> d           0.085   0.027  -0.260  0.00  0.00    -0.073 C 
ATOM      5  C5  <0> d          -0.016   1.327   0.009  0.00  0.00    -0.007 C 
ATOM      6  C7  <0> d          -1.131  -0.871  -0.219  0.00  0.00    -0.044 C 
ATOM      7  C8  <0> d          -1.197  -1.656  -1.538  0.00  0.00    -0.062 C 
ATOM      8  H1  <0> d           0.056  -3.007  -2.652  0.00  0.00     0.033 H 
ATOM      9  H2  <0> d           0.324  -3.037  -0.893  0.00  0.00     0.033 H 
ATOM     10  H3  <0> d           1.036  -0.706  -2.728  0.00  0.00     0.033 H 
ATOM     11  H4  <0> d           2.192  -1.917  -2.125  0.00  0.00     0.033 H 
ATOM     12  H5  <0> d           2.163   0.196  -0.750  0.00  0.00     0.039 H 
ATOM     13  H6  <0> d           1.739  -1.254   0.194  0.00  0.00     0.039 H 
ATOM     14  H7  <0> d           0.783   1.999  -0.267  0.00  0.00     0.094 H 
ATOM     15  H8  <0> d          -1.047  -1.563   0.619  0.00  0.00     0.039 H 
ATOM     16  H9  <0> d          -2.030  -0.264  -0.107  0.00  0.00     0.039 H 
ATOM     17  H10 <0> d          -1.367  -0.968  -2.366  0.00  0.00     0.033 H 
ATOM     18  H11 <0> d          -2.013  -2.377  -1.490  0.00  0.00     0.033 H 
ENDROOT
BRANCH   5  19
ATOM     19  C6  <0> d          -1.217   1.847   0.677  0.00  0.00     0.198 C 
ATOM     20  O1  <0> d          -2.066   1.079   1.087  0.00  0.00    -0.644 OA
ATOM     21  O2  <0> d          -1.377   3.176   0.836  0.00  0.00    -0.644 OA
ENDBRANCH   5  19
TORSDOF 1
