REMARK  2 active torsions:
REMARK  status: ('A' for Active; 'I' for Inactive)
REMARK    1  A    between atoms: C1_1  and  C2_2 
REMARK    2  A    between atoms: C5_5  and  C8_9 
REMARK       I    between atoms: C8_9  and  N1_11 
ROOT
ATOM      1  C2  <0> d           1.177   1.782   0.000  0.00  0.00    -0.023 A 
ATOM      2  C3  <0> d          -0.013   1.076   0.008  0.00  0.00    -0.073 A 
ATOM      3  C4  <0> d          -1.217   1.747   0.017  0.00  0.00    -0.067 A 
ATOM      4  C5  <0> d          -1.236   3.143   0.030  0.00  0.00     0.034 A 
ATOM      5  C6  <0> d          -0.034   3.852   0.022  0.00  0.00    -0.030 A 
ATOM      6  C7  <0> d           1.167   3.167   0.007  0.00  0.00     0.123 A 
ATOM      7  F1  <0> d           2.332   3.851  -0.001  0.00  0.00    -0.206 F 
ATOM      8  H4  <0> d           0.002  -0.004   0.002  0.00  0.00     0.084 H 
ATOM      9  H5  <0> d          -2.145   1.194   0.019  0.00  0.00     0.085 H 
ATOM     10  H6  <0> d          -0.042   4.931   0.026  0.00  0.00     0.089 H 
ENDROOT
BRANCH   4  11
ATOM     11  C8  <0> d          -2.525   3.868   0.045  0.00  0.00     0.249 C 
ATOM     12  O1  <0> d          -2.538   5.083   0.051  0.00  0.00    -0.268 OA
ATOM     13  N1  <0> d          -3.684   3.181   0.053  0.00  0.00    -0.366 N 
ATOM     14  H7  <0> d          -3.674   2.211   0.049  0.00  0.00     0.159 HD
ATOM     15  H8  <0> d          -4.530   3.657   0.064  0.00  0.00     0.159 HD
ENDBRANCH   4  11
BRANCH   1  16
ATOM     16  C1  <0> d           2.489   1.041  -0.016  0.00  0.00    -0.048 C 
ATOM     17  H1  <0> d           2.796   0.868  -1.047  0.00  0.00     0.033 H 
ATOM     18  H2  <0> d           3.248   1.635   0.494  0.00  0.00     0.033 H 
ATOM     19  H3  <0> d           2.373   0.085   0.494  0.00  0.00     0.033 H 
ENDBRANCH   1  16
TORSDOF 2
