REMARK  4 active torsions:
REMARK  status: ('A' for Active; 'I' for Inactive)
REMARK    1  A    between atoms: C1_1  and  C2_2 
REMARK    2  A    between atoms: C3_3  and  C4_4 
REMARK    3  A    between atoms: C4_4  and  C5_6 
REMARK    4  A    between atoms: C4_4  and  O1_12 
ROOT
ATOM      1  C5  <0> d          -1.404   5.013   0.245  0.00  0.00    -0.026 C 
ATOM      2  C6  <0> d          -2.683   4.390  -0.319  0.00  0.00    -0.059 C 
ATOM      3  C7  <0> d          -3.715   5.490  -0.577  0.00  0.00    -0.065 C 
ATOM      4  C8  <0> d          -3.150   6.494  -1.584  0.00  0.00    -0.065 C 
ATOM      5  C9  <0> d          -1.871   7.117  -1.020  0.00  0.00    -0.065 C 
ATOM      6  C10 <0> d          -0.839   6.017  -0.762  0.00  0.00    -0.059 C 
ATOM      7  H7  <0> d          -1.631   5.525   1.180  0.00  0.00     0.044 H 
ATOM      8  H8  <0> d          -2.456   3.878  -1.254  0.00  0.00     0.033 H 
ATOM      9  H9  <0> d          -3.086   3.675   0.398  0.00  0.00     0.033 H 
ATOM     10  H10 <0> d          -3.942   6.002   0.358  0.00  0.00     0.033 H 
ATOM     11  H11 <0> d          -4.626   5.047  -0.979  0.00  0.00     0.033 H 
ATOM     12  H12 <0> d          -3.885   7.278  -1.768  0.00  0.00     0.033 H 
ATOM     13  H13 <0> d          -2.923   5.982  -2.519  0.00  0.00     0.033 H 
ATOM     14  H14 <0> d          -2.098   7.628  -0.085  0.00  0.00     0.033 H 
ATOM     15  H15 <0> d          -1.468   7.832  -1.737  0.00  0.00     0.033 H 
ATOM     16  H16 <0> d           0.072   6.460  -0.360  0.00  0.00     0.033 H 
ATOM     17  H17 <0> d          -0.612   5.505  -1.697  0.00  0.00     0.033 H 
ENDROOT
BRANCH   1  18
ATOM     18  C4  <0> d          -0.373   3.913   0.503  0.00  0.00     0.055 C 
ATOM     19  H1  <0> d           0.538   4.356   0.904  0.00  0.00     0.089 H 
BRANCH  18  20
ATOM     20  C3  <0> d          -0.930   2.924   1.494  0.00  0.00    -0.080 C 
ATOM     21  C2  <0> d          -0.355   2.773   2.662  0.00  0.00    -0.108 C 
ATOM     22  H5  <0> d          -0.698   2.003   3.337  0.00  0.00     0.075 H 
ATOM     23  H6  <0> d          -1.803   2.340   1.242  0.00  0.00     0.080 H 
BRANCH  21  24
ATOM     24  C1  <0> d           0.784   3.674   3.063  0.00  0.00    -0.060 C 
ATOM     25  H2  <0> d           1.072   3.459   4.092  0.00  0.00     0.032 H 
ATOM     26  H3  <0> d           0.470   4.715   2.983  0.00  0.00     0.032 H 
ATOM     27  H4  <0> d           1.635   3.499   2.404  0.00  0.00     0.032 H 
ENDBRANCH  21  24
ENDBRANCH  18  20
BRANCH  18  28
ATOM     28  O1  <0> d          -0.075   3.242  -0.723  0.00  0.00    -0.391 OA
ATOM     29  H18 <0> d          -0.822   2.753  -1.095  0.00  0.00     0.210 HD
ENDBRANCH  18  28
ENDBRANCH   1  18
TORSDOF 4
