REMARK  2 active torsions:
REMARK  status: ('A' for Active; 'I' for Inactive)
REMARK    1  A    between atoms: C4_6  and  C5_7 
REMARK    2  A    between atoms: C5_7  and  C6_8 
ROOT
ATOM      1  C1  <0> d          -0.013   1.076   0.008  0.00  0.00    -0.042 A 
ATOM      2  C2  <0> d           1.168   1.802   0.001  0.00  0.00     0.005 A 
ATOM      3  N1  <0> d           1.111   3.124   0.008  0.00  0.00    -0.254 NA
ATOM      4  C3  <0> d          -0.049   3.749   0.023  0.00  0.00     0.086 A 
ATOM      5  N2  <0> d          -1.191   3.092   0.030  0.00  0.00    -0.246 NA
ATOM      6  C4  <0> d          -1.212   1.769   0.017  0.00  0.00     0.047 A 
ATOM      7  H1  <0> d           0.002  -0.004   0.002  0.00  0.00     0.088 H 
ATOM      8  H2  <0> d           2.122   1.295  -0.012  0.00  0.00     0.114 H 
ATOM      9  H3  <0> d          -0.064   4.829   0.029  0.00  0.00     0.146 H 
ENDROOT
BRANCH   6  10
ATOM     10  C5  <0> d          -2.524   1.026   0.019  0.00  0.00     0.056 C 
ATOM     11  H4  <0> d          -3.063   1.232  -0.917  0.00  0.00     0.058 H 
ATOM     12  H5  <0> d          -2.333  -0.054   0.103  0.00  0.00     0.058 H 
BRANCH  10  13
ATOM     13  C6  <0> d          -3.357   1.482   1.190  0.00  0.00     0.178 C 
ATOM     14  O1  <0> d          -2.930   2.323   1.944  0.00  0.00    -0.648 OA
ATOM     15  O2  <0> d          -4.574   0.952   1.393  0.00  0.00    -0.648 OA
ENDBRANCH  10  13
ENDBRANCH   6  10
TORSDOF 2
