REMARK  7 active torsions:
REMARK  status: ('A' for Active; 'I' for Inactive)
REMARK    1  A    between atoms: C1_1  and  C2_2 
REMARK    2  A    between atoms: C2_2  and  O1_3 
REMARK    3  A    between atoms: C2_2  and  O3_7 
REMARK    4  A    between atoms: O1_3  and  C3_4 
REMARK    5  A    between atoms: C3_4  and  C4_6 
REMARK    6  A    between atoms: O3_7  and  C5_8 
REMARK    7  A    between atoms: C5_8  and  C6_10 
ROOT
ATOM      1  C2  <0> d           2.410   1.190  -0.090  0.00  0.00     0.145 C 
ATOM      2  H4  <0> d           2.483   0.571  -0.983  0.00  0.00     0.130 H 
ENDROOT
BRANCH   1   3
ATOM      3  C1  <0> d           3.495   2.268  -0.126  0.00  0.00    -0.030 C 
ATOM      4  H1  <0> d           3.421   2.888   0.768  0.00  0.00     0.034 H 
ATOM      5  H2  <0> d           4.476   1.795  -0.159  0.00  0.00     0.034 H 
ATOM      6  H3  <0> d           3.361   2.890  -1.011  0.00  0.00     0.034 H 
ENDBRANCH   1   3
BRANCH   1   7
ATOM      7  O1  <0> d           1.103   1.821  -0.045  0.00  0.00    -0.290 OA
BRANCH   7   8
ATOM      8  C3  <0> d           0.872   2.673   0.966  0.00  0.00     0.257 C 
ATOM      9  O2  <0> d           1.694   2.811   1.841  0.00  0.00    -0.266 OA
BRANCH   8  10
ATOM     10  C4  <0> d          -0.416   3.455   1.014  0.00  0.00     0.004 C 
ATOM     11  H5  <0> d          -0.426   4.085   1.903  0.00  0.00     0.041 H 
ATOM     12  H6  <0> d          -0.495   4.080   0.124  0.00  0.00     0.041 H 
ATOM     13  H7  <0> d          -1.259   2.764   1.049  0.00  0.00     0.041 H 
ENDBRANCH   8  10
ENDBRANCH   7   8
ENDBRANCH   1   7
BRANCH   1  14
ATOM     14  O3  <0> d           2.588   0.362   1.090  0.00  0.00    -0.290 OA
BRANCH  14  15
ATOM     15  C5  <0> d           1.868  -0.768   1.155  0.00  0.00     0.257 C 
ATOM     16  O4  <0> d           1.047  -1.012   0.303  0.00  0.00    -0.266 OA
BRANCH  15  17
ATOM     17  C6  <0> d           2.084  -1.734   2.291  0.00  0.00     0.004 C 
ATOM     18  H8  <0> d           1.420  -1.479   3.117  0.00  0.00     0.041 H 
ATOM     19  H9  <0> d           1.870  -2.748   1.952  0.00  0.00     0.041 H 
ATOM     20  H10 <0> d           3.120  -1.675   2.627  0.00  0.00     0.041 H 
ENDBRANCH  15  17
ENDBRANCH  14  15
ENDBRANCH   1  14
TORSDOF 7
