REMARK  5 active torsions:
REMARK  status: ('A' for Active; 'I' for Inactive)
REMARK    1  A    between atoms: C1_1  and  C2_2 
REMARK    2  A    between atoms: C2_2  and  C3_3 
REMARK    3  A    between atoms: C2_2  and  C4_4 
REMARK    4  A    between atoms: C8_8  and  N1_10 
REMARK    5  A    between atoms: N1_10  and  C10_11 
ROOT
ATOM      1  C4  <0> d          -0.363   1.332   4.866  0.00  0.00    -0.053 A 
ATOM      2  C5  <0> d           0.773   0.550   4.976  0.00  0.00    -0.076 A 
ATOM      3  C6  <0> d           1.421   0.104   3.839  0.00  0.00    -0.080 A 
ATOM      4  C7  <0> d           0.933   0.432   2.590  0.00  0.00    -0.058 A 
ATOM      5  C8  <0> d          -0.205   1.221   2.475  0.00  0.00     0.028 A 
ATOM      6  C9  <0> d          -0.854   1.668   3.620  0.00  0.00    -0.051 A 
ATOM      7  H8  <0> d           1.155   0.289   5.952  0.00  0.00     0.084 H 
ATOM      8  H9  <0> d           2.308  -0.506   3.929  0.00  0.00     0.083 H 
ATOM      9  H10 <0> d           1.438   0.079   1.702  0.00  0.00     0.086 H 
ATOM     10  H11 <0> d          -1.741   2.278   3.534  0.00  0.00     0.087 H 
ENDROOT
BRANCH   1  11
ATOM     11  C2  <0> d          -1.066   1.816   6.107  0.00  0.00    -0.035 C 
ATOM     12  H4  <0> d          -1.938   2.416   5.806  0.00  0.00     0.046 H 
BRANCH  11  13
ATOM     13  C1  <0> d          -1.522   0.615   6.937  0.00  0.00    -0.069 C 
ATOM     14  H1  <0> d          -2.212  -0.002   6.342  0.00  0.00     0.028 H 
ATOM     15  H2  <0> d          -2.036   0.968   7.843  0.00  0.00     0.028 H 
ATOM     16  H3  <0> d          -0.647   0.013   7.223  0.00  0.00     0.028 H 
ENDBRANCH  11  13
BRANCH  11  17
ATOM     17  C3  <0> d          -0.107   2.673   6.935  0.00  0.00    -0.069 C 
ATOM     18  H5  <0> d           0.221   3.537   6.339  0.00  0.00     0.028 H 
ATOM     19  H6  <0> d           0.768   2.072   7.221  0.00  0.00     0.028 H 
ATOM     20  H7  <0> d          -0.621   3.027   7.841  0.00  0.00     0.028 H 
ENDBRANCH  11  17
ENDBRANCH   1  11
BRANCH   5  21
ATOM     21  N1  <0> d          -0.698   1.558   1.213  0.00  0.00    -0.394 N 
ATOM     22  H12 <0> d          -1.602   2.179   1.124  0.00  0.00     0.159 HD
BRANCH  21  23
ATOM     23  C10 <0> d          -0.013   1.086   0.008  0.00  0.00    -0.021 C 
ATOM     24  H13 <0> d          -0.545   1.450  -0.883  0.00  0.00     0.056 H 
ATOM     25  H14 <0> d           0.002  -0.014   0.002  0.00  0.00     0.056 H 
ATOM     26  H15 <0> d           1.019   1.466   0.000  0.00  0.00     0.056 H 
ENDBRANCH  21  23
ENDBRANCH   5  21
TORSDOF 5
