REMARK  2 active torsions:
REMARK  status: ('A' for Active; 'I' for Inactive)
REMARK    1  A    between atoms: C1_1  and  C2_2 
REMARK    2  A    between atoms: C2_2  and  C10_11 
ROOT
ATOM      1  C2  <0> d           1.510   3.553   0.008  0.00  0.00     0.016 A 
ATOM      2  C3  <0> d           3.026   3.550  -0.007  0.00  0.00    -0.005 A 
ATOM      3  N1  <0> d           3.415   2.326  -0.018  0.00  0.00    -0.264 NA
ATOM      4  C4  <0> d           2.393   1.417  -0.013  0.00  0.00     0.063 A 
ATOM      5  C5  <0> d           1.164   2.081   0.002  0.00  0.00    -0.016 A 
ATOM      6  C6  <0> d          -0.017   1.382   0.010  0.00  0.00    -0.073 A 
ATOM      7  C7  <0> d           0.002  -0.004   0.002  0.00  0.00    -0.082 A 
ATOM      8  C8  <0> d           1.210  -0.678  -0.013  0.00  0.00    -0.081 A 
ATOM      9  C9  <0> d           2.400   0.018  -0.021  0.00  0.00    -0.055 A 
ATOM     10  H4  <0> d           3.664   4.421  -0.008  0.00  0.00     0.109 H 
ATOM     11  H5  <0> d          -0.959   1.910   0.017  0.00  0.00     0.084 H 
ATOM     12  H6  <0> d          -0.925  -0.557   0.007  0.00  0.00     0.083 H 
ATOM     13  H7  <0> d           1.221  -1.758  -0.019  0.00  0.00     0.083 H 
ATOM     14  H8  <0> d           3.338  -0.517  -0.033  0.00  0.00     0.087 H 
ENDROOT
BRANCH   1  15
ATOM     15  C1  <0> d           0.983   4.227   1.276  0.00  0.00    -0.061 C 
ATOM     16  H1  <0> d           1.316   5.265   1.300  0.00  0.00     0.029 H 
ATOM     17  H2  <0> d          -0.106   4.195   1.278  0.00  0.00     0.029 H 
ATOM     18  H3  <0> d           1.365   3.703   2.152  0.00  0.00     0.029 H 
ENDBRANCH   1  15
BRANCH   1  19
ATOM     19  C10 <0> d           0.959   4.245  -1.240  0.00  0.00    -0.061 C 
ATOM     20  H9  <0> d           1.323   3.733  -2.131  0.00  0.00     0.029 H 
ATOM     21  H10 <0> d          -0.131   4.213  -1.222  0.00  0.00     0.029 H 
ATOM     22  H11 <0> d           1.291   5.283  -1.256  0.00  0.00     0.029 H 
ENDBRANCH   1  19
TORSDOF 2
