REMARK  5 active torsions:
REMARK  status: ('A' for Active; 'I' for Inactive)
REMARK    1  A    between atoms: C2_2  and  C3_3 
REMARK    2  A    between atoms: C3_3  and  C4_4 
REMARK    3  A    between atoms: C4_4  and  O2_6 
REMARK    4  A    between atoms: O2_6  and  C5_7 
REMARK    5  A    between atoms: C5_7  and  C6_8 
ROOT
ATOM      1  C4  <0> d          -0.014   1.204   0.009  0.00  0.00     0.262 C 
ATOM      2  O1  <0> d           0.002  -0.004   0.002  0.00  0.00    -0.265 OA
ENDROOT
BRANCH   1   3
ATOM      3  C3  <0> d          -1.329   1.940   0.019  0.00  0.00     0.030 C 
ATOM      4  H4  <0> d          -1.391   2.561   0.913  0.00  0.00     0.053 H 
ATOM      5  H5  <0> d          -1.400   2.570  -0.867  0.00  0.00     0.053 H 
BRANCH   3   6
ATOM      6  C2  <0> d          -2.462   0.945   0.019  0.00  0.00    -0.103 C 
ATOM      7  C1  <0> d          -3.379   0.996   0.953  0.00  0.00    -0.124 C 
ATOM      8  H1  <0> d          -3.324   1.752   1.723  0.00  0.00     0.066 H 
ATOM      9  H2  <0> d          -4.190   0.283   0.953  0.00  0.00     0.066 H 
ATOM     10  H3  <0> d          -2.517   0.190  -0.751  0.00  0.00     0.076 H 
ENDBRANCH   3   6
ENDBRANCH   1   3
BRANCH   1  11
ATOM     11  O2  <0> d           1.139   1.891   0.001  0.00  0.00    -0.318 OA
BRANCH  11  12
ATOM     12  C5  <0> d           2.367   1.117  -0.015  0.00  0.00     0.043 C 
ATOM     13  H6  <0> d           2.409   0.484   0.872  0.00  0.00     0.081 H 
ATOM     14  H7  <0> d           2.392   0.493  -0.908  0.00  0.00     0.081 H 
BRANCH  12  15
ATOM     15  C6  <0> d           3.550   2.051  -0.021  0.00  0.00    -0.089 C 
ATOM     16  C7  <0> d           4.569   1.823   0.770  0.00  0.00    -0.123 C 
ATOM     17  H9  <0> d           4.561   0.966   1.427  0.00  0.00     0.066 H 
ATOM     18  H10 <0> d           5.416   2.493   0.766  0.00  0.00     0.066 H 
ATOM     19  H8  <0> d           3.557   2.908  -0.678  0.00  0.00     0.078 H 
ENDBRANCH  12  15
ENDBRANCH  11  12
ENDBRANCH   1  11
TORSDOF 5
