REMARK  0 active torsions:
REMARK  status: ('A' for Active; 'I' for Inactive)
ROOT
ATOM      1  C1  <0> d           0.322   3.331  -1.376  0.00  0.00    -0.047 C 
ATOM      2  C2  <0> d          -0.596   2.084  -1.255  0.00  0.00    -0.034 C 
ATOM      3  C3  <0> d          -0.018   1.441   0.010  0.00  0.00     0.070 C 
ATOM      4  H1  <0> d          -0.513   1.815   0.906  0.00  0.00     0.091 H 
ATOM      5  C4  <0> d           1.452   1.841  -0.002  0.00  0.00    -0.045 C 
ATOM      6  C5  <0> d           1.623   2.902  -0.728  0.00  0.00    -0.098 C 
ATOM      7  C6  <0> d           2.089   0.703   0.771  0.00  0.00     0.038 C 
ATOM      8  C7  <0> d           1.039  -0.393   0.780  0.00  0.00     0.263 C 
ATOM      9  O1  <0> d           1.116  -1.438   1.382  0.00  0.00    -0.265 OA
ATOM     10  O2  <0> d           0.002  -0.004   0.002  0.00  0.00    -0.311 OA
ATOM     11  H2  <0> d          -0.110   4.176  -0.841  0.00  0.00     0.038 H 
ATOM     12  H3  <0> d           0.484   3.587  -2.423  0.00  0.00     0.038 H 
ATOM     13  H4  <0> d          -0.486   1.427  -2.118  0.00  0.00     0.037 H 
ATOM     14  H5  <0> d          -1.637   2.372  -1.111  0.00  0.00     0.037 H 
ATOM     15  H6  <0> d           2.566   3.412  -0.854  0.00  0.00     0.077 H 
ATOM     16  H7  <0> d           2.318   1.017   1.789  0.00  0.00     0.054 H 
ATOM     17  H8  <0> d           2.992   0.359   0.267  0.00  0.00     0.054 H 
ENDROOT
TORSDOF 0
