REMARK  4 active torsions:
REMARK  status: ('A' for Active; 'I' for Inactive)
REMARK    1  A    between atoms: C1_1  and  C2_2 
REMARK    2  A    between atoms: C2_2  and  C3_3 
REMARK    3  A    between atoms: C3_3  and  C4_5 
REMARK    4  A    between atoms: C4_5  and  C5_6 
ROOT
ATOM      1  C5  <0> d          -3.118  -2.260   0.020  0.00  0.00    -0.110 C 
ATOM      2  C6  <0> d          -4.275  -2.458   0.030  0.00  0.00    -0.154 C 
ATOM      3  H8  <0> d          -5.310  -2.635   0.039  0.00  0.00     0.166 H 
ENDROOT
BRANCH   1   4
ATOM      4  C4  <0> d          -1.667  -2.011   0.007  0.00  0.00     0.045 C 
ATOM      5  H6  <0> d          -1.231  -2.451  -0.889  0.00  0.00     0.063 H 
ATOM      6  H7  <0> d          -1.214  -2.461   0.890  0.00  0.00     0.063 H 
BRANCH   4   7
ATOM      7  C3  <0> d          -1.412  -0.526   0.013  0.00  0.00     0.137 C 
ATOM      8  O1  <0> d          -2.340   0.246   0.026  0.00  0.00    -0.297 OA
BRANCH   7   9
ATOM      9  C2  <0> d           0.002  -0.004   0.002  0.00  0.00    -0.012 C 
ATOM     10  H4  <0> d           0.512  -0.356  -0.895  0.00  0.00     0.043 H 
ATOM     11  H5  <0> d           0.529  -0.365   0.885  0.00  0.00     0.043 H 
BRANCH   9  12
ATOM     12  C1  <0> d          -0.019   1.526   0.010  0.00  0.00    -0.070 C 
ATOM     13  H1  <0> d           1.004   1.903   0.003  0.00  0.00     0.028 H 
ATOM     14  H2  <0> d          -0.546   1.887  -0.873  0.00  0.00     0.028 H 
ATOM     15  H3  <0> d          -0.529   1.877   0.907  0.00  0.00     0.028 H 
ENDBRANCH   9  12
ENDBRANCH   7   9
ENDBRANCH   4   7
ENDBRANCH   1   4
TORSDOF 4
