REMARK  4 active torsions:
REMARK  status: ('A' for Active; 'I' for Inactive)
REMARK    1  A    between atoms: C4_4  and  C8_9 
REMARK    2  A    between atoms: C5_5  and  C7_7 
REMARK    3  A    between atoms: C7_7  and  O1_8 
REMARK    4  A    between atoms: C8_9  and  O2_10 
ROOT
ATOM      1  C1  <0> d          -0.237   5.016   0.030  0.00  0.00    -0.082 A 
ATOM      2  C2  <0> d           0.891   5.815   0.024  0.00  0.00    -0.082 A 
ATOM      3  C3  <0> d           2.147   5.238   0.009  0.00  0.00    -0.074 A 
ATOM      4  C4  <0> d           2.275   3.861   0.001  0.00  0.00    -0.026 A 
ATOM      5  C5  <0> d           1.147   3.062   0.008  0.00  0.00    -0.026 A 
ATOM      6  C6  <0> d          -0.109   3.640   0.017  0.00  0.00    -0.074 A 
ATOM      7  H1  <0> d          -1.218   5.467   0.042  0.00  0.00     0.083 H 
ATOM      8  H2  <0> d           0.791   6.890   0.030  0.00  0.00     0.083 H 
ATOM      9  H3  <0> d           3.028   5.862   0.004  0.00  0.00     0.084 H 
ATOM     10  H4  <0> d          -0.991   3.016   0.018  0.00  0.00     0.084 H 
ENDROOT
BRANCH   4  11
ATOM     11  C8  <0> d           3.644   3.232  -0.015  0.00  0.00     0.041 C 
ATOM     12  H8  <0> d           3.768   2.608   0.870  0.00  0.00     0.081 H 
ATOM     13  H9  <0> d           3.751   2.618  -0.910  0.00  0.00     0.081 H 
BRANCH  11  14
ATOM     14  O2  <0> d           4.640   4.257  -0.019  0.00  0.00    -0.396 OA
ATOM     15  H10 <0> d           5.547   3.923  -0.030  0.00  0.00     0.209 HD
ENDBRANCH  11  14
ENDBRANCH   4  11
BRANCH   5  16
ATOM     16  C7  <0> d           1.286   1.562  -0.002  0.00  0.00     0.041 C 
ATOM     17  H5  <0> d           1.840   1.243   0.881  0.00  0.00     0.081 H 
ATOM     18  H6  <0> d           1.823   1.252  -0.899  0.00  0.00     0.081 H 
BRANCH  16  19
ATOM     19  O1  <0> d          -0.011   0.963   0.007  0.00  0.00    -0.396 OA
ATOM     20  H7  <0> d           0.002  -0.004   0.002  0.00  0.00     0.209 HD
ENDBRANCH  16  19
ENDBRANCH   5  16
TORSDOF 4
