REMARK  9 active torsions:
REMARK  status: ('A' for Active; 'I' for Inactive)
REMARK    1  A    between atoms: C1_1  and  C2_2 
REMARK    2  A    between atoms: C2_2  and  C3_3 
REMARK    3  A    between atoms: C4_4  and  C5_5 
REMARK    4  A    between atoms: C5_5  and  O1_6 
REMARK    5  A    between atoms: C5_5  and  O2_9 
REMARK    6  A    between atoms: O1_6  and  C6_7 
REMARK    7  A    between atoms: C6_7  and  C7_8 
REMARK    8  A    between atoms: O2_9  and  C8_10 
REMARK    9  A    between atoms: C8_10  and  C9_11 
ROOT
ATOM      1  C5  <0> d           0.078   1.037  -0.135  0.00  0.00     0.191 C 
ATOM      2  H6  <0> d           0.330   0.004  -0.373  0.00  0.00     0.151 H 
ENDROOT
BRANCH   1   3
ATOM      3  C4  <0> d           1.300   1.768   0.235  0.00  0.00    -0.046 C 
ATOM      4  C3  <0> d           2.276   2.352   0.529  0.00  0.00    -0.102 C 
BRANCH   4   5
ATOM      5  C2  <0> d           3.499   3.083   0.898  0.00  0.00    -0.012 C 
ATOM      6  H4  <0> d           3.246   4.116   1.137  0.00  0.00     0.051 H 
ATOM      7  H5  <0> d           3.956   2.611   1.768  0.00  0.00     0.051 H 
BRANCH   5   8
ATOM      8  C1  <0> d           4.482   3.056  -0.273  0.00  0.00    -0.067 C 
ATOM      9  H1  <0> d           4.735   2.023  -0.512  0.00  0.00     0.028 H 
ATOM     10  H2  <0> d           4.025   3.529  -1.142  0.00  0.00     0.028 H 
ATOM     11  H3  <0> d           5.388   3.598   0.000  0.00  0.00     0.028 H 
ENDBRANCH   5   8
ENDBRANCH   4   5
ENDBRANCH   1   3
BRANCH   1  12
ATOM     12  O1  <0> d          -0.522   1.656  -1.274  0.00  0.00    -0.351 OA
BRANCH  12  13
ATOM     13  C6  <0> d          -1.329   0.775  -2.057  0.00  0.00     0.020 C 
ATOM     14  H7  <0> d          -0.748  -0.106  -2.328  0.00  0.00     0.073 H 
ATOM     15  H8  <0> d          -2.202   0.471  -1.479  0.00  0.00     0.073 H 
BRANCH  13  16
ATOM     16  C7  <0> d          -1.786   1.495  -3.328  0.00  0.00    -0.056 C 
ATOM     17  H9  <0> d          -2.401   0.822  -3.925  0.00  0.00     0.030 H 
ATOM     18  H10 <0> d          -2.367   2.376  -3.057  0.00  0.00     0.030 H 
ATOM     19  H11 <0> d          -0.913   1.799  -3.906  0.00  0.00     0.030 H 
ENDBRANCH  13  16
ENDBRANCH  12  13
ENDBRANCH   1  12
BRANCH   1  20
ATOM     20  O2  <0> d          -0.841   1.062   0.960  0.00  0.00    -0.351 OA
BRANCH  20  21
ATOM     21  C8  <0> d          -1.904   0.113   0.848  0.00  0.00     0.020 C 
ATOM     22  H12 <0> d          -2.546   0.384   0.010  0.00  0.00     0.073 H 
ATOM     23  H13 <0> d          -1.488  -0.880   0.680  0.00  0.00     0.073 H 
BRANCH  21  24
ATOM     24  C9  <0> d          -2.724   0.111   2.140  0.00  0.00    -0.056 C 
ATOM     25  H14 <0> d          -2.081  -0.160   2.978  0.00  0.00     0.030 H 
ATOM     26  H15 <0> d          -3.140   1.105   2.308  0.00  0.00     0.030 H 
ATOM     27  H16 <0> d          -3.534  -0.613   2.055  0.00  0.00     0.030 H 
ENDBRANCH  21  24
ENDBRANCH  20  21
ENDBRANCH   1  20
TORSDOF 9
