REMARK  4 active torsions:
REMARK  status: ('A' for Active; 'I' for Inactive)
REMARK    1  A    between atoms: C1_1  and  C2_2 
REMARK    2  A    between atoms: C2_2  and  C4_4 
REMARK    3  A    between atoms: C4_4  and  C5_6 
REMARK    4  A    between atoms: C4_4  and  O1_12 
ROOT
ATOM      1  C4  <0> d           1.151   3.592   0.010  0.00  0.00     0.081 C 
ATOM      2  H1  <0> d           0.177   3.944  -0.331  0.00  0.00     0.097 H 
ENDROOT
BRANCH   1   3
ATOM      3  C2  <0> d           1.403   4.091   1.409  0.00  0.00    -0.060 C 
ATOM      4  C3  <0> d           0.467   4.745   2.051  0.00  0.00    -0.117 C 
ATOM      5  H5  <0> d          -0.486   4.928   1.577  0.00  0.00     0.067 H 
ATOM      6  H6  <0> d           0.649   5.103   3.054  0.00  0.00     0.067 H 
BRANCH   3   7
ATOM      7  C1  <0> d           2.733   3.837   2.071  0.00  0.00    -0.053 C 
ATOM      8  H2  <0> d           3.412   4.660   1.850  0.00  0.00     0.033 H 
ATOM      9  H3  <0> d           2.594   3.760   3.149  0.00  0.00     0.033 H 
ATOM     10  H4  <0> d           3.156   2.906   1.692  0.00  0.00     0.033 H 
ENDBRANCH   3   7
ENDBRANCH   1   3
BRANCH   1  11
ATOM     11  C5  <0> d           1.171   2.086   0.002  0.00  0.00    -0.026 A 
ATOM     12  C10 <0> d           2.377   1.411  -0.014  0.00  0.00    -0.074 A 
ATOM     13  C9  <0> d           2.396   0.029  -0.021  0.00  0.00    -0.082 A 
ATOM     14  H11 <0> d           3.305   1.963  -0.019  0.00  0.00     0.084 H 
ATOM     15  C8  <0> d           1.208  -0.679  -0.014  0.00  0.00    -0.083 A 
ATOM     16  H10 <0> d           3.339  -0.499  -0.033  0.00  0.00     0.083 H 
ATOM     17  C7  <0> d           0.002  -0.004   0.002  0.00  0.00    -0.082 A 
ATOM     18  H9  <0> d           1.223  -1.759  -0.020  0.00  0.00     0.083 H 
ATOM     19  C6  <0> d          -0.017   1.378   0.010  0.00  0.00    -0.074 A 
ATOM     20  H8  <0> d          -0.926  -0.557   0.008  0.00  0.00     0.083 H 
ATOM     21  H7  <0> d          -0.959   1.905   0.017  0.00  0.00     0.084 H 
ENDBRANCH   1  11
BRANCH   1  22
ATOM     22  O1  <0> d           2.168   4.087  -0.863  0.00  0.00    -0.387 OA
ATOM     23  H12 <0> d           3.063   3.813  -0.620  0.00  0.00     0.210 HD
ENDBRANCH   1  22
TORSDOF 4
