REMARK  4 active torsions:
REMARK  status: ('A' for Active; 'I' for Inactive)
REMARK    1  A    between atoms: C1_1  and  C2_2 
REMARK    2  A    between atoms: C2_2  and  O1_3 
REMARK    3  A    between atoms: O1_3  and  C3_4 
REMARK    4  A    between atoms: C3_4  and  C4_6 
ROOT
ATOM      1  C3  <0> d           0.776  -1.799  -1.335  0.00  0.00     0.294 C 
ATOM      2  O2  <0> d           0.312  -2.550  -0.500  0.00  0.00    -0.259 OA
ENDROOT
BRANCH   1   3
ATOM      3  O1  <0> d           0.671  -0.465  -1.174  0.00  0.00    -0.318 OA
BRANCH   3   4
ATOM      4  C2  <0> d           0.002  -0.004   0.002  0.00  0.00     0.026 C 
ATOM      5  H5  <0> d           0.529  -0.365   0.885  0.00  0.00     0.074 H 
ATOM      6  H6  <0> d          -1.020  -0.381   0.010  0.00  0.00     0.074 H 
BRANCH   4   7
ATOM      7  C1  <0> d          -0.019   1.526   0.010  0.00  0.00    -0.056 C 
ATOM      8  H2  <0> d           1.004   1.903   0.003  0.00  0.00     0.030 H 
ATOM      9  H3  <0> d          -0.546   1.887  -0.873  0.00  0.00     0.030 H 
ATOM     10  H4  <0> d          -0.529   1.877   0.907  0.00  0.00     0.030 H 
ENDBRANCH   4   7
ENDBRANCH   3   4
ENDBRANCH   1   3
BRANCH   1  11
ATOM     11  C4  <0> d           1.452  -2.346  -2.522  0.00  0.00     0.056 A 
ATOM     12  C7  <0> d           1.640  -3.676  -2.830  0.00  0.00    -0.007 A 
ATOM     13  N1  <0> d           2.300  -3.746  -4.002  0.00  0.00    -0.374 N 
ATOM     14  H9  <0> d           1.313  -4.516  -2.236  0.00  0.00     0.112 H 
ATOM     15  C6  <0> d           2.562  -2.494  -4.475  0.00  0.00    -0.022 A 
ATOM     16  H1  <0> d           2.556  -4.570  -4.445  0.00  0.00     0.164 HD
ATOM     17  C5  <0> d           2.069  -1.586  -3.615  0.00  0.00    -0.051 A 
ATOM     18  H8  <0> d           3.083  -2.268  -5.394  0.00  0.00     0.111 H 
ATOM     19  H7  <0> d           2.117  -0.511  -3.710  0.00  0.00     0.087 H 
ENDBRANCH   1  11
TORSDOF 4
