REMARK  2 active torsions:
REMARK  status: ('A' for Active; 'I' for Inactive)
REMARK    1  A    between atoms: C4_4  and  C7_7 
REMARK    2  A    between atoms: C7_7  and  C8_9 
ROOT
ATOM      1  C8  <0> d           1.876   4.106   1.255  0.00  0.00     0.034 C 
ATOM      2  C9  <0> d           1.753   5.571   1.326  0.00  0.00     0.060 C 
ATOM      3  N1  <0> d           1.658   6.702   1.380  0.00  0.00    -0.197 NA
ATOM      4  H7  <0> d           1.431   3.660   2.145  0.00  0.00     0.057 H 
ATOM      5  H8  <0> d           2.930   3.832   1.200  0.00  0.00     0.057 H 
ENDROOT
BRANCH   1   6
ATOM      6  C7  <0> d           1.151   3.592   0.010  0.00  0.00     0.067 C 
ATOM      7  H1  <0> d           0.118   3.942   0.021  0.00  0.00     0.071 H 
ATOM      8  C10 <0> d           1.826   4.098  -1.196  0.00  0.00     0.069 C 
ATOM      9  N2  <0> d           2.348   4.489  -2.126  0.00  0.00    -0.197 NA
BRANCH   6  10
ATOM     10  C4  <0> d           1.171   2.086   0.002  0.00  0.00    -0.040 A 
ATOM     11  C3  <0> d          -0.017   1.378   0.010  0.00  0.00    -0.075 A 
ATOM     12  C2  <0> d           0.002  -0.004   0.002  0.00  0.00    -0.082 A 
ATOM     13  H4  <0> d          -0.959   1.905   0.017  0.00  0.00     0.084 H 
ATOM     14  C1  <0> d           1.208  -0.679  -0.014  0.00  0.00    -0.083 A 
ATOM     15  H3  <0> d          -0.926  -0.557   0.008  0.00  0.00     0.083 H 
ATOM     16  C6  <0> d           2.396   0.029  -0.021  0.00  0.00    -0.082 A 
ATOM     17  H2  <0> d           1.223  -1.759  -0.020  0.00  0.00     0.083 H 
ATOM     18  C5  <0> d           2.377   1.411  -0.014  0.00  0.00    -0.075 A 
ATOM     19  H6  <0> d           3.339  -0.499  -0.033  0.00  0.00     0.083 H 
ATOM     20  H5  <0> d           3.305   1.963  -0.019  0.00  0.00     0.084 H 
ENDBRANCH   6  10
ENDBRANCH   1   6
TORSDOF 2
