REMARK  4 active torsions:
REMARK  status: ('A' for Active; 'I' for Inactive)
REMARK    1  A    between atoms: C1_1  and  C2_2 
REMARK    2  A    between atoms: C2_2  and  C3_3 
REMARK    3  A    between atoms: C2_2  and  C4_4 
REMARK    4  A    between atoms: C2_2  and  C5_5 
ROOT
ATOM      1  C5  <0> d          -0.048   3.850   0.023  0.00  0.00    -0.049 A 
ATOM      2  C6  <0> d           1.155   3.167   0.008  0.00  0.00    -0.076 A 
ATOM      3  C7  <0> d           1.172   1.783   0.000  0.00  0.00    -0.081 A 
ATOM      4  C8  <0> d          -0.013   1.076   0.008  0.00  0.00    -0.063 A 
ATOM      5  C9  <0> d          -1.230   1.759   0.017  0.00  0.00     0.045 A 
ATOM      6  C10 <0> d          -1.240   3.155   0.031  0.00  0.00    -0.056 A 
ATOM      7  C11 <0> d          -2.463   1.031   0.019  0.00  0.00     0.099 C 
ATOM      8  N1  <0> d          -3.442   0.454   0.021  0.00  0.00    -0.191 NA
ATOM      9  H10 <0> d           2.085   3.716   0.001  0.00  0.00     0.084 H 
ATOM     10  H11 <0> d           2.114   1.256  -0.011  0.00  0.00     0.083 H 
ATOM     11  H12 <0> d           0.002  -0.004   0.002  0.00  0.00     0.085 H 
ATOM     12  H13 <0> d          -2.178   3.690   0.043  0.00  0.00     0.086 H 
ENDROOT
BRANCH   1  13
ATOM     13  C2  <0> d          -0.057   5.357   0.030  0.00  0.00    -0.024 C 
BRANCH  13  14
ATOM     14  C1  <0> d           1.383   5.875   0.018  0.00  0.00    -0.066 C 
ATOM     15  H1  <0> d           1.890   5.519  -0.879  0.00  0.00     0.028 H 
ATOM     16  H2  <0> d           1.377   6.965   0.023  0.00  0.00     0.028 H 
ATOM     17  H3  <0> d           1.907   5.511   0.901  0.00  0.00     0.028 H 
ENDBRANCH  13  14
BRANCH  13  18
ATOM     18  C3  <0> d          -0.793   5.869  -1.210  0.00  0.00    -0.066 C 
ATOM     19  H4  <0> d          -1.819   5.500  -1.201  0.00  0.00     0.028 H 
ATOM     20  H5  <0> d          -0.799   6.959  -1.204  0.00  0.00     0.028 H 
ATOM     21  H6  <0> d          -0.286   5.513  -2.106  0.00  0.00     0.028 H 
ENDBRANCH  13  18
BRANCH  13  22
ATOM     22  C4  <0> d          -0.768   5.857   1.289  0.00  0.00    -0.066 C 
ATOM     23  H7  <0> d          -0.244   5.493   2.172  0.00  0.00     0.028 H 
ATOM     24  H8  <0> d          -0.775   6.947   1.294  0.00  0.00     0.028 H 
ATOM     25  H9  <0> d          -1.794   5.488   1.297  0.00  0.00     0.028 H 
ENDBRANCH  13  22
ENDBRANCH   1  13
TORSDOF 4
