REMARK  0 active torsions:
REMARK  status: ('A' for Active; 'I' for Inactive)
ROOT
ATOM      1  C1  <0> d          -0.017   1.383   0.010  0.00  0.00    -0.004 A 
ATOM      2  C2  <0> d           1.242   1.809  -0.000  0.00  0.00    -0.004 A 
ATOM      3  N1  <0> d           2.069   0.695  -0.014  0.00  0.00    -0.318 N 
ATOM      4  H1  <0> d           3.039   0.706  -0.023  0.00  0.00     0.170 HD
ATOM      5  C3  <0> d           1.289  -0.404  -0.012  0.00  0.00     0.324 A 
ATOM      6  O1  <0> d           1.679  -1.557  -0.022  0.00  0.00    -0.247 OA
ATOM      7  N2  <0> d           0.002  -0.004   0.002  0.00  0.00    -0.318 N 
ATOM      8  H2  <0> d          -0.775  -0.585   0.007  0.00  0.00     0.170 HD
ATOM      9  H3  <0> d          -0.898   2.006   0.025  0.00  0.00     0.113 H 
ATOM     10  H4  <0> d           1.564   2.840   0.002  0.00  0.00     0.113 H 
ENDROOT
TORSDOF 0
