REMARK  2 active torsions:
REMARK  status: ('A' for Active; 'I' for Inactive)
REMARK    1  A    between atoms: C2_2  and  C4_7 
REMARK    2  A    between atoms: C3_5  and  N3_6 
ROOT
ATOM      1  C1  <0> d          -0.018   1.512   0.010  0.00  0.00     0.032 A 
ATOM      2  C2  <0> d           1.451   1.882  -0.002  0.00  0.00     0.103 A 
ATOM      3  N1  <0> d           2.102   0.767  -0.014  0.00  0.00    -0.176 NA
ATOM      4  N2  <0> d           1.262  -0.341  -0.012  0.00  0.00    -0.266 N 
ATOM      5  C3  <0> d           0.002  -0.004   0.002  0.00  0.00     0.097 A 
ATOM      6  H1  <0> d          -0.501   1.885   0.914  0.00  0.00     0.053 H 
ATOM      7  H2  <0> d          -0.518   1.894  -0.879  0.00  0.00     0.053 H 
ATOM      8  H6  <0> d           1.576  -1.258  -0.020  0.00  0.00     0.190 HD
ENDROOT
BRANCH   2   9
ATOM      9  C4  <0> d           2.035   3.272  -0.001  0.00  0.00     0.248 C 
ATOM     10  F1  <0> d           3.262   3.263  -0.672  0.00  0.00    -0.208 F 
ATOM     11  F2  <0> d           1.156   4.147  -0.648  0.00  0.00    -0.208 F 
ATOM     12  H5  <0> d           2.185   3.602   1.027  0.00  0.00     0.155 H 
ENDBRANCH   2   9
BRANCH   5  13
ATOM     13  N3  <0> d          -1.078  -0.845   0.009  0.00  0.00    -0.388 N 
ATOM     14  H3  <0> d          -1.976  -0.480   0.020  0.00  0.00     0.157 HD
ATOM     15  H4  <0> d          -0.944  -1.805   0.002  0.00  0.00     0.157 HD
ENDBRANCH   5  13
TORSDOF 2
