REMARK  6 active torsions:
REMARK  status: ('A' for Active; 'I' for Inactive)
REMARK    1  A    between atoms: C1_1  and  C2_2 
REMARK    2  A    between atoms: C1_1  and  O4_10 
REMARK    3  A    between atoms: C2_2  and  C3_4 
REMARK    4  A    between atoms: C2_2  and  O3_9 
REMARK    5  A    between atoms: C3_4  and  C4_6 
REMARK    6  A    between atoms: C3_4  and  O2_8 
ROOT
ATOM      1  C2  <0> d          -0.729   1.579   1.267  0.00  0.00     0.090 C 
ATOM      2  H1  <0> d          -1.776   1.277   1.232  0.00  0.00     0.091 H 
ENDROOT
BRANCH   1   3
ATOM      3  C1  <0> d          -0.013   1.086   0.008  0.00  0.00     0.043 C 
ATOM      4  H3  <0> d           0.002  -0.004   0.002  0.00  0.00     0.078 H 
ATOM      5  H4  <0> d           1.010   1.463   0.000  0.00  0.00     0.078 H 
BRANCH   3   6
ATOM      6  O4  <0> d          -0.704   1.559  -1.150  0.00  0.00    -0.398 OA
ATOM      7  H7  <0> d          -0.304   1.284  -1.986  0.00  0.00     0.209 HD
ENDBRANCH   3   6
ENDBRANCH   1   3
BRANCH   1   8
ATOM      8  C3  <0> d          -0.064   0.971   2.503  0.00  0.00     0.145 C 
ATOM      9  H2  <0> d           0.983   1.274   2.539  0.00  0.00     0.104 H 
BRANCH   8  10
ATOM     10  C4  <0> d          -0.769   1.457   3.743  0.00  0.00     0.205 C 
ATOM     11  O1  <0> d          -1.366   0.675   4.445  0.00  0.00    -0.646 OA
ATOM     12  O5  <0> d          -0.735   2.759   4.068  0.00  0.00    -0.646 OA
ENDBRANCH   8  10
BRANCH   8  13
ATOM     13  O2  <0> d          -0.146  -0.454   2.436  0.00  0.00    -0.382 OA
ATOM     14  H5  <0> d          -1.050  -0.794   2.402  0.00  0.00     0.210 HD
ENDBRANCH   8  13
ENDBRANCH   1   8
BRANCH   1  15
ATOM     15  O3  <0> d          -0.647   3.004   1.334  0.00  0.00    -0.390 OA
ATOM     16  H6  <0> d           0.258   3.345   1.368  0.00  0.00     0.210 HD
ENDBRANCH   1  15
TORSDOF 6
