REMARK  3 active torsions:
REMARK  status: ('A' for Active; 'I' for Inactive)
REMARK    1  A    between atoms: C1_1  and  C2_2 
REMARK    2  A    between atoms: N1_4  and  C4_7 
REMARK    3  A    between atoms: C4_7  and  C5_8 
ROOT
ATOM      1  C2  <0> d          -4.222  -0.119   0.547  0.00  0.00     0.071 A 
ATOM      2  C3  <0> d          -3.433   0.914   0.925  0.00  0.00     0.026 A 
ATOM      3  N1  <0> d          -2.430   0.973   0.019  0.00  0.00    -0.251 N 
ATOM      4  N2  <0> d          -2.605   0.030  -0.840  0.00  0.00    -0.066 NA
ATOM      5  N3  <0> d          -3.666  -0.640  -0.553  0.00  0.00    -0.136 NA
ATOM      6  H4  <0> d          -3.577   1.561   1.777  0.00  0.00     0.117 H 
ENDROOT
BRANCH   3   7
ATOM      7  C4  <0> d          -1.329   1.940   0.019  0.00  0.00     0.097 C 
ATOM      8  H5  <0> d          -1.391   2.561   0.913  0.00  0.00     0.084 H 
ATOM      9  H6  <0> d          -1.400   2.570  -0.867  0.00  0.00     0.084 H 
BRANCH   7  10
ATOM     10  C5  <0> d          -0.014   1.204   0.009  0.00  0.00     0.193 C 
ATOM     11  O1  <0> d           0.002  -0.004   0.002  0.00  0.00    -0.647 OA
ATOM     12  O2  <0> d           1.139   1.891   0.001  0.00  0.00    -0.647 OA
ENDBRANCH   7  10
ENDBRANCH   3   7
BRANCH   1  13
ATOM     13  C1  <0> d          -5.477  -0.594   1.233  0.00  0.00    -0.032 C 
ATOM     14  H1  <0> d          -5.221  -1.343   1.981  0.00  0.00     0.035 H 
ATOM     15  H2  <0> d          -5.968   0.251   1.717  0.00  0.00     0.035 H 
ATOM     16  H3  <0> d          -6.151  -1.031   0.496  0.00  0.00     0.035 H 
ENDBRANCH   1  13
TORSDOF 3
