REMARK  2 active torsions:
REMARK  status: ('A' for Active; 'I' for Inactive)
REMARK    1  A    between atoms: C1_1  and  C2_2 
REMARK    2  A    between atoms: C3_3  and  N3_8 
ROOT
ATOM      1  C2  <0> d           0.002  -0.004   0.002  0.00  0.00     0.078 A 
ATOM      2  C3  <0> d           0.008  -0.818  -1.139  0.00  0.00     0.069 A 
ATOM      3  C4  <0> d           0.027  -2.111  -0.728  0.00  0.00     0.023 A 
ATOM      4  N1  <0> d           0.034  -2.109   0.631  0.00  0.00    -0.287 N 
ATOM      5  H1  <0> d           0.047  -2.893   1.204  0.00  0.00     0.188 HD
ATOM      6  N2  <0> d           0.023  -0.775   1.059  0.00  0.00    -0.178 NA
ATOM      7  H5  <0> d           0.036  -2.984  -1.365  0.00  0.00     0.117 H 
ENDROOT
BRANCH   1   8
ATOM      8  C1  <0> d          -0.018   1.503   0.010  0.00  0.00    -0.032 C 
ATOM      9  H2  <0> d           1.004   1.880   0.003  0.00  0.00     0.035 H 
ATOM     10  H3  <0> d          -0.545   1.864  -0.873  0.00  0.00     0.035 H 
ATOM     11  H4  <0> d          -0.529   1.854   0.907  0.00  0.00     0.035 H 
ENDBRANCH   1   8
BRANCH   2  12
ATOM     12  N3  <0> d          -0.005  -0.373  -2.475  0.00  0.00    -0.396 N 
ATOM     13  H6  <0> d          -0.019   0.577  -2.670  0.00  0.00     0.156 HD
ATOM     14  H7  <0> d           0.001  -1.017  -3.201  0.00  0.00     0.156 HD
ENDBRANCH   2  12
TORSDOF 2
