REMARK  1 active torsions:
REMARK  status: ('A' for Active; 'I' for Inactive)
REMARK    1  A    between atoms: C4_5  and  O1_8 
ROOT
ATOM      1  C1  <0> d          -0.755   1.594  -1.231  0.00  0.00    -0.059 C 
ATOM      2  C2  <0> d          -0.013   1.086   0.008  0.00  0.00    -0.040 C 
ATOM      3  C3  <0> d          -0.731   1.580   1.266  0.00  0.00     0.114 C 
ATOM      4  N1  <0> d          -2.115   1.088   1.265  0.00  0.00     0.112 N 
ATOM      5  C4  <0> d          -2.861   1.601   0.109  0.00  0.00     0.221 C 
ATOM      6  H1  <0> d          -2.853   2.691   0.127  0.00  0.00     0.132 H 
ATOM      7  C5  <0> d          -2.206   1.108  -1.183  0.00  0.00    -0.015 C 
ATOM      8  H2  <0> d          -0.736   2.684  -1.246  0.00  0.00     0.033 H 
ATOM      9  H3  <0> d          -0.271   1.209  -2.129  0.00  0.00     0.033 H 
ATOM     10  H4  <0> d           0.002  -0.004   0.002  0.00  0.00     0.035 H 
ATOM     11  H5  <0> d           1.010   1.464   0.000  0.00  0.00     0.035 H 
ATOM     12  H6  <0> d          -0.212   1.208   2.150  0.00  0.00     0.079 H 
ATOM     13  H7  <0> d          -0.733   2.670   1.278  0.00  0.00     0.079 H 
ATOM     14  H8  <0> d          -2.582   1.321   2.129  0.00  0.00     0.319 HD
ATOM     15  H9  <0> d          -2.751   1.502  -2.040  0.00  0.00     0.039 H 
ATOM     16  H10 <0> d          -2.226   0.018  -1.207  0.00  0.00     0.039 H 
ENDROOT
BRANCH   5  17
ATOM     17  O1  <0> d          -4.210   1.134   0.168  0.00  0.00    -0.368 OA
ATOM     18  H11 <0> d          -4.688   1.410   0.962  0.00  0.00     0.212 HD
ENDBRANCH   5  17
TORSDOF 1
