REMARK  1 active torsions:
REMARK  status: ('A' for Active; 'I' for Inactive)
REMARK    1  A    between atoms: C1_1  and  C2_2 
ROOT
ATOM      1  C2  <0> d          -1.199   1.743   0.017  0.00  0.00    -0.060 A 
ATOM      2  C3  <0> d          -1.240   3.135   0.029  0.00  0.00    -0.076 A 
ATOM      3  C4  <0> d          -0.092   3.868   0.022  0.00  0.00    -0.068 A 
ATOM      4  C5  <0> d           1.148   3.212   0.008  0.00  0.00     0.027 A 
ATOM      5  C6  <0> d           2.363   3.936   0.000  0.00  0.00     0.121 A 
ATOM      6  C7  <0> d           3.545   3.218  -0.015  0.00  0.00    -0.032 A 
ATOM      7  C8  <0> d           3.507   1.829  -0.021  0.00  0.00    -0.020 A 
ATOM      8  N1  <0> d           2.373   1.167  -0.014  0.00  0.00    -0.365 N 
ATOM      9  C9  <0> d           1.194   1.798   0.000  0.00  0.00     0.045 A 
ATOM     10  C10 <0> d          -0.013   1.076   0.008  0.00  0.00    -0.051 A 
ATOM     11  O1  <0> d           2.369   5.292   0.007  0.00  0.00    -0.191 OA
ATOM     12  H4  <0> d          -2.195   3.640   0.040  0.00  0.00     0.084 H 
ATOM     13  H5  <0> d          -0.136   4.947   0.028  0.00  0.00     0.085 H 
ATOM     14  H6  <0> d           4.493   3.734  -0.021  0.00  0.00     0.090 H 
ATOM     15  H7  <0> d           4.436   1.278  -0.032  0.00  0.00     0.111 H 
ATOM     16  H8  <0> d           0.002  -0.004   0.002  0.00  0.00     0.087 H 
ATOM     17  H9  <0> d           2.378   0.067  -0.021  0.00  0.00     0.165 HD
ENDROOT
BRANCH   1  18
ATOM     18  C1  <0> d          -2.488   0.963   0.019  0.00  0.00    -0.051 C 
ATOM     19  H1  <0> d          -3.339   1.660   0.027  0.00  0.00     0.033 H 
ATOM     20  H2  <0> d          -2.529   0.325   0.915  0.00  0.00     0.033 H 
ATOM     21  H3  <0> d          -2.538   0.334  -0.882  0.00  0.00     0.033 H 
ENDBRANCH   1  18
TORSDOF 1
