REMARK  2 active torsions:
REMARK  status: ('A' for Active; 'I' for Inactive)
REMARK    1  A    between atoms: C1_1  and  C2_2 
REMARK    2  A    between atoms: C4_5  and  O1_9 
ROOT
ATOM      1  C2  <0> d          -1.177   1.746   0.017  0.00  0.00    -0.047 C 
ATOM      2  C3  <0> d          -0.013   1.076   0.008  0.00  0.00    -0.019 C 
ATOM      3  N1  <0> d           1.170   1.799   0.001  0.00  0.00    -0.370 N 
ATOM      4  C4  <0> d           1.204   3.100   0.681  0.00  0.00     0.117 C 
ATOM      5  H1  <0> d           2.116   3.645   0.396  0.00  0.00     0.124 H 
ATOM      6  C5  <0> d          -0.045   3.869   0.331  0.00  0.00    -0.057 C 
ATOM      7  C6  <0> d          -1.164   3.214   0.026  0.00  0.00    -0.075 C 
ATOM      8  H5  <0> d          -0.011  -0.024   0.007  0.00  0.00     0.111 H 
ATOM      9  H6  <0> d           2.071   1.417  -0.502  0.00  0.00     0.161 HD
ATOM     10  H7  <0> d          -0.034   4.969   0.328  0.00  0.00     0.083 H 
ATOM     11  H8  <0> d          -2.079   3.773  -0.221  0.00  0.00     0.084 H 
ENDROOT
BRANCH   1  12
ATOM     12  C1  <0> d          -2.485   0.997   0.023  0.00  0.00    -0.050 C 
ATOM     13  H2  <0> d          -2.288  -0.085   0.015  0.00  0.00     0.033 H 
ATOM     14  H3  <0> d          -3.069   1.271  -0.868  0.00  0.00     0.033 H 
ATOM     15  H4  <0> d          -3.054   1.260   0.928  0.00  0.00     0.033 H 
ENDBRANCH   1  12
BRANCH   4  16
ATOM     16  O1  <0> d           1.262   2.899   2.095  0.00  0.00    -0.373 OA
ATOM     17  H9  <0> d           1.294   3.764   2.773  0.00  0.00     0.212 HD
ENDBRANCH   4  16
TORSDOF 2
