REMARK  0 active torsions:
REMARK  status: ('A' for Active; 'I' for Inactive)
ROOT
ATOM      1  C1  <0> d          -0.017   1.390   0.010  0.00  0.00    -0.050 A 
ATOM      2  C2  <0> d           1.190   2.060   0.002  0.00  0.00    -0.042 A 
ATOM      3  C3  <0> d           2.377   1.336  -0.013  0.00  0.00     0.127 A 
ATOM      4  N1  <0> d           2.377   0.022  -0.021  0.00  0.00    -0.233 NA
ATOM      5  C4  <0> d           1.240  -0.675  -0.013  0.00  0.00     0.105 A 
ATOM      6  C5  <0> d           0.002  -0.004   0.002  0.00  0.00     0.080 A 
ATOM      7  N2  <0> d          -0.971  -0.969   0.006  0.00  0.00    -0.276 N 
ATOM      8  H1  <0> d          -1.929  -0.813   0.015  0.00  0.00     0.189 HD
ATOM      9  N3  <0> d          -0.341  -2.220  -0.007  0.00  0.00    -0.184 NA
ATOM     10  C6  <0> d           0.951  -2.062  -0.018  0.00  0.00     0.051 A 
ATOM     11 Cl1  <0> d           3.891   2.185  -0.024  0.00  0.00    -0.062 Cl
ATOM     12  H2  <0> d          -0.951   1.931   0.026  0.00  0.00     0.087 H 
ATOM     13  H3  <0> d           1.213   3.140   0.007  0.00  0.00     0.088 H 
ATOM     14  H4  <0> d           1.682  -2.856  -0.029  0.00  0.00     0.121 H 
ENDROOT
TORSDOF 0
