REMARK  6 active torsions:
REMARK  status: ('A' for Active; 'I' for Inactive)
REMARK    1  A    between atoms: C1_1  and  C2_2 
REMARK    2  A    between atoms: C2_2  and  C3_3 
REMARK    3  A    between atoms: C3_3  and  C4_5 
REMARK    4  A    between atoms: C3_3  and  O2_8 
REMARK    5  A    between atoms: C4_5  and  O1_6 
REMARK    6  A    between atoms: O1_6  and  C5_7 
ROOT
ATOM      1  C3  <0> d          -2.164   1.050   1.278  0.00  0.00     0.056 C 
ATOM      2  H1  <0> d          -2.152  -0.036   1.182  0.00  0.00     0.086 H 
ENDROOT
BRANCH   1   3
ATOM      3  C2  <0> d          -0.729   1.579   1.267  0.00  0.00    -0.043 C 
ATOM      4  H5  <0> d          -0.202   1.218   2.150  0.00  0.00     0.036 H 
ATOM      5  H6  <0> d          -0.744   2.669   1.273  0.00  0.00     0.036 H 
BRANCH   3   6
ATOM      6  C1  <0> d          -0.013   1.086   0.008  0.00  0.00    -0.074 C 
ATOM      7  H2  <0> d           0.002  -0.004   0.002  0.00  0.00     0.027 H 
ATOM      8  H3  <0> d           1.010   1.463   0.000  0.00  0.00     0.027 H 
ATOM      9  H4  <0> d          -0.540   1.447  -0.875  0.00  0.00     0.027 H 
ENDBRANCH   3   6
ENDBRANCH   1   3
BRANCH   1  10
ATOM     10  C4  <0> d          -2.841   1.438   2.594  0.00  0.00     0.043 C 
ATOM     11  H7  <0> d          -2.240   1.082   3.430  0.00  0.00     0.078 H 
ATOM     12  H8  <0> d          -2.934   2.523   2.648  0.00  0.00     0.078 H 
BRANCH  10  13
ATOM     13  O1  <0> d          -4.140   0.846   2.654  0.00  0.00    -0.393 OA
BRANCH  13  14
ATOM     14  C5  <0> d          -4.862   1.147   3.850  0.00  0.00     0.004 C 
ATOM     15  H9  <0> d          -4.996   2.226   3.931  0.00  0.00     0.066 H 
ATOM     16  H10 <0> d          -5.837   0.661   3.819  0.00  0.00     0.066 H 
ATOM     17  H11 <0> d          -4.303   0.785   4.713  0.00  0.00     0.066 H 
ENDBRANCH  13  14
ENDBRANCH  10  13
ENDBRANCH   1  10
BRANCH   1  18
ATOM     18  O2  <0> d          -2.889   1.616   0.184  0.00  0.00    -0.393 OA
ATOM     19  H12 <0> d          -2.941   2.581   0.204  0.00  0.00     0.210 HD
ENDBRANCH   1  18
TORSDOF 6
