REMARK  1 active torsions:
REMARK  status: ('A' for Active; 'I' for Inactive)
REMARK    1  A    between atoms: C1_1  and  C2_2 
ROOT
ATOM      1  C2  <0> d           1.239   1.745  -0.000  0.00  0.00     0.027 C 
ATOM      2  H1  <0> d           2.070   1.113   0.314  0.00  0.00     0.075 H 
ATOM      3  C3  <0> d           1.067   2.909   0.986  0.00  0.00     0.044 C 
ATOM      4  O1  <0> d          -0.060   3.691   0.583  0.00  0.00    -0.347 OA
ATOM      5  C4  <0> d          -1.222   3.037   0.316  0.00  0.00     0.095 A 
ATOM      6  C5  <0> d          -2.421   3.733   0.334  0.00  0.00    -0.049 A 
ATOM      7  C6  <0> d          -3.607   3.076   0.060  0.00  0.00    -0.080 A 
ATOM      8  C7  <0> d          -3.604   1.725  -0.233  0.00  0.00    -0.081 A 
ATOM      9  C8  <0> d          -2.413   1.023  -0.252  0.00  0.00    -0.055 A 
ATOM     10  C9  <0> d          -1.222   1.676   0.017  0.00  0.00     0.062 A 
ATOM     11  N1  <0> d          -0.011   0.966   0.007  0.00  0.00    -0.381 N 
ATOM     12  H5  <0> d           0.899   2.516   1.989  0.00  0.00     0.078 H 
ATOM     13  H6  <0> d           1.963   3.529   0.980  0.00  0.00     0.078 H 
ATOM     14  H7  <0> d          -2.429   4.788   0.562  0.00  0.00     0.087 H 
ATOM     15  H8  <0> d          -4.539   3.622   0.076  0.00  0.00     0.083 H 
ATOM     16  H9  <0> d          -4.534   1.218  -0.446  0.00  0.00     0.083 H 
ATOM     17  H10 <0> d          -2.412  -0.033  -0.480  0.00  0.00     0.087 H 
ATOM     18  H11 <0> d           0.002  -0.004   0.002  0.00  0.00     0.160 HD
ENDROOT
BRANCH   1  19
ATOM     19  C1  <0> d           1.502   2.290  -1.405  0.00  0.00    -0.055 C 
ATOM     20  H2  <0> d           0.675   2.933  -1.706  0.00  0.00     0.030 H 
ATOM     21  H3  <0> d           2.428   2.865  -1.405  0.00  0.00     0.030 H 
ATOM     22  H4  <0> d           1.591   1.460  -2.107  0.00  0.00     0.030 H 
ENDBRANCH   1  19
TORSDOF 1
