REMARK  7 active torsions:
REMARK  status: ('A' for Active; 'I' for Inactive)
REMARK    1  A    between atoms: C1_1  and  C2_2 
REMARK    2  A    between atoms: C2_2  and  C3_4 
REMARK    3  A    between atoms: C2_2  and  O3_12 
REMARK    4  A    between atoms: C3_4  and  N1_5 
REMARK       I    between atoms: N1_5  and  C4_6 
REMARK    5  A    between atoms: C4_6  and  C5_8 
REMARK    6  A    between atoms: C5_8  and  C6_10 
REMARK    7  A    between atoms: C5_8  and  O2_11 
ROOT
ATOM      1  N1  <0> d          -0.721   1.571  -1.179  0.00  0.00    -0.356 N 
ATOM      2  C4  <0> d          -0.268   1.258  -2.409  0.00  0.00     0.246 C 
ATOM      3  O1  <0> d           0.726   0.575  -2.534  0.00  0.00    -0.271 OA
ATOM      4  H8  <0> d          -1.516   2.118  -1.079  0.00  0.00     0.162 HD
ENDROOT
BRANCH   1   5
ATOM      5  C3  <0> d          -0.013   1.086   0.008  0.00  0.00     0.019 C 
ATOM      6  H6  <0> d           0.002  -0.004   0.002  0.00  0.00     0.067 H 
ATOM      7  H7  <0> d           1.010   1.463   0.000  0.00  0.00     0.067 H 
BRANCH   5   8
ATOM      8  C2  <0> d          -0.729   1.579   1.267  0.00  0.00     0.047 C 
ATOM      9  H1  <0> d          -1.751   1.202   1.275  0.00  0.00     0.084 H 
BRANCH   8  10
ATOM     10  C1  <0> d           0.011   1.072   2.506  0.00  0.00    -0.051 C 
ATOM     11  H3  <0> d           1.034   1.450   2.499  0.00  0.00     0.030 H 
ATOM     12  H4  <0> d          -0.499   1.424   3.403  0.00  0.00     0.030 H 
ATOM     13  H5  <0> d           0.026  -0.018   2.500  0.00  0.00     0.030 H 
ENDBRANCH   8  10
BRANCH   8  14
ATOM     14  O3  <0> d          -0.748   3.008   1.275  0.00  0.00    -0.394 OA
ATOM     15  H13 <0> d           0.130   3.413   1.268  0.00  0.00     0.210 HD
ENDBRANCH   8  14
ENDBRANCH   5   8
ENDBRANCH   1   5
BRANCH   2  16
ATOM     16  C5  <0> d          -0.997   1.758  -3.630  0.00  0.00     0.108 C 
ATOM     17  H2  <0> d          -2.043   1.455  -3.578  0.00  0.00     0.097 H 
BRANCH  16  18
ATOM     18  C6  <0> d          -0.910   3.284  -3.687  0.00  0.00    -0.044 C 
ATOM     19  H9  <0> d           0.135   3.587  -3.739  0.00  0.00     0.031 H 
ATOM     20  H10 <0> d          -1.438   3.645  -4.570  0.00  0.00     0.031 H 
ATOM     21  H11 <0> d          -1.367   3.708  -2.793  0.00  0.00     0.031 H 
ENDBRANCH  16  18
BRANCH  16  22
ATOM     22  O2  <0> d          -0.398   1.202  -4.803  0.00  0.00    -0.387 OA
ATOM     23  H12 <0> d           0.535   1.431  -4.914  0.00  0.00     0.210 HD
ENDBRANCH  16  22
ENDBRANCH   2  16
TORSDOF 7
