REMARK  2 active torsions:
REMARK  status: ('A' for Active; 'I' for Inactive)
REMARK    1  A    between atoms: C8_10  and  C9_12 
REMARK    2  A    between atoms: C9_12  and  O1_13 
ROOT
ATOM      1  C1  <0> d          -0.019   1.530   0.011  0.00  0.00    -0.058 C 
ATOM      2  C2  <0> d           1.416   2.061  -0.000  0.00  0.00    -0.058 C 
ATOM      3  C3  <0> d           2.400   0.884   0.013  0.00  0.00    -0.033 C 
ATOM      4  H1  <0> d           3.433   1.230  -0.028  0.00  0.00     0.046 H 
ATOM      5  C4  <0> d           2.076   0.010  -1.189  0.00  0.00    -0.102 C 
ATOM      6  C5  <0> d           0.813  -0.453  -1.205  0.00  0.00    -0.102 C 
ATOM      7  C6  <0> d           0.002  -0.004   0.002  0.00  0.00    -0.038 C 
ATOM      8  H2  <0> d          -1.011  -0.404  -0.043  0.00  0.00     0.046 H 
ATOM      9  C7  <0> d           0.721  -0.484   1.270  0.00  0.00    -0.053 C 
ATOM     10  C8  <0> d           2.156   0.048   1.277  0.00  0.00    -0.026 C 
ATOM     11  H3  <0> d           2.853  -0.790   1.298  0.00  0.00     0.044 H 
ATOM     12  H4  <0> d          -0.546   1.891  -0.873  0.00  0.00     0.034 H 
ATOM     13  H5  <0> d          -0.529   1.881   0.907  0.00  0.00     0.034 H 
ATOM     14  H6  <0> d           1.570   2.675  -0.888  0.00  0.00     0.034 H 
ATOM     15  H7  <0> d           1.587   2.665   0.891  0.00  0.00     0.034 H 
ATOM     16  H8  <0> d           2.792  -0.215  -1.965  0.00  0.00     0.077 H 
ATOM     17  H9  <0> d           0.413  -1.088  -1.981  0.00  0.00     0.076 H 
ATOM     18  H10 <0> d           0.193  -0.114   2.149  0.00  0.00     0.034 H 
ATOM     19  H11 <0> d           0.738  -1.573   1.288  0.00  0.00     0.034 H 
ENDROOT
BRANCH  10  20
ATOM     20  C9  <0> d           2.370   0.921   2.515  0.00  0.00     0.021 C 
ATOM     21  H12 <0> d           3.362   1.371   2.475  0.00  0.00     0.074 H 
ATOM     22  H13 <0> d           1.616   1.707   2.541  0.00  0.00     0.074 H 
BRANCH  20  23
ATOM     23  O1  <0> d           2.260   0.116   3.691  0.00  0.00    -0.400 OA
ATOM     24  H14 <0> d           2.385   0.605   4.516  0.00  0.00     0.209 HD
ENDBRANCH  20  23
ENDBRANCH  10  20
TORSDOF 2
