REMARK  2 active torsions:
REMARK  status: ('A' for Active; 'I' for Inactive)
REMARK    1  A    between atoms: C1_1  and  N1_2 
REMARK    2  A    between atoms: C4_5  and  C7_9 
ROOT
ATOM      1  N1  <0> d           0.002  -0.004   0.002  0.00  0.00    -0.329 N 
ATOM      2  C2  <0> d           0.022  -0.677   1.180  0.00  0.00    -0.017 A 
ATOM      3  C3  <0> d           0.041  -2.029   1.210  0.00  0.00    -0.051 A 
ATOM      4  C4  <0> d           0.040  -2.759   0.001  0.00  0.00     0.047 A 
ATOM      5  C5  <0> d           0.019  -2.069  -1.197  0.00  0.00    -0.001 A 
ATOM      6  C6  <0> d          -0.006  -0.659  -1.174  0.00  0.00     0.247 A 
ATOM      7  O1  <0> d          -0.029  -0.033  -2.220  0.00  0.00    -0.268 OA
ATOM      8  H4  <0> d           0.023  -0.125   2.108  0.00  0.00     0.111 H 
ATOM      9  H5  <0> d           0.057  -2.550   2.156  0.00  0.00     0.087 H 
ATOM     10  H6  <0> d           0.017  -2.601  -2.137  0.00  0.00     0.093 H 
ENDROOT
BRANCH   1  11
ATOM     11  C1  <0> d          -0.018   1.461   0.010  0.00  0.00    -0.012 C 
ATOM     12  H1  <0> d           1.005   1.838   0.002  0.00  0.00     0.057 H 
ATOM     13  H2  <0> d          -0.545   1.822  -0.873  0.00  0.00     0.057 H 
ATOM     14  H3  <0> d          -0.528   1.812   0.907  0.00  0.00     0.057 H 
ENDBRANCH   1  11
BRANCH   4  15
ATOM     15  C7  <0> d           0.060  -4.243   0.016  0.00  0.00     0.209 C 
ATOM     16  O2  <0> d           0.059  -4.861  -1.029  0.00  0.00    -0.644 OA
ATOM     17  O3  <0> d           0.081  -4.904   1.189  0.00  0.00    -0.644 OA
ENDBRANCH   4  15
TORSDOF 2
