REMARK  8 active torsions:
REMARK  status: ('A' for Active; 'I' for Inactive)
REMARK    1  A    between atoms: C1_1  and  C2_2 
REMARK    2  A    between atoms: C2_2  and  C3_3 
REMARK    3  A    between atoms: C2_2  and  C4_4 
REMARK    4  A    between atoms: C4_4  and  C5_6 
REMARK    5  A    between atoms: C4_4  and  O2_11 
REMARK    6  A    between atoms: C5_6  and  C6_8 
REMARK    7  A    between atoms: C6_8  and  C7_9 
REMARK    8  A    between atoms: C6_8  and  C8_10 
ROOT
ATOM      1  C4  <0> d          -1.329   1.939   0.019  0.00  0.00     0.096 C 
ATOM      2  H1  <0> d          -1.265   2.729   0.629  0.00  0.00     0.095 H 
ENDROOT
BRANCH   1   3
ATOM      3  C2  <0> d          -1.659   2.414  -1.398  0.00  0.00    -0.029 C 
ATOM      4  H5  <0> d          -0.831   3.010  -1.783  0.00  0.00     0.043 H 
BRANCH   3   5
ATOM      5  C1  <0> d          -1.881   1.202  -2.304  0.00  0.00    -0.070 C 
ATOM      6  H2  <0> d          -0.976   0.594  -2.326  0.00  0.00     0.028 H 
ATOM      7  H3  <0> d          -2.708   0.607  -1.918  0.00  0.00     0.028 H 
ATOM      8  H4  <0> d          -2.115   1.540  -3.313  0.00  0.00     0.028 H 
ENDBRANCH   3   5
BRANCH   3   9
ATOM      9  C3  <0> d          -2.929   3.267  -1.367  0.00  0.00    -0.070 C 
ATOM     10  H6  <0> d          -2.771   4.131  -0.721  0.00  0.00     0.028 H 
ATOM     11  H7  <0> d          -3.164   3.606  -2.376  0.00  0.00     0.028 H 
ATOM     12  H8  <0> d          -3.757   2.672  -0.982  0.00  0.00     0.028 H 
ENDBRANCH   3   9
ENDBRANCH   1   3
BRANCH   1  13
ATOM     13  C5  <0> d          -0.014   1.203   0.009  0.00  0.00     0.159 C 
ATOM     14  O1  <0> d           0.002  -0.004   0.002  0.00  0.00    -0.295 OA
BRANCH  13  15
ATOM     15  C6  <0> d           1.280   1.975   0.000  0.00  0.00    -0.001 C 
ATOM     16  H9  <0> d           1.144   2.849  -0.465  0.00  0.00     0.050 H 
BRANCH  15  17
ATOM     17  C7  <0> d           1.732   2.228   1.440  0.00  0.00    -0.067 C 
ATOM     18  H10 <0> d           1.881   1.274   1.947  0.00  0.00     0.028 H 
ATOM     19  H11 <0> d           2.669   2.786   1.434  0.00  0.00     0.028 H 
ATOM     20  H12 <0> d           0.970   2.804   1.964  0.00  0.00     0.028 H 
ENDBRANCH  15  17
BRANCH  15  21
ATOM     21  C8  <0> d           2.351   1.166  -0.735  0.00  0.00    -0.067 C 
ATOM     22  H13 <0> d           2.029   0.986  -1.761  0.00  0.00     0.028 H 
ATOM     23  H14 <0> d           3.287   1.724  -0.741  0.00  0.00     0.028 H 
ATOM     24  H15 <0> d           2.499   0.213  -0.228  0.00  0.00     0.028 H 
ENDBRANCH  15  21
ENDBRANCH  13  15
ENDBRANCH   1  13
BRANCH   1  25
ATOM     25  O2  <0> d          -2.361   1.064   0.480  0.00  0.00    -0.388 OA
ATOM     26  H16 <0> d          -2.480   0.275  -0.066  0.00  0.00     0.210 HD
ENDBRANCH   1  25
TORSDOF 8
