REMARK  4 active torsions:
REMARK  status: ('A' for Active; 'I' for Inactive)
REMARK    1  A    between atoms: C1_1  and  C2_2 
REMARK    2  A    between atoms: C5_5  and  C9_10 
REMARK    3  A    between atoms: C6_6  and  S1_8 
REMARK    4  A    between atoms: S1_8  and  C8_9 
ROOT
ATOM      1  C2  <0> d          -1.243   3.133   0.031  0.00  0.00    -0.061 A 
ATOM      2  C3  <0> d          -1.220   1.750   0.017  0.00  0.00    -0.077 A 
ATOM      3  C4  <0> d          -0.013   1.076   0.008  0.00  0.00    -0.075 A 
ATOM      4  C5  <0> d           1.174   1.782   0.000  0.00  0.00    -0.045 A 
ATOM      5  C6  <0> d           1.155   3.171   0.008  0.00  0.00     0.006 A 
ATOM      6  C7  <0> d          -0.061   3.845   0.023  0.00  0.00    -0.060 A 
ATOM      7  H4  <0> d          -2.147   1.195   0.019  0.00  0.00     0.084 H 
ATOM      8  H5  <0> d           0.002  -0.004   0.002  0.00  0.00     0.084 H 
ATOM      9  H6  <0> d          -0.080   4.925   0.029  0.00  0.00     0.086 H 
ENDROOT
BRANCH   5  10
ATOM     10  S1  <0> d           2.666   4.076  -0.001  0.00  0.00    -0.134 SA
BRANCH  10  11
ATOM     11  C8  <0> d           2.139   5.812   0.013  0.00  0.00    -0.030 C 
ATOM     12  H7  <0> d           1.534   6.015  -0.870  0.00  0.00     0.042 H 
ATOM     13  H8  <0> d           1.550   6.005   0.910  0.00  0.00     0.042 H 
ATOM     14  H9  <0> d           3.017   6.458   0.009  0.00  0.00     0.042 H 
ENDBRANCH  10  11
ENDBRANCH   5  10
BRANCH   4  15
ATOM     15  C9  <0> d           2.490   1.046  -0.017  0.00  0.00    -0.050 C 
ATOM     16  H10 <0> d           2.797   0.875  -1.048  0.00  0.00     0.033 H 
ATOM     17  H11 <0> d           3.246   1.643   0.493  0.00  0.00     0.033 H 
ATOM     18  H12 <0> d           2.377   0.089   0.493  0.00  0.00     0.033 H 
ENDBRANCH   4  15
BRANCH   1  19
ATOM     19  C1  <0> d          -2.562   3.863   0.047  0.00  0.00    -0.051 C 
ATOM     20  H1  <0> d          -2.889   4.044  -0.977  0.00  0.00     0.033 H 
ATOM     21  H2  <0> d          -3.306   3.258   0.565  0.00  0.00     0.033 H 
ATOM     22  H3  <0> d          -2.443   4.815   0.564  0.00  0.00     0.033 H 
ENDBRANCH   1  19
TORSDOF 4
