REMARK  2 active torsions:
REMARK  status: ('A' for Active; 'I' for Inactive)
REMARK    1  A    between atoms: C2_2  and  C5_9 
REMARK    2  A    between atoms: C5_9  and  O3_10 
ROOT
ATOM      1  C1  <0> d          -1.302   1.651   0.017  0.00  0.00     0.021 C 
ATOM      2  C2  <0> d          -1.118   3.099   0.482  0.00  0.00     0.074 C 
ATOM      3  H1  <0> d          -0.825   3.154   1.541  0.00  0.00     0.089 H 
ATOM      4  O1  <0> d          -0.048   3.686  -0.268  0.00  0.00    -0.373 OA
ATOM      5  C3  <0> d           1.229   3.126   0.049  0.00  0.00     0.093 C 
ATOM      6  C4  <0> d           1.154   1.625  -0.000  0.00  0.00     0.241 C 
ATOM      7  O2  <0> d           2.186   0.989  -0.048  0.00  0.00    -0.271 OA
ATOM      8  N1  <0> d          -0.011   0.966   0.007  0.00  0.00    -0.357 N 
ATOM      9  H2  <0> d          -1.727   1.646  -0.997  0.00  0.00     0.068 H 
ATOM     10  H3  <0> d          -1.986   1.132   0.705  0.00  0.00     0.068 H 
ATOM     11  H4  <0> d           1.974   3.477  -0.679  0.00  0.00     0.089 H 
ATOM     12  H5  <0> d           1.527   3.442   1.060  0.00  0.00     0.089 H 
ATOM     13  H6  <0> d           0.028  -0.134   0.006  0.00  0.00     0.162 HD
ENDROOT
BRANCH   2  14
ATOM     14  C5  <0> d          -2.408   3.883   0.236  0.00  0.00     0.042 C 
ATOM     15  H7  <0> d          -2.607   3.931  -0.845  0.00  0.00     0.077 H 
ATOM     16  H8  <0> d          -3.246   3.379   0.741  0.00  0.00     0.077 H 
BRANCH  14  17
ATOM     17  O3  <0> d          -2.267   5.207   0.755  0.00  0.00    -0.398 OA
ATOM     18  H9  <0> d          -3.098   5.923   0.670  0.00  0.00     0.209 HD
ENDBRANCH  14  17
ENDBRANCH   2  14
TORSDOF 2
