REMARK  10 active torsions:
REMARK  status: ('A' for Active; 'I' for Inactive)
REMARK    1  A    between atoms: C1_1  and  C2_2 
REMARK    2  A    between atoms: C2_2  and  C3_3 
REMARK    3  A    between atoms: C3_3  and  C4_5 
REMARK    4  A    between atoms: C3_3  and  C5_6 
REMARK    5  A    between atoms: C5_6  and  C6_7 
REMARK    6  A    between atoms: C6_7  and  C7_8 
REMARK    7  A    between atoms: C7_8  and  C8_9 
REMARK    8  A    between atoms: C7_8  and  C9_10 
REMARK    9  A    between atoms: C7_8  and  O1_12 
REMARK   10  A    between atoms: C9_10  and  C10_11 
ROOT
ATOM      1  C6  <0> d          -0.019   1.526   0.010  0.00  0.00    -0.036 C 
ATOM      2  H12 <0> d           1.004   1.903   0.003  0.00  0.00     0.037 H 
ATOM      3  H13 <0> d          -0.546   1.887  -0.873  0.00  0.00     0.037 H 
ENDROOT
BRANCH   1   4
ATOM      4  C5  <0> d          -0.735   2.019   1.269  0.00  0.00    -0.059 C 
ATOM      5  H10 <0> d          -1.757   1.642   1.277  0.00  0.00     0.033 H 
ATOM      6  H11 <0> d          -0.208   1.658   2.152  0.00  0.00     0.033 H 
BRANCH   4   7
ATOM      7  C3  <0> d          -0.756   3.549   1.278  0.00  0.00    -0.058 C 
ATOM      8  H1  <0> d          -1.204   3.911   0.352  0.00  0.00     0.039 H 
BRANCH   7   9
ATOM      9  C2  <0> d          -1.579   4.041   2.470  0.00  0.00    -0.065 C 
ATOM     10  H5  <0> d          -2.572   3.593   2.436  0.00  0.00     0.033 H 
ATOM     11  H6  <0> d          -1.082   3.755   3.397  0.00  0.00     0.033 H 
BRANCH   9  12
ATOM     12  C1  <0> d          -1.704   5.565   2.409  0.00  0.00    -0.076 C 
ATOM     13  H2  <0> d          -2.290   5.916   3.258  0.00  0.00     0.027 H 
ATOM     14  H3  <0> d          -0.711   6.013   2.443  0.00  0.00     0.027 H 
ATOM     15  H4  <0> d          -2.200   5.852   1.481  0.00  0.00     0.027 H 
ENDBRANCH   9  12
ENDBRANCH   7   9
BRANCH   7  16
ATOM     16  C4  <0> d           0.675   4.078   1.393  0.00  0.00    -0.073 C 
ATOM     17  H7  <0> d           0.661   5.168   1.399  0.00  0.00     0.028 H 
ATOM     18  H8  <0> d           1.124   3.716   2.318  0.00  0.00     0.028 H 
ATOM     19  H9  <0> d           1.262   3.727   0.543  0.00  0.00     0.028 H 
ENDBRANCH   7  16
ENDBRANCH   4   7
ENDBRANCH   1   4
BRANCH   1  20
ATOM     20  C7  <0> d           0.002  -0.004   0.002  0.00  0.00     0.054 C 
BRANCH  20  21
ATOM     21  C8  <0> d           0.631  -0.513   1.301  0.00  0.00    -0.048 C 
ATOM     22  H14 <0> d           0.045  -0.162   2.150  0.00  0.00     0.031 H 
ATOM     23  H15 <0> d           0.646  -1.603   1.295  0.00  0.00     0.031 H 
ATOM     24  H16 <0> d           1.651  -0.136   1.383  0.00  0.00     0.031 H 
ENDBRANCH  20  21
BRANCH  20  25
ATOM     25  C9  <0> d           0.825  -0.496  -1.190  0.00  0.00    -0.040 C 
ATOM     26  H17 <0> d           0.377  -0.134  -2.115  0.00  0.00     0.036 H 
ATOM     27  H18 <0> d           1.845  -0.120  -1.108  0.00  0.00     0.036 H 
BRANCH  25  28
ATOM     28  C10 <0> d           0.846  -2.026  -1.199  0.00  0.00    -0.074 C 
ATOM     29  H19 <0> d          -0.174  -2.403  -1.280  0.00  0.00     0.027 H 
ATOM     30  H20 <0> d           1.432  -2.377  -2.048  0.00  0.00     0.027 H 
ATOM     31  H21 <0> d           1.294  -2.389  -0.273  0.00  0.00     0.027 H 
ENDBRANCH  25  28
ENDBRANCH  20  25
BRANCH  20  32
ATOM     32  O1  <0> d          -1.335  -0.498  -0.105  0.00  0.00    -0.390 OA
ATOM     33  H22 <0> d          -1.796  -0.214  -0.907  0.00  0.00     0.210 HD
ENDBRANCH  20  32
ENDBRANCH   1  20
TORSDOF 10
