REMARK  3 active torsions:
REMARK  status: ('A' for Active; 'I' for Inactive)
REMARK    1  A    between atoms: C1_1  and  O1_2 
REMARK    2  A    between atoms: O1_2  and  C2_3 
REMARK    3  A    between atoms: C2_3  and  C3_5 
ROOT
ATOM      1  C3  <0> d          -1.329   1.940   0.019  0.00  0.00     0.116 C 
ATOM      2  H1  <0> d          -1.265   2.805  -0.640  0.00  0.00     0.091 H 
ATOM      3  C4  <0> d          -1.638   2.409   1.442  0.00  0.00     0.048 C 
ATOM      4  O3  <0> d          -2.991   2.879   1.487  0.00  0.00    -0.380 OA
ATOM      5  C5  <0> d          -3.951   1.833   1.321  0.00  0.00     0.093 C 
ATOM      6  C6  <0> d          -3.597   1.002   0.120  0.00  0.00     0.242 C 
ATOM      7  O4  <0> d          -4.436   0.261  -0.347  0.00  0.00    -0.271 OA
ATOM      8  N1  <0> d          -2.387   1.049  -0.452  0.00  0.00    -0.343 N 
ATOM      9  H5  <0> d          -1.518   1.577   2.136  0.00  0.00     0.078 H 
ATOM     10  H6  <0> d          -0.961   3.217   1.716  0.00  0.00     0.078 H 
ATOM     11  H7  <0> d          -4.941   2.269   1.181  0.00  0.00     0.089 H 
ATOM     12  H8  <0> d          -3.955   1.203   2.210  0.00  0.00     0.089 H 
ATOM     13  H9  <0> d          -2.206   0.469  -1.209  0.00  0.00     0.163 HD
ENDROOT
BRANCH   1  14
ATOM     14  C2  <0> d          -0.014   1.204   0.009  0.00  0.00     0.283 C 
ATOM     15  O2  <0> d           0.002  -0.004   0.002  0.00  0.00    -0.263 OA
BRANCH  14  16
ATOM     16  O1  <0> d           1.139   1.891   0.001  0.00  0.00    -0.325 OA
BRANCH  16  17
ATOM     17  C1  <0> d           2.367   1.117  -0.015  0.00  0.00     0.013 C 
ATOM     18  H2  <0> d           2.409   0.484   0.872  0.00  0.00     0.067 H 
ATOM     19  H3  <0> d           2.392   0.493  -0.908  0.00  0.00     0.067 H 
ATOM     20  H4  <0> d           3.223   1.792  -0.019  0.00  0.00     0.067 H 
ENDBRANCH  16  17
ENDBRANCH  14  16
ENDBRANCH   1  14
TORSDOF 3
