REMARK  3 active torsions:
REMARK  status: ('A' for Active; 'I' for Inactive)
REMARK    1  A    between atoms: C1_1  and  C2_2 
REMARK    2  A    between atoms: C5_6  and  O2_11 
REMARK    3  A    between atoms: C6_8  and  O1_10 
ROOT
ATOM      1  C2  <0> d          -0.825   1.630  -1.193  0.00  0.00    -0.030 C 
ATOM      2  H1  <0> d          -1.692   0.998  -1.385  0.00  0.00     0.043 H 
ATOM      3  C3  <0> d          -0.013   1.086   0.008  0.00  0.00    -0.057 C 
ATOM      4  C4  <0> d          -0.802   1.617   1.230  0.00  0.00    -0.038 C 
ATOM      5  C5  <0> d          -1.260   3.028   0.798  0.00  0.00     0.060 C 
ATOM      6  H2  <0> d          -0.559   3.775   1.170  0.00  0.00     0.086 H 
ATOM      7  C6  <0> d          -1.272   3.036  -0.741  0.00  0.00     0.063 C 
ATOM      8  H3  <0> d          -2.278   3.244  -1.106  0.00  0.00     0.087 H 
ATOM      9  H7  <0> d           0.002  -0.004   0.002  0.00  0.00     0.033 H 
ATOM     10  H8  <0> d           1.002   1.484   0.001  0.00  0.00     0.033 H 
ATOM     11  H9  <0> d          -1.665   0.983   1.432  0.00  0.00     0.036 H 
ATOM     12  H10 <0> d          -0.156   1.674   2.106  0.00  0.00     0.036 H 
ENDROOT
BRANCH   1  13
ATOM     13  C1  <0> d           0.057   1.721  -2.440  0.00  0.00    -0.070 C 
ATOM     14  H4  <0> d           0.415   0.726  -2.704  0.00  0.00     0.028 H 
ATOM     15  H5  <0> d          -0.524   2.129  -3.267  0.00  0.00     0.028 H 
ATOM     16  H6  <0> d           0.907   2.371  -2.236  0.00  0.00     0.028 H 
ENDBRANCH   1  13
BRANCH   7  17
ATOM     17  O1  <0> d          -0.360   4.021  -1.232  0.00  0.00    -0.393 OA
ATOM     18  H11 <0> d          -0.587   4.927  -0.982  0.00  0.00     0.210 HD
ENDBRANCH   7  17
BRANCH   5  19
ATOM     19  O2  <0> d          -2.571   3.295   1.299  0.00  0.00    -0.393 OA
ATOM     20  H12 <0> d          -2.629   3.304   2.264  0.00  0.00     0.210 HD
ENDBRANCH   5  19
TORSDOF 3
