REMARK  1 active torsions:
REMARK  status: ('A' for Active; 'I' for Inactive)
REMARK    1  A    between atoms: C1_1  and  C2_2 
ROOT
ATOM      1  C2  <0> d           1.153   3.172   0.008  0.00  0.00    -0.060 A 
ATOM      2  C3  <0> d           1.169   1.784   0.001  0.00  0.00    -0.076 A 
ATOM      3  C4  <0> d          -0.013   1.076   0.008  0.00  0.00    -0.069 A 
ATOM      4  C5  <0> d          -1.226   1.759   0.017  0.00  0.00     0.013 A 
ATOM      5  C6  <0> d          -1.244   3.163   0.030  0.00  0.00     0.044 A 
ATOM      6  C7  <0> d          -0.040   3.860   0.023  0.00  0.00    -0.051 A 
ATOM      7  N1  <0> d          -2.564   3.561   0.045  0.00  0.00    -0.364 N 
ATOM      8  H1  <0> d          -2.816   4.631   0.053  0.00  0.00     0.165 HD
ATOM      9  C8  <0> d          -3.384   2.478   0.047  0.00  0.00    -0.002 A 
ATOM     10  C9  <0> d          -2.639   1.337   0.033  0.00  0.00     0.072 A 
ATOM     11  C10 <0> d          -3.131  -0.007   0.031  0.00  0.00     0.102 C 
ATOM     12  N2  <0> d          -3.522  -1.074   0.029  0.00  0.00    -0.191 NA
ATOM     13  H5  <0> d           2.111   1.257  -0.011  0.00  0.00     0.084 H 
ATOM     14  H6  <0> d           0.002  -0.004   0.002  0.00  0.00     0.085 H 
ATOM     15  H7  <0> d          -0.040   4.940   0.028  0.00  0.00     0.087 H 
ATOM     16  H8  <0> d          -4.463   2.516   0.057  0.00  0.00     0.113 H 
ENDROOT
BRANCH   1  17
ATOM     17  C1  <0> d           2.454   3.932   0.001  0.00  0.00    -0.051 C 
ATOM     18  H2  <0> d           3.294   3.222  -0.011  0.00  0.00     0.033 H 
ATOM     19  H3  <0> d           2.517   4.560   0.902  0.00  0.00     0.033 H 
ATOM     20  H4  <0> d           2.501   4.570  -0.894  0.00  0.00     0.033 H 
ENDBRANCH   1  17
TORSDOF 1
