REMARK  6 active torsions:
REMARK  status: ('A' for Active; 'I' for Inactive)
REMARK    1  A    between atoms: C1_1  and  O1_2 
REMARK    2  A    between atoms: O1_2  and  C2_3 
REMARK    3  A    between atoms: C2_3  and  C3_5 
REMARK    4  A    between atoms: C4_6  and  C5_7 
REMARK    5  A    between atoms: C5_7  and  O4_9 
REMARK    6  A    between atoms: O4_9  and  C6_10 
ROOT
ATOM      1  C3  <0> d           0.657  -2.031  -1.120  0.00  0.00     0.013 C 
ATOM      2  C4  <0> d           0.703  -3.203  -1.180  0.00  0.00     0.013 C 
ENDROOT
BRANCH   1   3
ATOM      3  C2  <0> d           0.601  -0.602  -1.047  0.00  0.00     0.339 C 
ATOM      4  O2  <0> d           1.093   0.071  -1.930  0.00  0.00    -0.249 OA
BRANCH   3   5
ATOM      5  O1  <0> d           0.002  -0.004   0.002  0.00  0.00    -0.316 OA
BRANCH   5   6
ATOM      6  C1  <0> d          -0.017   1.425   0.010  0.00  0.00     0.014 C 
ATOM      7  H1  <0> d           1.005   1.802   0.002  0.00  0.00     0.067 H 
ATOM      8  H2  <0> d          -0.544   1.786  -0.873  0.00  0.00     0.067 H 
ATOM      9  H3  <0> d          -0.527   1.776   0.907  0.00  0.00     0.067 H 
ENDBRANCH   5   6
ENDBRANCH   3   5
ENDBRANCH   1   3
BRANCH   2  10
ATOM     10  C5  <0> d           0.759  -4.632  -1.253  0.00  0.00     0.339 C 
ATOM     11  O3  <0> d           1.299  -5.170  -2.198  0.00  0.00    -0.249 OA
BRANCH  10  12
ATOM     12  O4  <0> d           0.214  -5.378  -0.273  0.00  0.00    -0.316 OA
BRANCH  12  13
ATOM     13  C6  <0> d           0.306  -6.798  -0.411  0.00  0.00     0.014 C 
ATOM     14  H4  <0> d          -0.195  -7.107  -1.328  0.00  0.00     0.067 H 
ATOM     15  H5  <0> d           1.355  -7.091  -0.453  0.00  0.00     0.067 H 
ATOM     16  H6  <0> d          -0.171  -7.278   0.443  0.00  0.00     0.067 H 
ENDBRANCH  12  13
ENDBRANCH  10  12
ENDBRANCH   2  10
TORSDOF 6
