REMARK  2 active torsions:
REMARK  status: ('A' for Active; 'I' for Inactive)
REMARK    1  A    between atoms: C1_1  and  C2_2 
REMARK    2  A    between atoms: C2_2  and  N1_3 
ROOT
ATOM      1  N1  <0> d           0.688  -0.476  -1.203  0.00  0.00    -0.278 N 
ATOM      2  C3  <0> d           2.043  -0.685  -1.178  0.00  0.00     0.190 A 
ATOM      3  C4  <0> d           2.675  -1.125  -2.304  0.00  0.00     0.035 A 
ATOM      4  C5  <0> d           1.919  -1.355  -3.467  0.00  0.00     0.253 A 
ATOM      5  N2  <0> d           0.589  -1.137  -3.448  0.00  0.00    -0.275 N 
ATOM      6  C6  <0> d          -0.017  -0.708  -2.326  0.00  0.00     0.331 A 
ATOM      7  O1  <0> d          -1.219  -0.522  -2.328  0.00  0.00    -0.246 OA
ATOM      8  O2  <0> d           2.462  -1.748  -4.484  0.00  0.00    -0.268 OA
ATOM      9  O3  <0> d           2.746  -0.457  -0.049  0.00  0.00    -0.172 OA
ATOM     10  H6  <0> d           3.742  -1.294  -2.302  0.00  0.00     0.099 H 
ATOM     11  H7  <0> d           0.064  -1.294  -4.249  0.00  0.00     0.173 HD
ENDROOT
BRANCH   1  12
ATOM     12  C2  <0> d           0.002  -0.004   0.002  0.00  0.00     0.003 C 
ATOM     13  H4  <0> d           0.529  -0.365   0.885  0.00  0.00     0.064 H 
ATOM     14  H5  <0> d          -1.020  -0.381   0.010  0.00  0.00     0.064 H 
BRANCH  12  15
ATOM     15  C1  <0> d          -0.019   1.526   0.010  0.00  0.00    -0.060 C 
ATOM     16  H1  <0> d           1.004   1.903   0.003  0.00  0.00     0.029 H 
ATOM     17  H2  <0> d          -0.546   1.887  -0.873  0.00  0.00     0.029 H 
ATOM     18  H3  <0> d          -0.529   1.877   0.907  0.00  0.00     0.029 H 
ENDBRANCH  12  15
ENDBRANCH   1  12
TORSDOF 2
