REMARK  4 active torsions:
REMARK  status: ('A' for Active; 'I' for Inactive)
REMARK    1  A    between atoms: C2_2  and  C3_3 
REMARK    2  A    between atoms: C4_4  and  C5_5 
REMARK    3  A    between atoms: C5_5  and  C6_6 
REMARK    4  A    between atoms: C6_6  and  C7_7 
ROOT
ATOM      1  C1  <0> d           3.403   0.484  -0.028  0.00  0.00    -0.150 C 
ATOM      2  C2  <0> d           2.379   1.057  -0.015  0.00  0.00    -0.090 C 
ATOM      3  H1  <0> d           4.319  -0.029  -0.039  0.00  0.00     0.166 H 
ENDROOT
BRANCH   2   4
ATOM      4  C3  <0> d           1.129   1.756   0.001  0.00  0.00    -0.037 C 
ATOM      5  C4  <0> d          -0.013   1.076   0.008  0.00  0.00    -0.095 C 
ATOM      6  H3  <0> d           0.002  -0.004   0.002  0.00  0.00     0.077 H 
ATOM      7  H2  <0> d           1.114   2.836   0.007  0.00  0.00     0.097 H 
BRANCH   5   8
ATOM      8  C5  <0> d          -1.328   1.812   0.018  0.00  0.00    -0.040 C 
ATOM      9  H4  <0> d          -1.853   1.605   0.951  0.00  0.00     0.039 H 
ATOM     10  H5  <0> d          -1.145   2.883  -0.066  0.00  0.00     0.039 H 
BRANCH   8  11
ATOM     11  C6  <0> d          -2.182   1.345  -1.162  0.00  0.00     0.019 C 
ATOM     12  H6  <0> d          -1.658   1.552  -2.095  0.00  0.00     0.049 H 
ATOM     13  H7  <0> d          -2.365   0.274  -1.077  0.00  0.00     0.049 H 
BRANCH  11  14
ATOM     14  C7  <0> d          -3.498   2.080  -1.152  0.00  0.00     0.172 C 
ATOM     15  O1  <0> d          -3.728   2.894  -0.289  0.00  0.00    -0.648 OA
ATOM     16  O2  <0> d          -4.413   1.831  -2.101  0.00  0.00    -0.648 OA
ENDBRANCH  11  14
ENDBRANCH   8  11
ENDBRANCH   5   8
ENDBRANCH   2   4
TORSDOF 4
