REMARK  1 active torsions:
REMARK  status: ('A' for Active; 'I' for Inactive)
REMARK    1  A    between atoms: C1_1  and  C2_2 
ROOT
ATOM      1  C2  <0> d           0.002  -0.004   0.002  0.00  0.00    -0.044 C 
ATOM      2  C3  <0> d           0.718  -0.497  -1.257  0.00  0.00    -0.057 C 
ATOM      3  C4  <0> d           0.739  -2.027  -1.265  0.00  0.00    -0.045 C 
ATOM      4  C5  <0> d           0.037  -2.554  -0.012  0.00  0.00     0.037 C 
ATOM      5  C6  <0> d           0.763  -2.041   1.233  0.00  0.00    -0.045 C 
ATOM      6  C7  <0> d           0.742  -0.511   1.242  0.00  0.00    -0.057 C 
ATOM      7  C8  <0> d          -1.413  -2.063   0.004  0.00  0.00    -0.045 C 
ATOM      8  C9  <0> d          -1.433  -0.534   0.013  0.00  0.00    -0.057 C 
ATOM      9 Cl1  <0> d           0.061  -4.357  -0.022  0.00  0.00    -0.119 Cl
ATOM     10  H4  <0> d           0.191  -0.136  -2.140  0.00  0.00     0.034 H 
ATOM     11  H5  <0> d           1.741  -0.120  -1.264  0.00  0.00     0.034 H 
ATOM     12  H6  <0> d           0.222  -2.393  -2.152  0.00  0.00     0.035 H 
ATOM     13  H7  <0> d           1.771  -2.377  -1.277  0.00  0.00     0.035 H 
ATOM     14  H8  <0> d           0.263  -2.416   2.126  0.00  0.00     0.035 H 
ATOM     15  H9  <0> d           1.795  -2.390   1.221  0.00  0.00     0.035 H 
ATOM     16  H10 <0> d           1.765  -0.134   1.234  0.00  0.00     0.034 H 
ATOM     17  H11 <0> d           0.232  -0.159   2.138  0.00  0.00     0.034 H 
ATOM     18  H12 <0> d          -1.930  -2.429  -0.883  0.00  0.00     0.035 H 
ATOM     19  H13 <0> d          -1.913  -2.439   0.897  0.00  0.00     0.035 H 
ATOM     20  H14 <0> d          -1.944  -0.182   0.910  0.00  0.00     0.034 H 
ATOM     21  H15 <0> d          -1.960  -0.173  -0.870  0.00  0.00     0.034 H 
ENDROOT
BRANCH   1  22
ATOM     22  C1  <0> d          -0.019   1.526   0.010  0.00  0.00    -0.069 C 
ATOM     23  H1  <0> d           1.004   1.903   0.003  0.00  0.00     0.028 H 
ATOM     24  H2  <0> d          -0.546   1.887  -0.873  0.00  0.00     0.028 H 
ATOM     25  H3  <0> d          -0.529   1.877   0.907  0.00  0.00     0.028 H 
ENDBRANCH   1  22
TORSDOF 1
