REMARK  2 active torsions:
REMARK  status: ('A' for Active; 'I' for Inactive)
REMARK    1  A    between atoms: C1_1  and  O1_2 
REMARK    2  A    between atoms: O1_2  and  C2_3 
ROOT
ATOM      1  C2  <0> d           0.673  -0.582   1.123  0.00  0.00     0.114 C 
ATOM      2  H1  <0> d           0.574   0.078   1.985  0.00  0.00     0.098 H 
ATOM      3  C3  <0> d           0.045  -1.940   1.447  0.00  0.00    -0.031 C 
ATOM      4  C4  <0> d           0.943  -2.660   2.460  0.00  0.00    -0.048 C 
ATOM      5  C5  <0> d           2.264  -3.017   1.777  0.00  0.00    -0.005 C 
ATOM      6  N1  <0> d           2.829  -1.847   1.117  0.00  0.00    -0.359 N 
ATOM      7  C6  <0> d           2.128  -0.760   0.796  0.00  0.00     0.246 C 
ATOM      8  O2  <0> d           2.698   0.136   0.209  0.00  0.00    -0.271 OA
ATOM      9  H5  <0> d          -0.947  -1.792   1.875  0.00  0.00     0.037 H 
ATOM     10  H6  <0> d          -0.033  -2.535   0.537  0.00  0.00     0.037 H 
ATOM     11  H7  <0> d           1.136  -2.004   3.309  0.00  0.00     0.035 H 
ATOM     12  H8  <0> d           0.451  -3.571   2.803  0.00  0.00     0.035 H 
ATOM     13  H9  <0> d           2.968  -3.385   2.524  0.00  0.00     0.064 H 
ATOM     14  H10 <0> d           2.087  -3.798   1.038  0.00  0.00     0.064 H 
ATOM     15  H11 <0> d           3.773  -1.862   0.896  0.00  0.00     0.162 HD
ENDROOT
BRANCH   1  16
ATOM     16  O1  <0> d           0.002  -0.004   0.002  0.00  0.00    -0.381 OA
BRANCH  16  17
ATOM     17  C1  <0> d          -0.017   1.425   0.010  0.00  0.00     0.005 C 
ATOM     18  H2  <0> d           1.005   1.802   0.002  0.00  0.00     0.066 H 
ATOM     19  H3  <0> d          -0.544   1.786  -0.873  0.00  0.00     0.066 H 
ATOM     20  H4  <0> d          -0.527   1.776   0.907  0.00  0.00     0.066 H 
ENDBRANCH  16  17
ENDBRANCH   1  16
TORSDOF 2
