REMARK  1 active torsions:
REMARK  status: ('A' for Active; 'I' for Inactive)
REMARK    1  A    between atoms: C6_10  and  O1_13 
ROOT
ATOM      1  C1  <0> d          -0.019   1.529   0.010  0.00  0.00    -0.062 C 
ATOM      2  C2  <0> d           1.424   2.036  -0.001  0.00  0.00    -0.056 C 
ATOM      3  C3  <0> d           2.207   1.419   1.156  0.00  0.00     0.021 A 
ATOM      4  H1  <0> d           2.725   2.129   1.801  0.00  0.00     0.050 H 
ATOM      5  C4  <0> d           1.755   0.110   1.784  0.00  0.00     0.043 A 
ATOM      6  H2  <0> d           1.980  -0.014   2.843  0.00  0.00     0.053 H 
ATOM      7  C5  <0> d           2.922   0.092   0.855  0.00  0.00     0.254 A 
ATOM      8  F1  <0> d           4.191  -0.099   1.411  0.00  0.00    -0.205 F 
ATOM      9  F2  <0> d           2.721  -0.478  -0.407  0.00  0.00    -0.205 F 
ATOM     10  C6  <0> d           0.458  -0.543   1.331  0.00  0.00     0.045 C 
ATOM     11  H3  <0> d          -0.335  -0.294   2.036  0.00  0.00     0.083 H 
ATOM     12  C7  <0> d           0.002  -0.004   0.002  0.00  0.00    -0.041 C 
ATOM     13  H4  <0> d          -0.524   1.883   0.909  0.00  0.00     0.033 H 
ATOM     14  H5  <0> d          -0.541   1.893  -0.874  0.00  0.00     0.033 H 
ATOM     15  H6  <0> d           1.896   1.761  -0.944  0.00  0.00     0.033 H 
ATOM     16  H7  <0> d           1.426   3.121   0.100  0.00  0.00     0.033 H 
ATOM     17  H8  <0> d          -0.991  -0.382  -0.242  0.00  0.00     0.036 H 
ATOM     18  H9  <0> d           0.722  -0.356  -0.736  0.00  0.00     0.036 H 
ENDROOT
BRANCH  10  19
ATOM     19  O1  <0> d           0.631  -1.961   1.297  0.00  0.00    -0.395 OA
ATOM     20  H10 <0> d          -0.157  -2.447   1.017  0.00  0.00     0.210 HD
ENDBRANCH  10  19
TORSDOF 1
