REMARK  4 active torsions:
REMARK  status: ('A' for Active; 'I' for Inactive)
REMARK    1  A    between atoms: C1_1  and  C2_2 
REMARK    2  A    between atoms: C2_2  and  C3_3 
REMARK    3  A    between atoms: C2_2  and  C4_4 
REMARK    4  A    between atoms: C5_5  and  N3_9 
ROOT
ATOM      1  C2  <0> d          -2.831  -0.452   0.012  0.00  0.00    -0.013 C 
ATOM      2  H4  <0> d          -1.873  -0.993   0.004  0.00  0.00     0.048 H 
ENDROOT
BRANCH   1   3
ATOM      3  C1  <0> d          -3.629  -0.826   1.263  0.00  0.00    -0.068 C 
ATOM      4  H1  <0> d          -3.046  -0.568   2.160  0.00  0.00     0.028 H 
ATOM      5  H2  <0> d          -3.834  -1.907   1.258  0.00  0.00     0.028 H 
ATOM      6  H3  <0> d          -4.579  -0.272   1.271  0.00  0.00     0.028 H 
ENDBRANCH   1   3
BRANCH   1   7
ATOM      7  C3  <0> d          -3.641  -0.811  -1.235  0.00  0.00    -0.068 C 
ATOM      8  H5  <0> d          -3.068  -0.542  -2.135  0.00  0.00     0.028 H 
ATOM      9  H6  <0> d          -4.592  -0.257  -1.227  0.00  0.00     0.028 H 
ATOM     10  H7  <0> d          -3.847  -1.891  -1.241  0.00  0.00     0.028 H 
ENDBRANCH   1   7
BRANCH   1  11
ATOM     11  C4  <0> d          -2.549   1.028   0.020  0.00  0.00     0.115 A 
ATOM     12  N2  <0> d          -3.443   1.970   0.030  0.00  0.00    -0.105 NA
ATOM     13  O1  <0> d          -2.765   3.215   0.033  0.00  0.00    -0.105 OA
ATOM     14  N1  <0> d          -1.375   2.942   0.030  0.00  0.00    -0.085 NA
ATOM     15  C5  <0> d          -1.225   1.645   0.017  0.00  0.00     0.178 A 
BRANCH  15  16
ATOM     16  N3  <0> d          -0.011   0.966   0.007  0.00  0.00    -0.380 N 
ATOM     17  H8  <0> d           0.934   1.529   0.006  0.00  0.00     0.157 HD
ATOM     18  H9  <0> d           0.004  -0.134   0.001  0.00  0.00     0.157 HD
ENDBRANCH  15  16
ENDBRANCH   1  11
TORSDOF 4
