REMARK  6 active torsions:
REMARK  status: ('A' for Active; 'I' for Inactive)
REMARK    1  A    between atoms: C1_1  and  C2_2 
REMARK    2  A    between atoms: C2_2  and  C3_3 
REMARK    3  A    between atoms: C2_2  and  C4_4 
REMARK    4  A    between atoms: C4_4  and  C5_5 
REMARK    5  A    between atoms: C4_4  and  C6_6 
REMARK    6  A    between atoms: C4_4  and  C7_7 
REMARK       I    between atoms: C7_7  and  N1_9 
ROOT
ATOM      1  C4  <0> d          -1.208   3.131   0.025  0.00  0.00     0.036 C 
ENDROOT
BRANCH   1   2
ATOM      2  C2  <0> d          -2.657   3.621   0.034  0.00  0.00    -0.046 C 
ATOM      3  H4  <0> d          -3.170   3.256  -0.855  0.00  0.00     0.040 H 
BRANCH   2   4
ATOM      4  C1  <0> d          -3.365   3.094   1.284  0.00  0.00    -0.072 C 
ATOM      5  H1  <0> d          -3.351   2.005   1.278  0.00  0.00     0.028 H 
ATOM      6  H2  <0> d          -2.852   3.460   2.174  0.00  0.00     0.028 H 
ATOM      7  H3  <0> d          -4.398   3.444   1.291  0.00  0.00     0.028 H 
ENDBRANCH   2   4
BRANCH   2   8
ATOM      8  C3  <0> d          -2.678   5.151   0.043  0.00  0.00    -0.072 C 
ATOM      9  H5  <0> d          -2.173   5.526  -0.848  0.00  0.00     0.028 H 
ATOM     10  H6  <0> d          -3.710   5.500   0.050  0.00  0.00     0.028 H 
ATOM     11  H7  <0> d          -2.165   5.516   0.932  0.00  0.00     0.028 H 
ENDBRANCH   2   8
ENDBRANCH   1   2
BRANCH   1  12
ATOM     12  C5  <0> d          -0.488   3.644   1.273  0.00  0.00    -0.061 C 
ATOM     13  H8  <0> d           0.545   3.294   1.267  0.00  0.00     0.029 H 
ATOM     14  H9  <0> d          -0.502   4.734   1.279  0.00  0.00     0.029 H 
ATOM     15  H10 <0> d          -0.992   3.268   2.164  0.00  0.00     0.029 H 
ENDBRANCH   1  12
BRANCH   1  16
ATOM     16  C6  <0> d          -0.499   3.657  -1.225  0.00  0.00    -0.061 C 
ATOM     17  H11 <0> d          -1.012   3.292  -2.115  0.00  0.00     0.029 H 
ATOM     18  H12 <0> d          -0.514   4.747  -1.219  0.00  0.00     0.029 H 
ATOM     19  H13 <0> d           0.533   3.308  -1.232  0.00  0.00     0.029 H 
ENDBRANCH   1  16
BRANCH   1  20
ATOM     20  C7  <0> d          -1.187   1.624   0.017  0.00  0.00     0.223 C 
ATOM     21  O1  <0> d          -2.229   1.003   0.018  0.00  0.00    -0.273 OA
ATOM     22  N1  <0> d          -0.011   0.966   0.007  0.00  0.00    -0.369 N 
ATOM     23  H14 <0> d           0.002  -0.004   0.002  0.00  0.00     0.159 HD
ATOM     24  H15 <0> d           0.822   1.462   0.002  0.00  0.00     0.159 HD
ENDBRANCH   1  20
TORSDOF 6
