REMARK  1 active torsions:
REMARK  status: ('A' for Active; 'I' for Inactive)
REMARK    1  A    between atoms: C1_1  and  C2_2 
ROOT
ATOM      1  C2  <0> d          -0.078   3.934   0.024  0.00  0.00     0.062 A 
ATOM      2  C3  <0> d           1.149   3.239   0.008  0.00  0.00     0.259 A 
ATOM      3  O1  <0> d           2.202   3.852   0.001  0.00  0.00    -0.267 OA
ATOM      4  N1  <0> d           1.147   1.891   0.001  0.00  0.00    -0.275 N 
ATOM      5  H1  <0> d           2.014   1.393  -0.009  0.00  0.00     0.173 HD
ATOM      6  C4  <0> d          -0.014   1.212   0.009  0.00  0.00     0.329 A 
ATOM      7  O2  <0> d           0.002  -0.004   0.002  0.00  0.00    -0.247 OA
ATOM      8  N2  <0> d          -1.194   1.859   0.018  0.00  0.00    -0.284 N 
ATOM      9  H2  <0> d          -2.047   1.336   0.015  0.00  0.00     0.173 HD
ATOM     10  C5  <0> d          -1.237   3.228   0.031  0.00  0.00     0.203 A 
ATOM     11  F1  <0> d          -2.425   3.871   0.046  0.00  0.00    -0.185 F 
ENDROOT
BRANCH   1  12
ATOM     12  C1  <0> d          -0.102   5.441   0.032  0.00  0.00    -0.042 C 
ATOM     13  H3  <0> d          -0.118   5.810  -0.994  0.00  0.00     0.034 H 
ATOM     14  H4  <0> d          -0.993   5.787   0.556  0.00  0.00     0.034 H 
ATOM     15  H5  <0> d           0.786   5.816   0.539  0.00  0.00     0.034 H 
ENDBRANCH   1  12
TORSDOF 1
