REMARK  3 active torsions:
REMARK  status: ('A' for Active; 'I' for Inactive)
REMARK    1  A    between atoms: C1_1  and  N1_2 
REMARK    2  A    between atoms: N1_2  and  C2_3 
REMARK    3  A    between atoms: N2_7  and  C6_12 
ROOT
ATOM      1  C2  <0> d           1.160   2.163   0.003  0.00  0.00     0.109 A 
ATOM      2  C3  <0> d           1.149   3.530   0.010  0.00  0.00     0.025 A 
ATOM      3  C4  <0> d           2.370   4.222   0.002  0.00  0.00     0.254 A 
ATOM      4  O1  <0> d           2.384   5.441   0.009  0.00  0.00    -0.268 OA
ATOM      5  N2  <0> d           3.527   3.530  -0.013  0.00  0.00    -0.271 N 
ATOM      6  C5  <0> d           3.520   2.185  -0.020  0.00  0.00     0.330 A 
ATOM      7  O2  <0> d           4.575   1.581  -0.034  0.00  0.00    -0.246 OA
ATOM      8  N3  <0> d           2.363   1.498  -0.007  0.00  0.00    -0.294 N 
ATOM      9  H1  <0> d           2.378   0.528  -0.008  0.00  0.00     0.172 HD
ATOM     10  H6  <0> d           0.214   4.069   0.022  0.00  0.00     0.098 H 
ENDROOT
BRANCH   1  11
ATOM     11  N1  <0> d          -0.018   1.461   0.010  0.00  0.00    -0.380 N 
ATOM     12  H5  <0> d          -0.864   1.934   0.017  0.00  0.00     0.160 HD
BRANCH  11  13
ATOM     13  C1  <0> d           0.002  -0.004   0.002  0.00  0.00    -0.020 C 
ATOM     14  H2  <0> d          -1.020  -0.381   0.010  0.00  0.00     0.056 H 
ATOM     15  H3  <0> d           0.512  -0.356  -0.895  0.00  0.00     0.056 H 
ATOM     16  H4  <0> d           0.529  -0.365   0.885  0.00  0.00     0.056 H 
ENDBRANCH  11  13
ENDBRANCH   1  11
BRANCH   5  17
ATOM     17  C6  <0> d           4.803   4.250  -0.021  0.00  0.00    -0.007 C 
ATOM     18  H7  <0> d           5.129   4.423   1.004  0.00  0.00     0.057 H 
ATOM     19  H8  <0> d           5.551   3.656  -0.545  0.00  0.00     0.057 H 
ATOM     20  H9  <0> d           4.677   5.207  -0.529  0.00  0.00     0.057 H 
ENDBRANCH   5  17
TORSDOF 3
