REMARK  0 active torsions:
REMARK  status: ('A' for Active; 'I' for Inactive)
ROOT
ATOM      1  C1  <0> d          -0.741   1.587  -1.237  0.00  0.00    -0.061 C 
ATOM      2  C2  <0> d          -0.929   3.103  -1.112  0.00  0.00    -0.060 C 
ATOM      3  C3  <0> d          -1.972   3.373  -0.030  0.00  0.00    -0.024 C 
ATOM      4  C4  <0> d          -1.619   2.642   1.240  0.00  0.00     0.044 A 
ATOM      5  N1  <0> d          -2.199   3.045   2.352  0.00  0.00    -0.218 NA
ATOM      6  C5  <0> d          -1.983   2.481   3.532  0.00  0.00     0.246 A 
ATOM      7  O1  <0> d          -2.560   2.923   4.505  0.00  0.00    -0.271 OA
ATOM      8  C6  <0> d          -1.052   1.319   3.708  0.00  0.00     0.027 A 
ATOM      9  C7  <0> d          -0.428   0.931   2.403  0.00  0.00    -0.086 A 
ATOM     10  C8  <0> d          -0.709   1.567   1.257  0.00  0.00    -0.037 A 
ATOM     11  C9  <0> d          -0.013   1.086   0.008  0.00  0.00    -0.039 C 
ATOM     12  H1  <0> d          -0.142   1.355  -2.130  0.00  0.00     0.033 H 
ATOM     13  H2  <0> d          -1.720   1.091  -1.313  0.00  0.00     0.033 H 
ATOM     14  H3  <0> d           0.028   3.570  -0.837  0.00  0.00     0.033 H 
ATOM     15  H4  <0> d          -1.273   3.510  -2.075  0.00  0.00     0.033 H 
ATOM     16  H5  <0> d          -2.012   4.452   0.178  0.00  0.00     0.042 H 
ATOM     17  H6  <0> d          -2.958   3.030  -0.377  0.00  0.00     0.042 H 
ATOM     18  H7  <0> d          -0.254   1.592   4.415  0.00  0.00     0.053 H 
ATOM     19  H8  <0> d          -1.611   0.458   4.103  0.00  0.00     0.053 H 
ATOM     20  H9  <0> d           0.283   0.092   2.407  0.00  0.00     0.078 H 
ATOM     21  H10 <0> d           0.000  -0.014   0.008  0.00  0.00     0.040 H 
ATOM     22  H11 <0> d           1.020   1.465   0.006  0.00  0.00     0.040 H 
ENDROOT
TORSDOF 0
