REMARK  4 active torsions:
REMARK  status: ('A' for Active; 'I' for Inactive)
REMARK    1  A    between atoms: C1_1  and  C2_2 
REMARK    2  A    between atoms: C2_2  and  C3_3 
REMARK    3  A    between atoms: C3_3  and  C4_5 
REMARK    4  A    between atoms: C3_3  and  N1_6 
ROOT
ATOM      1  C3  <0> d           0.718  -0.497  -1.257  0.00  0.00     0.030 C 
ATOM      2  H1  <0> d           0.244  -0.064  -2.138  0.00  0.00     0.075 H 
ENDROOT
BRANCH   1   3
ATOM      3  C2  <0> d           0.002  -0.004   0.002  0.00  0.00    -0.048 C 
ATOM      4  H5  <0> d           0.529  -0.365   0.885  0.00  0.00     0.035 H 
ATOM      5  H6  <0> d          -1.020  -0.381   0.010  0.00  0.00     0.035 H 
BRANCH   3   6
ATOM      6  C1  <0> d          -0.019   1.526   0.010  0.00  0.00    -0.075 C 
ATOM      7  H2  <0> d           1.004   1.903   0.003  0.00  0.00     0.027 H 
ATOM      8  H3  <0> d          -0.546   1.887  -0.873  0.00  0.00     0.027 H 
ATOM      9  H4  <0> d          -0.529   1.877   0.907  0.00  0.00     0.027 H 
ENDBRANCH   3   6
ENDBRANCH   1   3
BRANCH   1  10
ATOM     10  C4  <0> d           2.187  -0.073  -1.207  0.00  0.00    -0.055 C 
ATOM     11  H7  <0> d           2.661  -0.506  -0.326  0.00  0.00     0.030 H 
ATOM     12  H8  <0> d           2.697  -0.425  -2.104  0.00  0.00     0.030 H 
ATOM     13  H9  <0> d           2.250   1.014  -1.156  0.00  0.00     0.030 H 
ENDBRANCH   1  10
BRANCH   1  14
ATOM     14  N1  <0> d           0.634  -1.958  -1.325  0.00  0.00    -0.275 N 
ATOM     15  N2  <0> d          -0.327  -2.696  -2.029  0.00  0.00    -0.183 NA
ATOM     16  C7  <0> d          -0.073  -3.968  -1.855  0.00  0.00     0.044 A 
ATOM     17  C6  <0> d           1.050  -4.082  -1.028  0.00  0.00     0.070 A 
ATOM     18  H11 <0> d          -0.637  -4.789  -2.274  0.00  0.00     0.120 H 
ATOM     19  C5  <0> d           1.465  -2.832  -0.717  0.00  0.00     0.021 A 
ATOM     20 Cl1  <0> d           1.781  -5.564  -0.496  0.00  0.00    -0.081 Cl
ATOM     21  H10 <0> d           2.310  -2.578  -0.094  0.00  0.00     0.116 H 
ENDBRANCH   1  14
TORSDOF 4
