REMARK  1 active torsions:
REMARK  status: ('A' for Active; 'I' for Inactive)
REMARK    1  A    between atoms: C4_4  and  C6_6 
ROOT
ATOM      1  C1  <0> d          -4.665   2.381   3.461  0.00  0.00    -0.065 C 
ATOM      2  C2  <0> d          -5.478   1.965   2.209  0.00  0.00    -0.065 C 
ATOM      3  C3  <0> d          -4.594   2.401   1.023  0.00  0.00    -0.061 C 
ATOM      4  C4  <0> d          -3.151   2.469   1.551  0.00  0.00    -0.050 C 
ATOM      5  C5  <0> d          -3.206   2.072   3.041  0.00  0.00    -0.061 C 
ATOM      6  H2  <0> d          -4.790   3.444   3.667  0.00  0.00     0.033 H 
ATOM      7  H3  <0> d          -4.954   1.783   4.325  0.00  0.00     0.033 H 
ATOM      8  H4  <0> d          -6.434   2.487   2.185  0.00  0.00     0.033 H 
ATOM      9  H5  <0> d          -5.632   0.886   2.194  0.00  0.00     0.033 H 
ATOM     10  H6  <0> d          -4.907   3.382   0.665  0.00  0.00     0.033 H 
ATOM     11  H7  <0> d          -4.663   1.671   0.217  0.00  0.00     0.033 H 
ATOM     12  H8  <0> d          -2.763   3.482   1.448  0.00  0.00     0.040 H 
ATOM     13  H9  <0> d          -2.991   1.010   3.161  0.00  0.00     0.033 H 
ATOM     14  H10 <0> d          -2.506   2.672   3.622  0.00  0.00     0.033 H 
ENDROOT
BRANCH   4  15
ATOM     15  C6  <0> d          -2.264   1.488   0.780  0.00  0.00    -0.044 C 
ATOM     16  H1  <0> d          -2.624   0.468   0.906  0.00  0.00     0.041 H 
ATOM     17  C10 <0> d          -2.212   1.865  -0.715  0.00  0.00    -0.006 C 
ATOM     18  C9  <0> d          -0.794   1.612  -1.183  0.00  0.00     0.127 C 
ATOM     19  H15 <0> d          -2.461   2.827  -0.826  0.00  0.00     0.044 H 
ATOM     20  H16 <0> d          -2.907   1.243  -1.280  0.00  0.00     0.044 H 
ATOM     21  C8  <0> d          -0.013   1.086   0.008  0.00  0.00    -0.009 C 
ATOM     22  O1  <0> d          -0.364   1.796  -2.296  0.00  0.00    -0.298 OA
ATOM     23  C7  <0> d          -0.786   1.609   1.243  0.00  0.00    -0.055 C 
ATOM     24  H13 <0> d           0.017   0.086   0.032  0.00  0.00     0.044 H 
ATOM     25  H14 <0> d           1.004   1.480   0.000  0.00  0.00     0.044 H 
ATOM     26  H11 <0> d          -0.598   0.981   2.114  0.00  0.00     0.034 H 
ATOM     27  H12 <0> d          -0.529   2.648   1.450  0.00  0.00     0.034 H 
ENDBRANCH   4  15
TORSDOF 1
