REMARK  5 active torsions:
REMARK  status: ('A' for Active; 'I' for Inactive)
REMARK    1  A    between atoms: C1_1  and  O1_2 
REMARK    2  A    between atoms: O1_2  and  C2_3 
REMARK    3  A    between atoms: C4_5  and  N1_11 
REMARK    4  A    between atoms: C6_7  and  O2_9 
REMARK    5  A    between atoms: O2_9  and  C8_10 
ROOT
ATOM      1  C2  <0> d          -0.017   1.383   0.010  0.00  0.00     0.073 A 
ATOM      2  C3  <0> d           1.174   2.093   0.002  0.00  0.00    -0.025 A 
ATOM      3  C4  <0> d           2.386   1.415  -0.013  0.00  0.00     0.030 A 
ATOM      4  C5  <0> d           2.404   0.026  -0.020  0.00  0.00    -0.025 A 
ATOM      5  C6  <0> d           1.212  -0.682  -0.013  0.00  0.00     0.073 A 
ATOM      6  C7  <0> d           0.002  -0.004   0.002  0.00  0.00    -0.019 A 
ATOM      7  H4  <0> d           1.159   3.172   0.008  0.00  0.00     0.091 H 
ATOM      8  H5  <0> d           3.346  -0.502  -0.032  0.00  0.00     0.091 H 
ATOM      9  H6  <0> d          -0.926  -0.556   0.008  0.00  0.00     0.092 H 
ENDROOT
BRANCH   1  10
ATOM     10  O1  <0> d          -1.203   2.046   0.019  0.00  0.00    -0.356 OA
BRANCH  10  11
ATOM     11  C1  <0> d          -1.148   3.474   0.026  0.00  0.00     0.010 C 
ATOM     12  H1  <0> d          -0.616   3.812   0.916  0.00  0.00     0.066 H 
ATOM     13  H2  <0> d          -0.624   3.822  -0.864  0.00  0.00     0.066 H 
ATOM     14  H3  <0> d          -2.160   3.877   0.033  0.00  0.00     0.066 H 
ENDBRANCH  10  11
ENDBRANCH   1  10
BRANCH   5  15
ATOM     15  O2  <0> d           1.229  -2.041  -0.019  0.00  0.00    -0.356 OA
BRANCH  15  16
ATOM     16  C8  <0> d           2.511  -2.673  -0.035  0.00  0.00     0.010 C 
ATOM     17  H7  <0> d           2.382  -3.756  -0.038  0.00  0.00     0.066 H 
ATOM     18  H8  <0> d           3.055  -2.369  -0.928  0.00  0.00     0.066 H 
ATOM     19  H9  <0> d           3.072  -2.377   0.852  0.00  0.00     0.066 H 
ENDBRANCH  15  16
ENDBRANCH   5  15
BRANCH   3  20
ATOM     20  N1  <0> d           3.586   2.129  -0.021  0.00  0.00    -0.399 N 
ATOM     21  H10 <0> d           4.432   1.655  -0.032  0.00  0.00     0.156 HD
ATOM     22  H11 <0> d           3.573   3.099  -0.016  0.00  0.00     0.156 HD
ENDBRANCH   3  20
TORSDOF 5
