REMARK  3 active torsions:
REMARK  status: ('A' for Active; 'I' for Inactive)
REMARK    1  A    between atoms: C1_1  and  C2_2 
REMARK    2  A    between atoms: C3_3  and  C6_10 
REMARK    3  A    between atoms: C4_5  and  N3_9 
ROOT
ATOM      1  C2  <0> d          -0.742   1.585  -1.213  0.00  0.00     0.031 A 
ATOM      2  C3  <0> d          -2.089   1.798  -1.178  0.00  0.00     0.061 A 
ATOM      3  N1  <0> d          -2.724   2.239  -2.261  0.00  0.00    -0.069 NA
ATOM      4  C4  <0> d          -2.078   2.479  -3.385  0.00  0.00     0.701 A 
ATOM      5  N2  <0> d          -0.734   2.285  -3.479  0.00  0.00    -0.154 N 
ATOM      6  C5  <0> d          -0.044   1.845  -2.406  0.00  0.00     0.267 A 
ATOM      7  O1  <0> d           1.162   1.671  -2.471  0.00  0.00    -0.267 OA
ATOM      8  H4  <0> d          -0.274   2.467  -4.313  0.00  0.00     0.187 HD
ENDROOT
BRANCH   1   9
ATOM      9  C1  <0> d          -0.013   1.086   0.008  0.00  0.00    -0.044 C 
ATOM     10  H1  <0> d           0.002  -0.004   0.002  0.00  0.00     0.033 H 
ATOM     11  H2  <0> d           1.010   1.463   0.000  0.00  0.00     0.033 H 
ATOM     12  H3  <0> d          -0.523   1.437   0.905  0.00  0.00     0.033 H 
ENDBRANCH   1   9
BRANCH   2  13
ATOM     13  C6  <0> d          -2.860   1.533   0.090  0.00  0.00    -0.034 C 
ATOM     14  H7  <0> d          -2.885   2.438   0.696  0.00  0.00     0.035 H 
ATOM     15  H8  <0> d          -3.878   1.234  -0.160  0.00  0.00     0.035 H 
ATOM     16  H9  <0> d          -2.374   0.734   0.650  0.00  0.00     0.035 H 
ENDBRANCH   2  13
BRANCH   4  17
ATOM     17  N3  <0> d          -2.770   2.932  -4.475  0.00  0.00    -0.233 N 
ATOM     18  H5  <0> d          -3.728   3.073  -4.417  0.00  0.00     0.174 HD
ATOM     19  H6  <0> d          -2.303   3.112  -5.306  0.00  0.00     0.174 HD
ENDBRANCH   4  17
TORSDOF 3
