REMARK  1 active torsions:
REMARK  status: ('A' for Active; 'I' for Inactive)
REMARK    1  A    between atoms: C1_1  and  C2_2 
ROOT
ATOM      1  C2  <0> d           2.480   3.898   0.003  0.00  0.00     0.155 C 
ATOM      2  H1  <0> d           2.888   3.911   1.025  0.00  0.00     0.095 H 
ATOM      3  C3  <0> d           1.161   3.171   0.007  0.00  0.00    -0.019 A 
ATOM      4  C4  <0> d           1.172   1.783   0.000  0.00  0.00    -0.074 A 
ATOM      5  C5  <0> d          -0.013   1.076   0.008  0.00  0.00    -0.082 A 
ATOM      6  C6  <0> d          -1.218   1.752   0.017  0.00  0.00    -0.082 A 
ATOM      7  C7  <0> d          -1.231   3.132   0.028  0.00  0.00    -0.076 A 
ATOM      8  C8  <0> d          -0.041   3.844   0.019  0.00  0.00    -0.048 A 
ATOM      9  C9  <0> d          -0.105   5.350   0.019  0.00  0.00    -0.016 C 
ATOM     10  C10 <0> d           1.252   5.929   0.424  0.00  0.00     0.116 C 
ATOM     11  N1  <0> d           2.294   5.296  -0.400  0.00  0.00     0.092 N 
ATOM     12  H5  <0> d           2.114   1.254  -0.010  0.00  0.00     0.084 H 
ATOM     13  H6  <0> d           0.002  -0.004   0.002  0.00  0.00     0.083 H 
ATOM     14  H7  <0> d          -2.148   1.202   0.020  0.00  0.00     0.083 H 
ATOM     15  H8  <0> d          -2.173   3.661   0.040  0.00  0.00     0.084 H 
ATOM     16  H9  <0> d          -0.365   5.707  -0.988  0.00  0.00     0.042 H 
ATOM     17  H10 <0> d          -0.869   5.685   0.736  0.00  0.00     0.042 H 
ATOM     18  H11 <0> d           1.250   7.017   0.257  0.00  0.00     0.080 H 
ATOM     19  H12 <0> d           1.436   5.722   1.488  0.00  0.00     0.080 H 
ATOM     20  H13 <0> d           3.239   5.844  -0.268  0.00  0.00     0.316 HD
ENDROOT
BRANCH   1  21
ATOM     21  C1  <0> d           3.434   3.212  -0.977  0.00  0.00    -0.043 C 
ATOM     22  H2  <0> d           3.575   2.163  -0.677  0.00  0.00     0.030 H 
ATOM     23  H3  <0> d           4.404   3.730  -0.967  0.00  0.00     0.030 H 
ATOM     24  H4  <0> d           3.008   3.249  -1.990  0.00  0.00     0.030 H 
ENDBRANCH   1  21
TORSDOF 1
