REMARK  9 active torsions:
REMARK  status: ('A' for Active; 'I' for Inactive)
REMARK    1  A    between atoms: C1_1  and  C2_2 
REMARK    2  A    between atoms: C2_2  and  O1_3 
REMARK    3  A    between atoms: O1_3  and  C3_4 
REMARK    4  A    between atoms: C3_4  and  N1_5 
REMARK    5  A    between atoms: C3_4  and  O2_8 
REMARK    6  A    between atoms: N1_5  and  C4_6 
REMARK    7  A    between atoms: N1_5  and  C5_7 
REMARK    8  A    between atoms: O2_8  and  C6_9 
REMARK    9  A    between atoms: C6_9  and  C7_10 
ROOT
ATOM      1  C3  <0> d          -0.130   1.111  -0.013  0.00  0.00     0.324 C 
ATOM      2  H6  <0> d          -0.150   0.016   0.092  0.00  0.00     0.182 H 
ENDROOT
BRANCH   1   3
ATOM      3  O1  <0> d           1.208   1.520  -0.301  0.00  0.00    -0.337 OA
BRANCH   3   4
ATOM      4  C2  <0> d           2.196   0.899   0.524  0.00  0.00     0.021 C 
ATOM      5  H4  <0> d           2.096  -0.194   0.456  0.00  0.00     0.073 H 
ATOM      6  H5  <0> d           2.054   1.216   1.568  0.00  0.00     0.073 H 
BRANCH   4   7
ATOM      7  C1  <0> d           3.590   1.314   0.050  0.00  0.00    -0.056 C 
ATOM      8  H1  <0> d           4.351   0.836   0.685  0.00  0.00     0.030 H 
ATOM      9  H2  <0> d           3.691   2.407   0.118  0.00  0.00     0.030 H 
ATOM     10  H3  <0> d           3.732   0.997  -0.994  0.00  0.00     0.030 H 
ENDBRANCH   4   7
ENDBRANCH   3   4
ENDBRANCH   1   3
BRANCH   1  11
ATOM     11  N1  <0> d          -0.588   1.766   1.219  0.00  0.00     0.135 N 
BRANCH  11  12
ATOM     12  C4  <0> d          -0.593   3.227   1.068  0.00  0.00     0.101 C 
ATOM     13  H7  <0> d          -0.940   3.691   2.004  0.00  0.00     0.072 H 
ATOM     14  H8  <0> d          -1.269   3.509   0.247  0.00  0.00     0.072 H 
ATOM     15  H9  <0> d           0.425   3.576   0.841  0.00  0.00     0.072 H 
ENDBRANCH  11  12
BRANCH  11  16
ATOM     16  C5  <0> d          -1.914   1.273   1.616  0.00  0.00     0.101 C 
ATOM     17  H10 <0> d          -2.232   1.779   2.539  0.00  0.00     0.072 H 
ATOM     18  H11 <0> d          -1.865   0.188   1.790  0.00  0.00     0.072 H 
ATOM     19  H12 <0> d          -2.638   1.484   0.815  0.00  0.00     0.072 H 
ENDBRANCH  11  16
ENDBRANCH   1  11
BRANCH   1  20
ATOM     20  O2  <0> d          -0.985   1.483  -1.096  0.00  0.00    -0.337 OA
BRANCH  20  21
ATOM     21  C6  <0> d          -0.872   0.637  -2.243  0.00  0.00     0.021 C 
ATOM     22  H13 <0> d           0.178   0.598  -2.567  0.00  0.00     0.073 H 
ATOM     23  H14 <0> d          -1.215  -0.376  -1.986  0.00  0.00     0.073 H 
BRANCH  21  24
ATOM     24  C7  <0> d          -1.735   1.197  -3.376  0.00  0.00    -0.056 C 
ATOM     25  H15 <0> d          -1.648   0.546  -4.258  0.00  0.00     0.030 H 
ATOM     26  H16 <0> d          -1.392   2.210  -3.632  0.00  0.00     0.030 H 
ATOM     27  H17 <0> d          -2.785   1.236  -3.052  0.00  0.00     0.030 H 
ENDBRANCH  21  24
ENDBRANCH  20  21
ENDBRANCH   1  20
TORSDOF 9
