REMARK  0 active torsions:
REMARK  status: ('A' for Active; 'I' for Inactive)
ROOT
ATOM      1  C1  <0> d          -0.013   1.076   0.008  0.00  0.00    -0.081 A 
ATOM      2  C2  <0> d          -1.220   1.750   0.017  0.00  0.00    -0.081 A 
ATOM      3  C3  <0> d          -1.240   3.132   0.030  0.00  0.00    -0.060 A 
ATOM      4  C4  <0> d          -0.052   3.841   0.022  0.00  0.00     0.055 A 
ATOM      5  C5  <0> d           1.157   3.166   0.008  0.00  0.00     0.055 A 
ATOM      6  C6  <0> d           1.175   1.783   0.000  0.00  0.00    -0.060 A 
ATOM      7 Cl1  <0> d           2.648   4.054  -0.001  0.00  0.00    -0.083 Cl
ATOM      8 Cl2  <0> d          -0.076   5.577   0.031  0.00  0.00    -0.083 Cl
ATOM      9  H1  <0> d           0.002  -0.004   0.002  0.00  0.00     0.083 H 
ATOM     10  H2  <0> d          -2.147   1.197   0.019  0.00  0.00     0.083 H 
ATOM     11  H3  <0> d          -2.183   3.659   0.041  0.00  0.00     0.086 H 
ATOM     12  H4  <0> d           2.117   1.255  -0.011  0.00  0.00     0.086 H 
ENDROOT
TORSDOF 0
