REMARK  9 active torsions:
REMARK  status: ('A' for Active; 'I' for Inactive)
REMARK    1  A    between atoms: C1_1  and  C2_2 
REMARK    2  A    between atoms: C2_2  and  C3_4 
REMARK    3  A    between atoms: C2_2  and  O3_12 
REMARK    4  A    between atoms: C3_4  and  O1_5 
REMARK    5  A    between atoms: O1_5  and  C4_6 
REMARK    6  A    between atoms: C4_6  and  C5_8 
REMARK    7  A    between atoms: C4_6  and  C6_9 
REMARK    8  A    between atoms: C6_9  and  O2_10 
REMARK    9  A    between atoms: O2_10  and  C7_11 
ROOT
ATOM      1  C4  <0> d           0.002  -0.004   0.002  0.00  0.00     0.055 C 
ATOM      2  H2  <0> d           0.512  -0.356  -0.895  0.00  0.00     0.086 H 
ENDROOT
BRANCH   1   3
ATOM      3  O1  <0> d          -1.339  -0.499   0.012  0.00  0.00    -0.382 OA
BRANCH   3   4
ATOM      4  C3  <0> d          -1.896  -0.693  -1.289  0.00  0.00     0.043 C 
ATOM      5  H6  <0> d          -1.908   0.256  -1.825  0.00  0.00     0.078 H 
ATOM      6  H7  <0> d          -1.292  -1.414  -1.840  0.00  0.00     0.078 H 
BRANCH   4   7
ATOM      7  C2  <0> d          -3.326  -1.221  -1.157  0.00  0.00     0.052 C 
ATOM      8  H1  <0> d          -3.325  -2.124  -0.546  0.00  0.00     0.085 H 
BRANCH   7   9
ATOM      9  C1  <0> d          -3.879  -1.547  -2.546  0.00  0.00    -0.051 C 
ATOM     10  H3  <0> d          -3.254  -2.305  -3.018  0.00  0.00     0.031 H 
ATOM     11  H4  <0> d          -4.898  -1.924  -2.453  0.00  0.00     0.031 H 
ATOM     12  H5  <0> d          -3.880  -0.645  -3.158  0.00  0.00     0.031 H 
ENDBRANCH   7   9
BRANCH   7  13
ATOM     13  O3  <0> d          -4.146  -0.228  -0.539  0.00  0.00    -0.394 OA
ATOM     14  H16 <0> d          -4.194   0.604  -1.030  0.00  0.00     0.210 HD
ENDBRANCH   7  13
ENDBRANCH   4   7
ENDBRANCH   3   4
ENDBRANCH   1   3
BRANCH   1  15
ATOM     15  C5  <0> d          -0.019   1.526   0.010  0.00  0.00    -0.050 C 
ATOM     16  H8  <0> d           1.004   1.903   0.003  0.00  0.00     0.031 H 
ATOM     17  H9  <0> d          -0.546   1.887  -0.873  0.00  0.00     0.031 H 
ATOM     18  H10 <0> d          -0.529   1.877   0.907  0.00  0.00     0.031 H 
ENDBRANCH   1  15
BRANCH   1  19
ATOM     19  C6  <0> d           0.742  -0.511   1.242  0.00  0.00     0.043 C 
ATOM     20  H11 <0> d           0.680  -1.598   1.282  0.00  0.00     0.078 H 
ATOM     21  H12 <0> d           1.788  -0.208   1.190  0.00  0.00     0.078 H 
BRANCH  19  22
ATOM     22  O2  <0> d           0.143   0.044   2.414  0.00  0.00    -0.393 OA
BRANCH  22  23
ATOM     23  C7  <0> d           0.763  -0.368   3.634  0.00  0.00     0.004 C 
ATOM     24  H13 <0> d           0.250   0.097   4.477  0.00  0.00     0.066 H 
ATOM     25  H14 <0> d           0.701  -1.452   3.724  0.00  0.00     0.066 H 
ATOM     26  H15 <0> d           1.809  -0.062   3.632  0.00  0.00     0.066 H 
ENDBRANCH  22  23
ENDBRANCH  19  22
ENDBRANCH   1  19
TORSDOF 9
