REMARK  5 active torsions:
REMARK  status: ('A' for Active; 'I' for Inactive)
REMARK    1  A    between atoms: C1_1  and  C2_2 
REMARK    2  A    between atoms: C2_2  and  O1_3 
REMARK    3  A    between atoms: O1_3  and  C3_4 
REMARK    4  A    between atoms: C6_7  and  N1_11 
REMARK    5  A    between atoms: C7_8  and  O2_10 
ROOT
ATOM      1  C3  <0> d           1.186   2.059   0.002  0.00  0.00     0.071 A 
ATOM      2  C4  <0> d           2.359   1.319  -0.008  0.00  0.00    -0.049 A 
ATOM      3  C5  <0> d           3.583   1.960  -0.022  0.00  0.00    -0.052 A 
ATOM      4  C6  <0> d           3.641   3.345  -0.015  0.00  0.00     0.059 A 
ATOM      5  C7  <0> d           2.464   4.090   0.001  0.00  0.00     0.094 A 
ATOM      6  C8  <0> d           1.239   3.444   0.009  0.00  0.00    -0.017 A 
ATOM      7  H6  <0> d           2.315   0.239  -0.009  0.00  0.00     0.087 H 
ATOM      8  H7  <0> d           4.495   1.381  -0.033  0.00  0.00     0.087 H 
ATOM      9  H8  <0> d           0.325   4.020   0.021  0.00  0.00     0.092 H 
ENDROOT
BRANCH   1  10
ATOM     10  O1  <0> d          -0.017   1.425   0.010  0.00  0.00    -0.351 OA
BRANCH  10  11
ATOM     11  C2  <0> d           0.002  -0.004   0.002  0.00  0.00     0.023 C 
ATOM     12  H4  <0> d           0.512  -0.356  -0.895  0.00  0.00     0.074 H 
ATOM     13  H5  <0> d           0.529  -0.365   0.885  0.00  0.00     0.074 H 
BRANCH  11  14
ATOM     14  C1  <0> d          -1.433  -0.534   0.013  0.00  0.00    -0.056 C 
ATOM     15  H1  <0> d          -1.944  -0.182   0.910  0.00  0.00     0.030 H 
ATOM     16  H2  <0> d          -1.960  -0.173  -0.870  0.00  0.00     0.030 H 
ATOM     17  H3  <0> d          -1.419  -1.623   0.007  0.00  0.00     0.030 H 
ENDBRANCH  11  14
ENDBRANCH  10  11
ENDBRANCH   1  10
BRANCH   5  18
ATOM     18  O2  <0> d           2.518   5.449   0.007  0.00  0.00    -0.358 OA
ATOM     19  H9  <0> d           2.542   5.838   0.892  0.00  0.00     0.217 HD
ENDBRANCH   5  18
BRANCH   4  20
ATOM     20  N1  <0> d           4.883   3.996  -0.023  0.00  0.00    -0.397 N 
ATOM     21  H10 <0> d           4.923   4.965  -0.018  0.00  0.00     0.156 HD
ATOM     22  H11 <0> d           5.703   3.477  -0.033  0.00  0.00     0.156 HD
ENDBRANCH   4  20
TORSDOF 5
