REMARK  0 active torsions:
REMARK  status: ('A' for Active; 'I' for Inactive)
ROOT
ATOM      1  C1  <0> d           3.450   2.392  -0.019  0.00  0.00    -0.060 A 
ATOM      2  C2  <0> d           2.471   1.422  -0.014  0.00  0.00    -0.055 A 
ATOM      3  C3  <0> d           1.122   1.782   0.001  0.00  0.00     0.034 A 
ATOM      4  C4  <0> d           0.785   3.126   0.011  0.00  0.00    -0.029 A 
ATOM      5  C5  <0> d           1.768   4.096   0.006  0.00  0.00    -0.054 A 
ATOM      6  C6  <0> d           3.103   3.732  -0.009  0.00  0.00     0.034 A 
ATOM      7 Cl1  <0> d           4.338   4.951  -0.016  0.00  0.00    -0.084 Cl
ATOM      8  C7  <0> d          -0.723   3.243   0.025  0.00  0.00    -0.024 A 
ATOM      9  C8  <0> d          -1.223   1.789   0.017  0.00  0.00    -0.004 A 
ATOM     10  N1  <0> d          -0.011   0.966   0.007  0.00  0.00    -0.389 N 
ATOM     11  H1  <0> d           4.492   2.107  -0.031  0.00  0.00     0.086 H 
ATOM     12  H2  <0> d           2.749   0.378  -0.021  0.00  0.00     0.087 H 
ATOM     13  H3  <0> d           1.495   5.141   0.014  0.00  0.00     0.087 H 
ATOM     14  H4  <0> d          -1.056   3.758   0.927  0.00  0.00     0.042 H 
ATOM     15  H5  <0> d          -1.073   3.767  -0.864  0.00  0.00     0.042 H 
ATOM     16  H6  <0> d          -1.818   1.597  -0.876  0.00  0.00     0.064 H 
ATOM     17  H7  <0> d          -1.810   1.588   0.913  0.00  0.00     0.064 H 
ATOM     18  H8  <0> d           0.002  -0.004   0.002  0.00  0.00     0.159 HD
ENDROOT
TORSDOF 0
