REMARK  6 active torsions:
REMARK  status: ('A' for Active; 'I' for Inactive)
REMARK    1  A    between atoms: C1_1  and  C2_2 
REMARK    2  A    between atoms: C2_2  and  C3_3 
REMARK    3  A    between atoms: C2_2  and  C4_4 
REMARK       I    between atoms: C4_4  and  N1_6 
REMARK    4  A    between atoms: N1_6  and  C5_7 
REMARK    5  A    between atoms: C5_7  and  C6_8 
REMARK    6  A    between atoms: C6_8  and  O2_9 
ROOT
ATOM      1  C4  <0> d           0.306   4.819   1.500  0.00  0.00     0.221 C 
ATOM      2  O1  <0> d           0.614   5.644   0.666  0.00  0.00    -0.273 OA
ATOM      3  N1  <0> d           0.530   3.511   1.268  0.00  0.00    -0.359 N 
ATOM      4  H8  <0> d           0.285   2.851   1.935  0.00  0.00     0.162 HD
ENDROOT
BRANCH   1   5
ATOM      5  C2  <0> d          -0.326   5.257   2.796  0.00  0.00     0.017 C 
ATOM      6  H4  <0> d          -1.310   4.800   2.893  0.00  0.00     0.053 H 
BRANCH   5   7
ATOM      7  C1  <0> d           0.557   4.819   3.967  0.00  0.00    -0.065 C 
ATOM      8  H1  <0> d           0.657   3.734   3.960  0.00  0.00     0.028 H 
ATOM      9  H2  <0> d           1.542   5.276   3.871  0.00  0.00     0.028 H 
ATOM     10  H3  <0> d           0.100   5.136   4.905  0.00  0.00     0.028 H 
ENDBRANCH   5   7
BRANCH   5  11
ATOM     11  C3  <0> d          -0.467   6.780   2.806  0.00  0.00    -0.065 C 
ATOM     12  H5  <0> d          -1.096   7.092   1.972  0.00  0.00     0.028 H 
ATOM     13  H6  <0> d          -0.924   7.097   3.743  0.00  0.00     0.028 H 
ATOM     14  H7  <0> d           0.518   7.237   2.709  0.00  0.00     0.028 H 
ENDBRANCH   5  11
ENDBRANCH   1   5
BRANCH   3  15
ATOM     15  C5  <0> d           1.145   3.085   0.008  0.00  0.00     0.015 C 
ATOM     16  H9  <0> d           2.130   3.542  -0.089  0.00  0.00     0.067 H 
ATOM     17  H10 <0> d           0.516   3.397  -0.827  0.00  0.00     0.067 H 
BRANCH  15  18
ATOM     18  C6  <0> d           1.286   1.562  -0.002  0.00  0.00     0.031 C 
ATOM     19  H11 <0> d           1.840   1.243   0.881  0.00  0.00     0.076 H 
ATOM     20  H12 <0> d           1.823   1.252  -0.899  0.00  0.00     0.076 H 
BRANCH  18  21
ATOM     21  O2  <0> d          -0.011   0.963   0.007  0.00  0.00    -0.399 OA
ATOM     22  H13 <0> d           0.002  -0.004   0.002  0.00  0.00     0.209 HD
ENDBRANCH  18  21
ENDBRANCH  15  18
ENDBRANCH   3  15
TORSDOF 6
