REMARK  5 active torsions:
REMARK  status: ('A' for Active; 'I' for Inactive)
REMARK    1  A    between atoms: C1_1  and  C2_2 
REMARK    2  A    between atoms: C2_2  and  C7_10 
REMARK    3  A    between atoms: C3_3  and  C4_4 
REMARK       I    between atoms: C4_4  and  N1_6 
REMARK    4  A    between atoms: N1_6  and  C5_7 
REMARK    5  A    between atoms: C5_7  and  C6_8 
ROOT
ATOM      1  C2  <0> d          -1.320   3.387   0.127  0.00  0.00    -0.082 C 
ATOM      2  C3  <0> d          -1.321   2.095  -0.190  0.00  0.00    -0.016 C 
ATOM      3  H4  <0> d          -2.223   1.512  -0.078  0.00  0.00     0.092 H 
ENDROOT
BRANCH   2   4
ATOM      4  C4  <0> d          -0.093   1.461  -0.693  0.00  0.00     0.241 C 
ATOM      5  O1  <0> d           0.891   2.138  -0.923  0.00  0.00    -0.269 OA
ATOM      6  N1  <0> d          -0.060   0.130  -0.905  0.00  0.00    -0.348 N 
ATOM      7  H5  <0> d          -0.845  -0.409  -0.722  0.00  0.00     0.163 HD
BRANCH   6   8
ATOM      8  C5  <0> d           1.161  -0.501  -1.412  0.00  0.00     0.075 C 
ATOM      9  H6  <0> d           1.415  -0.073  -2.382  0.00  0.00     0.080 H 
ATOM     10  H7  <0> d           1.978  -0.325  -0.713  0.00  0.00     0.080 H 
BRANCH   8  11
ATOM     11  C6  <0> d           0.936  -1.984  -1.560  0.00  0.00     0.191 C 
ATOM     12  O2  <0> d          -0.135  -2.464  -1.272  0.00  0.00    -0.647 OA
ATOM     13  O3  <0> d           1.925  -2.771  -2.013  0.00  0.00    -0.647 OA
ENDBRANCH   8  11
ENDBRANCH   6   8
ENDBRANCH   2   4
BRANCH   1  14
ATOM     14  C1  <0> d          -0.028   4.162   0.125  0.00  0.00    -0.055 C 
ATOM     15  H1  <0> d           0.188   4.508  -0.886  0.00  0.00     0.033 H 
ATOM     16  H2  <0> d          -0.118   5.021   0.791  0.00  0.00     0.033 H 
ATOM     17  H3  <0> d           0.782   3.519   0.470  0.00  0.00     0.033 H 
ENDBRANCH   1  14
BRANCH   1  18
ATOM     18  C7  <0> d          -2.611   4.075   0.488  0.00  0.00    -0.055 C 
ATOM     19  H8  <0> d          -3.431   3.360   0.434  0.00  0.00     0.033 H 
ATOM     20  H9  <0> d          -2.541   4.472   1.501  0.00  0.00     0.033 H 
ATOM     21  H10 <0> d          -2.795   4.892  -0.210  0.00  0.00     0.033 H 
ENDBRANCH   1  18
TORSDOF 5
