REMARK  1 active torsions:
REMARK  status: ('A' for Active; 'I' for Inactive)
REMARK    1  A    between atoms: C1_1  and  N1_2 
ROOT
ATOM      1  N1  <0> d           0.002  -0.004   0.002  0.00  0.00    -0.274 N 
ATOM      2  C2  <0> d           0.008  -0.804  -1.113  0.00  0.00     0.065 A 
ATOM      3  C3  <0> d          -0.002  -0.546  -2.481  0.00  0.00    -0.055 A 
ATOM      4  C4  <0> d           0.008  -1.587  -3.383  0.00  0.00    -0.079 A 
ATOM      5  C5  <0> d           0.029  -2.902  -2.948  0.00  0.00    -0.062 A 
ATOM      6  C6  <0> d           0.039  -3.192  -1.589  0.00  0.00     0.058 A 
ATOM      7  C7  <0> d           0.029  -2.133  -0.652  0.00  0.00     0.032 A 
ATOM      8  C8  <0> d           0.035  -2.081   0.758  0.00  0.00     0.035 A 
ATOM      9  N2  <0> d           0.025  -0.833   1.131  0.00  0.00    -0.184 NA
ATOM     10  C9  <0> d           0.060  -4.552  -1.140  0.00  0.00     0.100 C 
ATOM     11  N3  <0> d           0.076  -5.631  -0.785  0.00  0.00    -0.191 NA
ATOM     12  H4  <0> d          -0.018   0.474  -2.836  0.00  0.00     0.087 H 
ATOM     13  H5  <0> d          -0.000  -1.375  -4.442  0.00  0.00     0.083 H 
ATOM     14  H6  <0> d           0.037  -3.706  -3.669  0.00  0.00     0.085 H 
ATOM     15  H7  <0> d           0.050  -2.935   1.419  0.00  0.00     0.118 H 
ENDROOT
BRANCH   1  16
ATOM     16  C1  <0> d          -0.018   1.461   0.010  0.00  0.00     0.003 C 
ATOM     17  H1  <0> d           1.005   1.838   0.002  0.00  0.00     0.059 H 
ATOM     18  H2  <0> d          -0.545   1.822  -0.873  0.00  0.00     0.059 H 
ATOM     19  H3  <0> d          -0.528   1.812   0.907  0.00  0.00     0.059 H 
ENDBRANCH   1  16
TORSDOF 1
