REMARK  2 active torsions:
REMARK  status: ('A' for Active; 'I' for Inactive)
REMARK    1  A    between atoms: C1_1  and  C2_2 
REMARK    2  A    between atoms: C2_2  and  C3_3 
ROOT
ATOM      1  C3  <0> d          -1.412  -0.526   0.013  0.00  0.00    -0.054 A 
ATOM      2  C4  <0> d          -2.068  -0.772   1.210  0.00  0.00    -0.060 A 
ATOM      3  C5  <0> d          -3.367  -1.251   1.187  0.00  0.00     0.004 A 
ATOM      4  N1  <0> d          -3.985  -1.474   0.046  0.00  0.00    -0.250 NA
ATOM      5  C6  <0> d          -3.393  -1.252  -1.121  0.00  0.00     0.136 A 
ATOM      6  C7  <0> d          -2.087  -0.764  -1.172  0.00  0.00    -0.039 A 
ATOM      7  C8  <0> d          -4.103  -1.509  -2.338  0.00  0.00     0.119 C 
ATOM      8  N2  <0> d          -4.667  -1.714  -3.303  0.00  0.00    -0.190 NA
ATOM      9  H6  <0> d          -1.570  -0.593   2.151  0.00  0.00     0.086 H 
ATOM     10  H7  <0> d          -3.880  -1.443   2.117  0.00  0.00     0.114 H 
ATOM     11  H8  <0> d          -1.609  -0.579  -2.123  0.00  0.00     0.089 H 
ENDROOT
BRANCH   1  12
ATOM     12  C2  <0> d           0.002  -0.004   0.002  0.00  0.00    -0.044 C 
ATOM     13  H4  <0> d           0.512  -0.356  -0.895  0.00  0.00     0.039 H 
ATOM     14  H5  <0> d           0.529  -0.365   0.885  0.00  0.00     0.039 H 
BRANCH  12  15
ATOM     15  C1  <0> d          -0.019   1.526   0.010  0.00  0.00    -0.073 C 
ATOM     16  H1  <0> d           1.004   1.903   0.003  0.00  0.00     0.028 H 
ATOM     17  H2  <0> d          -0.546   1.887  -0.873  0.00  0.00     0.028 H 
ATOM     18  H3  <0> d          -0.529   1.877   0.907  0.00  0.00     0.028 H 
ENDBRANCH  12  15
ENDBRANCH   1  12
TORSDOF 2
