REMARK  4 active torsions:
REMARK  status: ('A' for Active; 'I' for Inactive)
REMARK    1  A    between atoms: C1_1  and  C2_2 
REMARK    2  A    between atoms: C5_5  and  O1_8 
REMARK    3  A    between atoms: O1_8  and  C8_9 
REMARK    4  A    between atoms: C8_9  and  C9_10 
ROOT
ATOM      1  C9  <0> d           2.347  -4.130  -0.042  0.00  0.00    -0.091 C 
ATOM      2  C10 <0> d           2.212  -5.296  -0.046  0.00  0.00    -0.152 C 
ATOM      3  H10 <0> d           2.090  -6.339  -0.050  0.00  0.00     0.166 H 
ENDROOT
BRANCH   1   4
ATOM      4  C8  <0> d           2.518  -2.668  -0.036  0.00  0.00     0.080 C 
ATOM      5  H8  <0> d           3.061  -2.362  -0.930  0.00  0.00     0.094 H 
ATOM      6  H9  <0> d           3.079  -2.371   0.850  0.00  0.00     0.094 H 
BRANCH   4   7
ATOM      7  O1  <0> d           1.234  -2.039  -0.020  0.00  0.00    -0.340 OA
BRANCH   7   8
ATOM      8  C5  <0> d           1.213  -0.680  -0.013  0.00  0.00     0.070 A 
ATOM      9  C4  <0> d           0.002  -0.004   0.002  0.00  0.00    -0.050 A 
ATOM     10  C3  <0> d          -0.017   1.377   0.010  0.00  0.00    -0.075 A 
ATOM     11  H5  <0> d          -0.925  -0.557   0.008  0.00  0.00     0.087 H 
ATOM     12  C2  <0> d           1.171   2.086   0.002  0.00  0.00    -0.062 A 
ATOM     13  H4  <0> d          -0.960   1.904   0.017  0.00  0.00     0.084 H 
ATOM     14  C7  <0> d           2.379   1.415  -0.013  0.00  0.00    -0.075 A 
ATOM     15  C6  <0> d           2.403   0.033  -0.021  0.00  0.00    -0.050 A 
ATOM     16  H7  <0> d           3.305   1.970  -0.019  0.00  0.00     0.084 H 
ATOM     17  H6  <0> d           3.348  -0.491  -0.032  0.00  0.00     0.087 H 
BRANCH  12  18
ATOM     18  C1  <0> d           1.147   3.593   0.011  0.00  0.00    -0.051 C 
ATOM     19  H1  <0> d           1.151   3.950   1.040  0.00  0.00     0.033 H 
ATOM     20  H2  <0> d           2.026   3.973  -0.510  0.00  0.00     0.033 H 
ATOM     21  H3  <0> d           0.247   3.945  -0.493  0.00  0.00     0.033 H 
ENDBRANCH  12  18
ENDBRANCH   7   8
ENDBRANCH   4   7
ENDBRANCH   1   4
TORSDOF 4
