REMARK  4 active torsions:
REMARK  status: ('A' for Active; 'I' for Inactive)
REMARK    1  A    between atoms: C1_1  and  C2_2 
REMARK    2  A    between atoms: C5_6  and  C9_12 
REMARK    3  A    between atoms: C6_8  and  C8_11 
REMARK    4  A    between atoms: C9_12  and  O1_13 
ROOT
ATOM      1  C2  <0> d           0.283   3.899   1.675  0.00  0.00    -0.057 C 
ATOM      2  H1  <0> d          -0.080   4.916   1.936  0.00  0.00     0.039 H 
ATOM      3  C3  <0> d           0.970   3.338   2.913  0.00  0.00    -0.062 C 
ATOM      4  C4  <0> d           1.291   1.857   2.728  0.00  0.00    -0.059 C 
ATOM      5  C5  <0> d          -0.012   1.088   2.516  0.00  0.00    -0.030 C 
ATOM      6  H2  <0> d          -0.658   1.234   3.386  0.00  0.00     0.043 H 
ATOM      7  C6  <0> d          -0.728   1.579   1.265  0.00  0.00    -0.052 C 
ATOM      8  H3  <0> d          -1.736   1.114   1.263  0.00  0.00     0.040 H 
ATOM      9  C7  <0> d          -0.920   3.083   1.245  0.00  0.00    -0.059 C 
ATOM     10  H7  <0> d           0.316   3.459   3.781  0.00  0.00     0.033 H 
ATOM     11  H8  <0> d           1.897   3.888   3.098  0.00  0.00     0.033 H 
ATOM     12  H9  <0> d           1.782   1.483   3.632  0.00  0.00     0.033 H 
ATOM     13  H10 <0> d           1.960   1.714   1.885  0.00  0.00     0.033 H 
ATOM     14  H11 <0> d          -1.210   3.389   0.228  0.00  0.00     0.034 H 
ATOM     15  H12 <0> d          -1.772   3.339   1.896  0.00  0.00     0.034 H 
ENDROOT
BRANCH   5  16
ATOM     16  C9  <0> d           0.298  -0.406   2.377  0.00  0.00     0.020 C 
ATOM     17  H16 <0> d          -0.622  -0.950   2.163  0.00  0.00     0.074 H 
ATOM     18  H17 <0> d           1.007  -0.556   1.563  0.00  0.00     0.074 H 
BRANCH  16  19
ATOM     19  O1  <0> d           0.865  -0.890   3.597  0.00  0.00    -0.400 OA
ATOM     20  H18 <0> d           1.086  -1.831   3.581  0.00  0.00     0.209 HD
ENDBRANCH  16  19
ENDBRANCH   5  16
BRANCH   7  21
ATOM     21  C8  <0> d          -0.013   1.086   0.008  0.00  0.00    -0.072 C 
ATOM     22  H13 <0> d           0.002  -0.004   0.002  0.00  0.00     0.028 H 
ATOM     23  H14 <0> d           1.010   1.463   0.000  0.00  0.00     0.028 H 
ATOM     24  H15 <0> d          -0.540   1.447  -0.875  0.00  0.00     0.028 H 
ENDBRANCH   7  21
BRANCH   1  25
ATOM     25  C1  <0> d           1.286   4.068   0.534  0.00  0.00    -0.073 C 
ATOM     26  H4  <0> d           1.722   3.100   0.288  0.00  0.00     0.028 H 
ATOM     27  H5  <0> d           0.776   4.470  -0.341  0.00  0.00     0.028 H 
ATOM     28  H6  <0> d           2.075   4.754   0.842  0.00  0.00     0.028 H 
ENDBRANCH   1  25
TORSDOF 4
