REMARK  2 active torsions:
REMARK  status: ('A' for Active; 'I' for Inactive)
REMARK    1  A    between atoms: C6_6  and  C7_7 
REMARK    2  A    between atoms: C7_7  and  O1_8 
ROOT
ATOM      1  C1  <0> d          -0.017   1.383   0.010  0.00  0.00    -0.072 A 
ATOM      2  C2  <0> d           1.149   2.096   0.002  0.00  0.00    -0.052 A 
ATOM      3  C3  <0> d           2.375   1.426  -0.013  0.00  0.00     0.084 A 
ATOM      4  C4  <0> d           2.394   0.021  -0.021  0.00  0.00     0.062 A 
ATOM      5  C5  <0> d           1.200  -0.687  -0.013  0.00  0.00    -0.047 A 
ATOM      6  C6  <0> d           0.002  -0.004   0.002  0.00  0.00    -0.033 A 
ATOM      7  N1  <0> d           3.726  -0.342  -0.035  0.00  0.00    -0.349 N 
ATOM      8  H1  <0> d           4.076  -1.246  -0.044  0.00  0.00     0.167 HD
ATOM      9  C8  <0> d           4.458   0.805  -0.036  0.00  0.00     0.065 A 
ATOM     10  N2  <0> d           3.668   1.839  -0.023  0.00  0.00    -0.242 NA
ATOM     11  H2  <0> d          -0.962   1.905   0.026  0.00  0.00     0.084 H 
ATOM     12  H3  <0> d           1.123   3.176   0.008  0.00  0.00     0.087 H 
ATOM     13  H4  <0> d           1.209  -1.767  -0.019  0.00  0.00     0.088 H 
ATOM     14  H8  <0> d           5.537   0.851  -0.046  0.00  0.00     0.143 H 
ENDROOT
BRANCH   6  15
ATOM     15  C7  <0> d          -1.296  -0.770   0.010  0.00  0.00     0.041 C 
ATOM     16  H5  <0> d          -1.151  -1.724   0.518  0.00  0.00     0.081 H 
ATOM     17  H6  <0> d          -2.056  -0.191   0.535  0.00  0.00     0.081 H 
BRANCH  15  18
ATOM     18  O1  <0> d          -1.719  -1.005  -1.334  0.00  0.00    -0.396 OA
ATOM     19  H7  <0> d          -2.550  -1.495  -1.405  0.00  0.00     0.209 HD
ENDBRANCH  15  18
ENDBRANCH   6  15
TORSDOF 2
