REMARK  2 active torsions:
REMARK  status: ('A' for Active; 'I' for Inactive)
REMARK    1  A    between atoms: C5_6  and  C6_7 
REMARK    2  A    between atoms: C6_7  and  C7_8 
ROOT
ATOM      1  C1  <0> d          -1.223   1.742   0.017  0.00  0.00    -0.059 A 
ATOM      2  C2  <0> d          -0.013   1.076   0.008  0.00  0.00     0.002 A 
ATOM      3  N1  <0> d           1.125   1.743   0.001  0.00  0.00    -0.273 NA
ATOM      4  C3  <0> d           1.155   3.061   0.007  0.00  0.00     0.002 A 
ATOM      5  C4  <0> d          -0.015   3.796   0.022  0.00  0.00    -0.059 A 
ATOM      6  C5  <0> d          -1.231   3.129   0.030  0.00  0.00    -0.045 A 
ATOM      7  H1  <0> d          -2.151   1.190   0.018  0.00  0.00     0.086 H 
ATOM      8  H2  <0> d           0.002  -0.004   0.002  0.00  0.00     0.114 H 
ATOM      9  H3  <0> d           2.107   3.573   0.001  0.00  0.00     0.114 H 
ATOM     10  H4  <0> d           0.016   4.875   0.027  0.00  0.00     0.086 H 
ENDROOT
BRANCH   6  11
ATOM     11  C6  <0> d          -2.530   3.893   0.046  0.00  0.00     0.040 C 
ATOM     12  H5  <0> d          -3.289   3.308   0.564  0.00  0.00     0.056 H 
ATOM     13  H6  <0> d          -2.387   4.842   0.563  0.00  0.00     0.056 H 
BRANCH  11  14
ATOM     14  C7  <0> d          -2.976   4.154  -1.370  0.00  0.00     0.176 C 
ATOM     15  O1  <0> d          -2.308   3.761  -2.296  0.00  0.00    -0.648 OA
ATOM     16  O2  <0> d          -4.115   4.825  -1.601  0.00  0.00    -0.648 OA
ENDBRANCH  11  14
ENDBRANCH   6  11
TORSDOF 2
