REMARK  8 active torsions:
REMARK  status: ('A' for Active; 'I' for Inactive)
REMARK    1  A    between atoms: C1_1  and  C2_2 
REMARK    2  A    between atoms: C2_2  and  O1_3 
REMARK    3  A    between atoms: O1_3  and  C3_4 
REMARK    4  A    between atoms: C3_4  and  C4_5 
REMARK       I    between atoms: C4_5  and  N1_7 
REMARK    5  A    between atoms: N1_7  and  C5_8 
REMARK    6  A    between atoms: C5_8  and  C6_9 
REMARK    7  A    between atoms: C5_8  and  C7_10 
REMARK    8  A    between atoms: C5_8  and  C8_11 
ROOT
ATOM      1  C4  <0> d          -0.014   1.209   0.009  0.00  0.00     0.241 C 
ATOM      2  O2  <0> d           0.002  -0.004   0.002  0.00  0.00    -0.271 OA
ATOM      3  N1  <0> d           1.143   1.898   0.001  0.00  0.00    -0.351 N 
ATOM      4  H8  <0> d           1.130   2.868   0.007  0.00  0.00     0.163 HD
ENDROOT
BRANCH   3   5
ATOM      5  C5  <0> d           2.422   1.183  -0.015  0.00  0.00     0.022 C 
BRANCH   5   6
ATOM      6  C6  <0> d           2.503   0.311  -1.270  0.00  0.00    -0.054 C 
ATOM      7  H9  <0> d           2.428   0.942  -2.155  0.00  0.00     0.030 H 
ATOM      8  H10 <0> d           3.454  -0.221  -1.281  0.00  0.00     0.030 H 
ATOM      9  H11 <0> d           1.684  -0.408  -1.266  0.00  0.00     0.030 H 
ENDBRANCH   5   6
BRANCH   5  10
ATOM     10  C7  <0> d           3.571   2.193  -0.020  0.00  0.00    -0.054 C 
ATOM     11  H12 <0> d           3.514   2.814   0.874  0.00  0.00     0.030 H 
ATOM     12  H13 <0> d           4.522   1.661  -0.032  0.00  0.00     0.030 H 
ATOM     13  H14 <0> d           3.497   2.824  -0.906  0.00  0.00     0.030 H 
ENDBRANCH   5  10
BRANCH   5  14
ATOM     14  C8  <0> d           2.527   0.298   1.229  0.00  0.00    -0.054 C 
ATOM     15  H15 <0> d           1.708  -0.421   1.233  0.00  0.00     0.030 H 
ATOM     16  H16 <0> d           3.478  -0.234   1.217  0.00  0.00     0.030 H 
ATOM     17  H17 <0> d           2.469   0.919   2.123  0.00  0.00     0.030 H 
ENDBRANCH   5  14
ENDBRANCH   3   5
BRANCH   1  18
ATOM     18  C3  <0> d          -1.330   1.944   0.019  0.00  0.00     0.093 C 
ATOM     19  H6  <0> d          -1.392   2.565   0.913  0.00  0.00     0.089 H 
ATOM     20  H7  <0> d          -1.400   2.575  -0.867  0.00  0.00     0.089 H 
BRANCH  18  21
ATOM     21  O1  <0> d          -2.403   1.001   0.019  0.00  0.00    -0.382 OA
BRANCH  21  22
ATOM     22  C2  <0> d          -3.701   1.598   0.028  0.00  0.00     0.017 C 
ATOM     23  H4  <0> d          -3.812   2.212   0.922  0.00  0.00     0.073 H 
ATOM     24  H5  <0> d          -3.821   2.221  -0.858  0.00  0.00     0.073 H 
BRANCH  22  25
ATOM     25  C1  <0> d          -4.767   0.500   0.027  0.00  0.00    -0.056 C 
ATOM     26  H1  <0> d          -4.656  -0.113  -0.867  0.00  0.00     0.030 H 
ATOM     27  H2  <0> d          -4.648  -0.123   0.913  0.00  0.00     0.030 H 
ATOM     28  H3  <0> d          -5.758   0.956   0.035  0.00  0.00     0.030 H 
ENDBRANCH  22  25
ENDBRANCH  21  22
ENDBRANCH  18  21
ENDBRANCH   1  18
TORSDOF 8
