REMARK  2 active torsions:
REMARK  status: ('A' for Active; 'I' for Inactive)
REMARK    1  A    between atoms: C3_3  and  C5_6 
REMARK    2  A    between atoms: C7_9  and  C8_11 
ROOT
ATOM      1  C5  <0> d           1.735   3.249   0.003  0.00  0.00     0.007 A 
ATOM      2  H1  <0> d           0.804   3.604  -0.463  0.00  0.00     0.051 H 
ATOM      3  C6  <0> d           3.228   3.502  -0.214  0.00  0.00    -0.042 A 
ATOM      4  C7  <0> d           2.611   3.702   1.172  0.00  0.00     0.040 A 
ATOM      5  H2  <0> d           2.578   4.522   1.904  0.00  0.00     0.057 H 
ATOM      6  H6  <0> d           3.710   2.578  -0.564  0.00  0.00     0.035 H 
ATOM      7  H7  <0> d           3.360   4.293  -0.967  0.00  0.00     0.035 H 
ENDROOT
BRANCH   1   8
ATOM      8  C3  <0> d           1.265   1.817  -0.000  0.00  0.00     0.057 A 
ATOM      9  C2  <0> d          -0.017   1.410   0.010  0.00  0.00    -0.052 A 
ATOM     10  C1  <0> d           0.002  -0.004   0.002  0.00  0.00    -0.059 A 
ATOM     11  H4  <0> d          -0.893   2.041   0.018  0.00  0.00     0.087 H 
ATOM     12  C4  <0> d           1.295  -0.376  -0.012  0.00  0.00     0.019 A 
ATOM     13  H3  <0> d          -0.856  -0.659   0.007  0.00  0.00     0.086 H 
ATOM     14  O1  <0> d           2.055   0.731  -0.014  0.00  0.00    -0.327 OA
ATOM     15  H5  <0> d           1.659  -1.393  -0.022  0.00  0.00     0.123 H 
ENDBRANCH   1   8
BRANCH   4  16
ATOM     16  C8  <0> d           2.938   2.683   2.233  0.00  0.00     0.177 C 
ATOM     17  O2  <0> d           2.512   1.556   2.140  0.00  0.00    -0.648 OA
ATOM     18  O3  <0> d           3.703   3.027   3.281  0.00  0.00    -0.648 OA
ENDBRANCH   4  16
TORSDOF 2
