REMARK  4 active torsions:
REMARK  status: ('A' for Active; 'I' for Inactive)
REMARK    1  A    between atoms: C1_1  and  C2_2 
REMARK    2  A    between atoms: C5_6  and  C8_11 
REMARK    3  A    between atoms: C8_11  and  C9_12 
REMARK    4  A    between atoms: C8_11  and  C10_13 
ROOT
ATOM      1  C2  <0> d           0.002  -0.004   0.002  0.00  0.00    -0.051 C 
ATOM      2  H1  <0> d          -1.020  -0.382   0.010  0.00  0.00     0.040 H 
ATOM      3  C3  <0> d           0.719  -0.498  -1.256  0.00  0.00    -0.061 C 
ATOM      4  C4  <0> d           2.125   0.100  -1.320  0.00  0.00    -0.055 C 
ATOM      5  C5  <0> d           2.947  -0.404  -0.129  0.00  0.00     0.007 C 
ATOM      6  H2  <0> d           3.090  -1.481  -0.212  0.00  0.00     0.052 H 
ATOM      7  C6  <0> d           2.193  -0.088   1.144  0.00  0.00     0.131 C 
ATOM      8  O1  <0> d           2.733   0.488   2.057  0.00  0.00    -0.298 OA
ATOM      9  C7  <0> d           0.744  -0.512   1.243  0.00  0.00    -0.006 C 
ATOM     10  H6  <0> d           0.788  -1.585  -1.230  0.00  0.00     0.033 H 
ATOM     11  H7  <0> d           0.155  -0.192  -2.138  0.00  0.00     0.033 H 
ATOM     12  H8  <0> d           2.607  -0.204  -2.249  0.00  0.00     0.034 H 
ATOM     13  H9  <0> d           2.060   1.187  -1.283  0.00  0.00     0.034 H 
ATOM     14  H10 <0> d           0.296  -0.081   2.139  0.00  0.00     0.044 H 
ATOM     15  H11 <0> d           0.682  -1.599   1.287  0.00  0.00     0.044 H 
ENDROOT
BRANCH   5  16
ATOM     16  C8  <0> d           4.308   0.295  -0.111  0.00  0.00    -0.051 C 
ATOM     17  H12 <0> d           4.163   1.371  -0.021  0.00  0.00     0.040 H 
BRANCH  16  18
ATOM     18  C9  <0> d           5.125  -0.211   1.079  0.00  0.00    -0.072 C 
ATOM     19  H13 <0> d           5.271  -1.287   0.989  0.00  0.00     0.028 H 
ATOM     20  H14 <0> d           6.095   0.287   1.092  0.00  0.00     0.028 H 
ATOM     21  H15 <0> d           4.593   0.008   2.005  0.00  0.00     0.028 H 
ENDBRANCH  16  18
BRANCH  16  22
ATOM     22  C10 <0> d           5.056  -0.012  -1.410  0.00  0.00    -0.072 C 
ATOM     23  H16 <0> d           4.473   0.348  -2.259  0.00  0.00     0.028 H 
ATOM     24  H17 <0> d           6.025   0.486  -1.398  0.00  0.00     0.028 H 
ATOM     25  H18 <0> d           5.201  -1.088  -1.501  0.00  0.00     0.028 H 
ENDBRANCH  16  22
ENDBRANCH   5  16
BRANCH   1  26
ATOM     26  C1  <0> d          -0.019   1.526   0.010  0.00  0.00    -0.073 C 
ATOM     27  H3  <0> d           1.004   1.903   0.003  0.00  0.00     0.028 H 
ATOM     28  H4  <0> d          -0.546   1.887  -0.873  0.00  0.00     0.028 H 
ATOM     29  H5  <0> d          -0.529   1.877   0.907  0.00  0.00     0.028 H 
ENDBRANCH   1  26
TORSDOF 4
