REMARK  2 active torsions:
REMARK  status: ('A' for Active; 'I' for Inactive)
REMARK    1  A    between atoms: C1_1  and  C2_2 
REMARK    2  A    between atoms: C5_5  and  C8_8 
ROOT
ATOM      1  C2  <0> d          -3.325   6.430   0.068  0.00  0.00    -0.062 A 
ATOM      2  C3  <0> d          -3.870   5.159   0.066  0.00  0.00    -0.076 A 
ATOM      3  C4  <0> d          -3.045   4.052   0.052  0.00  0.00    -0.070 A 
ATOM      4  C5  <0> d          -1.662   4.217   0.040  0.00  0.00    -0.006 A 
ATOM      5  C6  <0> d          -1.118   5.500   0.047  0.00  0.00    -0.070 A 
ATOM      6  C7  <0> d          -1.952   6.600   0.056  0.00  0.00    -0.076 A 
ATOM      7  H5  <0> d          -4.942   5.032   0.076  0.00  0.00     0.084 H 
ATOM      8  H6  <0> d          -3.472   3.060   0.052  0.00  0.00     0.084 H 
ATOM      9  H7  <0> d          -0.047   5.633   0.042  0.00  0.00     0.084 H 
ATOM     10  H8  <0> d          -1.532   7.595   0.058  0.00  0.00     0.084 H 
ENDROOT
BRANCH   4  11
ATOM     11  C8  <0> d          -0.770   3.031   0.026  0.00  0.00     0.088 A 
ATOM     12  N2  <0> d          -1.156   1.772   0.017  0.00  0.00    -0.175 NA
ATOM     13  N1  <0> d          -0.011   0.966   0.007  0.00  0.00    -0.289 N 
ATOM     14  C10 <0> d           1.071   1.773   0.001  0.00  0.00    -0.002 A 
ATOM     15  H1  <0> d           0.003  -0.034   0.006  0.00  0.00     0.188 HD
ATOM     16  C9  <0> d           0.638   3.052   0.012  0.00  0.00    -0.036 A 
ATOM     17  H10 <0> d           2.103   1.452  -0.010  0.00  0.00     0.113 H 
ATOM     18  H9  <0> d           1.260   3.935   0.011  0.00  0.00     0.089 H 
ENDBRANCH   4  11
BRANCH   1  19
ATOM     19  C1  <0> d          -4.230   7.635   0.082  0.00  0.00    -0.051 C 
ATOM     20  H2  <0> d          -4.438   7.921   1.113  0.00  0.00     0.033 H 
ATOM     21  H3  <0> d          -3.741   8.463  -0.432  0.00  0.00     0.033 H 
ATOM     22  H4  <0> d          -5.165   7.394  -0.424  0.00  0.00     0.033 H 
ENDBRANCH   1  19
TORSDOF 2
