REMARK  1 active torsions:
REMARK  status: ('A' for Active; 'I' for Inactive)
REMARK    1  A    between atoms: C1_1  and  C2_2 
ROOT
ATOM      1  C2  <0> d          -1.179  -0.770   0.010  0.00  0.00    -0.030 A 
ATOM      2  C3  <0> d          -1.049  -2.131   0.002  0.00  0.00     0.030 A 
ATOM      3  N1  <0> d           0.150  -2.697  -0.013  0.00  0.00    -0.162 NA
ATOM      4  N2  <0> d           1.246  -2.027  -0.020  0.00  0.00    -0.150 NA
ATOM      5  C4  <0> d           1.244  -0.691  -0.014  0.00  0.00     0.089 A 
ATOM      6  C5  <0> d           0.002  -0.004   0.002  0.00  0.00     0.002 A 
ATOM      7  C6  <0> d          -0.017   1.398   0.010  0.00  0.00    -0.070 A 
ATOM      8  C7  <0> d           1.160   2.084   0.002  0.00  0.00    -0.082 A 
ATOM      9  C8  <0> d           2.381   1.412  -0.013  0.00  0.00    -0.081 A 
ATOM     10  C9  <0> d           2.436   0.052  -0.021  0.00  0.00    -0.053 A 
ATOM     11  H4  <0> d          -1.933  -2.751   0.007  0.00  0.00     0.118 H 
ATOM     12  H5  <0> d          -0.957   1.929   0.017  0.00  0.00     0.084 H 
ATOM     13  H6  <0> d           1.146   3.164   0.008  0.00  0.00     0.083 H 
ATOM     14  H7  <0> d           3.299   1.980  -0.019  0.00  0.00     0.083 H 
ATOM     15  H8  <0> d           3.390  -0.453  -0.033  0.00  0.00     0.087 H 
ENDROOT
BRANCH   1  16
ATOM     16  C1  <0> d          -2.536  -0.114   0.027  0.00  0.00    -0.049 C 
ATOM     17  H1  <0> d          -2.873   0.049  -0.997  0.00  0.00     0.033 H 
ATOM     18  H2  <0> d          -3.245  -0.760   0.544  0.00  0.00     0.033 H 
ATOM     19  H3  <0> d          -2.470   0.842   0.545  0.00  0.00     0.033 H 
ENDBRANCH   1  16
TORSDOF 1
