REMARK  2 active torsions:
REMARK  status: ('A' for Active; 'I' for Inactive)
REMARK    1  A    between atoms: C1_1  and  C2_2 
REMARK    2  A    between atoms: C4_7  and  C5_8 
ROOT
ATOM      1  C2  <0> d          -0.017   1.406   0.010  0.00  0.00    -0.012 A 
ATOM      2  C3  <0> d           1.262   1.837  -0.000  0.00  0.00     0.004 A 
ATOM      3  N1  <0> d           2.069   0.754  -0.014  0.00  0.00    -0.288 N 
ATOM      4  H1  <0> d           3.069   0.766  -0.023  0.00  0.00     0.188 HD
ATOM      5  N2  <0> d           1.262  -0.391  -0.012  0.00  0.00    -0.172 NA
ATOM      6  C4  <0> d           0.002  -0.004   0.002  0.00  0.00     0.118 A 
ATOM      7  H5  <0> d           1.585   2.868   0.002  0.00  0.00     0.114 H 
ENDROOT
BRANCH   6   8
ATOM      8  C5  <0> d          -1.181  -0.891   0.009  0.00  0.00     0.105 A 
ATOM      9  O1  <0> d          -2.341  -0.656   0.652  0.00  0.00    -0.320 OA
ATOM     10  C8  <0> d          -3.188  -1.675   0.431  0.00  0.00     0.019 A 
ATOM     11  C7  <0> d          -2.575  -2.583  -0.352  0.00  0.00    -0.059 A 
ATOM     12  H8  <0> d          -4.193  -1.754   0.820  0.00  0.00     0.123 H 
ATOM     13  C6  <0> d          -1.285  -2.087  -0.628  0.00  0.00    -0.046 A 
ATOM     14  H7  <0> d          -2.993  -3.515  -0.702  0.00  0.00     0.086 H 
ATOM     15  H6  <0> d          -0.526  -2.565  -1.229  0.00  0.00     0.087 H 
ENDBRANCH   6   8
BRANCH   1  16
ATOM     16  C1  <0> d          -1.247   2.277   0.021  0.00  0.00    -0.048 C 
ATOM     17  H2  <0> d          -1.538   2.481   1.051  0.00  0.00     0.033 H 
ATOM     18  H3  <0> d          -1.032   3.216  -0.489  0.00  0.00     0.033 H 
ATOM     19  H4  <0> d          -2.060   1.763  -0.492  0.00  0.00     0.033 H 
ENDBRANCH   1  16
TORSDOF 2
