REMARK  3 active torsions:
REMARK  status: ('A' for Active; 'I' for Inactive)
REMARK    1  A    between atoms: C1_1  and  C2_2 
REMARK    2  A    between atoms: C7_8  and  C8_10 
REMARK    3  A    between atoms: C8_10  and  C9_11 
ROOT
ATOM      1  C2  <0> d          -2.301  -3.058   0.133  0.00  0.00    -0.054 C 
ATOM      2  H1  <0> d          -2.958  -2.813  -0.701  0.00  0.00     0.040 H 
ATOM      3  C3  <0> d          -2.001  -4.558   0.122  0.00  0.00    -0.062 C 
ATOM      4  C4  <0> d          -1.315  -4.932  -1.194  0.00  0.00    -0.065 C 
ATOM      5  C5  <0> d          -0.007  -4.149  -1.328  0.00  0.00    -0.065 C 
ATOM      6  C6  <0> d          -0.307  -2.649  -1.317  0.00  0.00    -0.061 C 
ATOM      7  C7  <0> d          -0.993  -2.276  -0.001  0.00  0.00    -0.042 C 
ATOM      8  H2  <0> d          -0.335  -2.521   0.834  0.00  0.00     0.041 H 
ATOM      9  H6  <0> d          -2.932  -5.116   0.218  0.00  0.00     0.033 H 
ATOM     10  H7  <0> d          -1.343  -4.804   0.957  0.00  0.00     0.033 H 
ATOM     11  H8  <0> d          -1.973  -4.687  -2.028  0.00  0.00     0.033 H 
ATOM     12  H9  <0> d          -1.102  -6.001  -1.201  0.00  0.00     0.033 H 
ATOM     13  H10 <0> d           0.481  -4.415  -2.265  0.00  0.00     0.033 H 
ATOM     14  H11 <0> d           0.650  -4.394  -0.493  0.00  0.00     0.033 H 
ATOM     15  H12 <0> d          -0.965  -2.404  -2.151  0.00  0.00     0.033 H 
ATOM     16  H13 <0> d           0.624  -2.091  -1.412  0.00  0.00     0.033 H 
ENDROOT
BRANCH   7  17
ATOM     17  C8  <0> d          -1.293  -0.775   0.010  0.00  0.00     0.019 C 
ATOM     18  H14 <0> d          -1.859  -0.524   0.907  0.00  0.00     0.049 H 
ATOM     19  H15 <0> d          -1.876  -0.515  -0.873  0.00  0.00     0.049 H 
BRANCH  17  20
ATOM     20  C9  <0> d           0.002  -0.004   0.002  0.00  0.00     0.172 C 
ATOM     21  O1  <0> d           1.056  -0.594  -0.011  0.00  0.00    -0.648 OA
ATOM     22  O2  <0> d          -0.016   1.338   0.009  0.00  0.00    -0.648 OA
ENDBRANCH  17  20
ENDBRANCH   7  17
BRANCH   1  23
ATOM     23  C1  <0> d          -2.986  -2.685   1.449  0.00  0.00    -0.073 C 
ATOM     24  H3  <0> d          -3.200  -1.616   1.457  0.00  0.00     0.028 H 
ATOM     25  H4  <0> d          -3.918  -3.242   1.545  0.00  0.00     0.028 H 
ATOM     26  H5  <0> d          -2.329  -2.930   2.284  0.00  0.00     0.028 H 
ENDBRANCH   1  23
TORSDOF 3
