REMARK  3 active torsions:
REMARK  status: ('A' for Active; 'I' for Inactive)
REMARK    1  A    between atoms: C1_1  and  C2_2 
REMARK    2  A    between atoms: C3_3  and  C6_8 
REMARK    3  A    between atoms: C3_3  and  C7_9 
ROOT
ATOM      1  C2  <0> d           0.002  -0.004   0.002  0.00  0.00     0.126 C 
ATOM      2  C3  <0> d          -1.438  -0.559   0.076  0.00  0.00    -0.001 C 
ATOM      3  C4  <0> d          -1.618  -0.767   1.597  0.00  0.00     0.019 C 
ATOM      4  C5  <0> d          -0.207  -0.940   2.118  0.00  0.00     0.219 C 
ATOM      5  O1  <0> d           0.082  -1.399   3.202  0.00  0.00    -0.274 OA
ATOM      6  N1  <0> d           0.678  -0.509   1.202  0.00  0.00    -0.339 N 
ATOM      7  C8  <0> d           0.678  -0.497  -1.209  0.00  0.00     0.091 C 
ATOM      8  N2  <0> d           1.200  -0.877  -2.144  0.00  0.00    -0.195 NA
ATOM      9  H4  <0> d          -2.087   0.106   2.050  0.00  0.00     0.048 H 
ATOM     10  H5  <0> d          -2.208  -1.663   1.793  0.00  0.00     0.048 H 
ATOM     11  H6  <0> d           1.641  -0.530   1.320  0.00  0.00     0.164 HD
ENDROOT
BRANCH   1  12
ATOM     12  C1  <0> d          -0.019   1.526   0.010  0.00  0.00    -0.040 C 
ATOM     13  H1  <0> d           1.004   1.903   0.003  0.00  0.00     0.032 H 
ATOM     14  H2  <0> d          -0.546   1.887  -0.873  0.00  0.00     0.032 H 
ATOM     15  H3  <0> d          -0.529   1.877   0.907  0.00  0.00     0.032 H 
ENDBRANCH   1  12
BRANCH   2  16
ATOM     16  C6  <0> d          -2.445   0.461  -0.460  0.00  0.00    -0.066 C 
ATOM     17  H7  <0> d          -2.212   0.690  -1.499  0.00  0.00     0.028 H 
ATOM     18  H8  <0> d          -3.451   0.045  -0.396  0.00  0.00     0.028 H 
ATOM     19  H9  <0> d          -2.391   1.373   0.135  0.00  0.00     0.028 H 
ENDBRANCH   2  16
BRANCH   2  20
ATOM     20  C7  <0> d          -1.553  -1.886  -0.676  0.00  0.00    -0.066 C 
ATOM     21  H10 <0> d          -0.874  -2.615  -0.233  0.00  0.00     0.028 H 
ATOM     22  H11 <0> d          -2.576  -2.255  -0.609  0.00  0.00     0.028 H 
ATOM     23  H12 <0> d          -1.290  -1.734  -1.723  0.00  0.00     0.028 H 
ENDBRANCH   2  20
TORSDOF 3
