REMARK  3 active torsions:
REMARK  status: ('A' for Active; 'I' for Inactive)
REMARK    1  A    between atoms: C1_1  and  O1_2 
REMARK    2  A    between atoms: O1_2  and  C2_3 
REMARK    3  A    between atoms: C2_3  and  C3_5 
ROOT
ATOM      1  C3  <0> d           3.092   2.407  -1.114  0.00  0.00     0.103 A 
ATOM      2  C4  <0> d           1.832   1.825  -1.198  0.00  0.00    -0.005 A 
ATOM      3  C5  <0> d           1.223   1.533  -0.001  0.00  0.00     0.208 A 
ATOM      4  N1  <0> d           1.825   1.805   1.135  0.00  0.00    -0.183 NA
ATOM      5  S1  <0> d           3.315   2.493   0.654  0.00  0.00     0.020 SA
ATOM      6  O3  <0> d          -0.011   0.963   0.007  0.00  0.00    -0.170 OA
ATOM      7  H4  <0> d           1.361   1.617  -2.147  0.00  0.00     0.092 H 
ENDROOT
BRANCH   1   8
ATOM      8  C2  <0> d           3.997   2.835  -2.190  0.00  0.00     0.301 C 
ATOM      9  O2  <0> d           3.668   2.694  -3.352  0.00  0.00    -0.259 OA
BRANCH   8  10
ATOM     10  O1  <0> d           5.191   3.384  -1.889  0.00  0.00    -0.322 OA
BRANCH  10  11
ATOM     11  C1  <0> d           6.032   3.783  -3.003  0.00  0.00     0.013 C 
ATOM     12  H1  <0> d           6.970   4.212  -2.619  0.00  0.00     0.067 H 
ATOM     13  H2  <0> d           5.506   4.535  -3.609  0.00  0.00     0.067 H 
ATOM     14  H3  <0> d           6.259   2.905  -3.625  0.00  0.00     0.067 H 
ENDBRANCH  10  11
ENDBRANCH   8  10
ENDBRANCH   1   8
TORSDOF 3
