REMARK  2 active torsions:
REMARK  status: ('A' for Active; 'I' for Inactive)
REMARK    1  A    between atoms: C6_6  and  N1_7 
REMARK    2  A    between atoms: C7_8  and  O1_12 
ROOT
ATOM      1  C1  <0> d          -0.017   1.391   0.010  0.00  0.00    -0.056 A 
ATOM      2  C2  <0> d           1.147   2.105   0.002  0.00  0.00    -0.053 A 
ATOM      3  C3  <0> d           2.372   1.443  -0.013  0.00  0.00     0.065 A 
ATOM      4  C4  <0> d           2.402   0.035  -0.021  0.00  0.00     0.049 A 
ATOM      5  C5  <0> d           1.204  -0.685  -0.013  0.00  0.00    -0.041 A 
ATOM      6  C6  <0> d           0.002  -0.004   0.002  0.00  0.00     0.026 A 
ATOM      7  C7  <0> d           3.815  -0.345  -0.038  0.00  0.00     0.194 A 
ATOM      8  N2  <0> d           4.522   0.752  -0.039  0.00  0.00    -0.148 NA
ATOM      9  N3  <0> d           3.678   1.867  -0.025  0.00  0.00    -0.275 N 
ATOM     10  H1  <0> d           3.969   2.792  -0.023  0.00  0.00     0.189 HD
ATOM     11  H2  <0> d          -0.963   1.912   0.026  0.00  0.00     0.087 H 
ATOM     12  H3  <0> d           1.117   3.184   0.009  0.00  0.00     0.087 H 
ATOM     13  H4  <0> d           1.217  -1.765  -0.019  0.00  0.00     0.088 H 
ENDROOT
BRANCH   6  14
ATOM     14  N1  <0> d          -1.202  -0.717   0.010  0.00  0.00    -0.399 N 
ATOM     15  H5  <0> d          -2.048  -0.241   0.021  0.00  0.00     0.156 HD
ATOM     16  H6  <0> d          -1.192  -1.687   0.005  0.00  0.00     0.156 HD
ENDBRANCH   6  14
BRANCH   7  17
ATOM     17  O1  <0> d           4.303  -1.614  -0.049  0.00  0.00    -0.343 OA
ATOM     18  H7  <0> d           4.435  -1.977  -0.935  0.00  0.00     0.219 HD
ENDBRANCH   7  17
TORSDOF 2
