REMARK  2 active torsions:
REMARK  status: ('A' for Active; 'I' for Inactive)
REMARK    1  A    between atoms: C1_1  and  C2_2 
REMARK    2  A    between atoms: C2_2  and  C9_11 
REMARK       I    between atoms: C9_11  and  N1_13 
ROOT
ATOM      1  C2  <0> d           1.045   3.248  -0.427  0.00  0.00     0.044 C 
ATOM      2  C3  <0> d           1.378   1.797  -0.002  0.00  0.00    -0.043 C 
ATOM      3  C4  <0> d          -0.013   1.086   0.008  0.00  0.00    -0.036 C 
ATOM      4  H1  <0> d           0.002  -0.004   0.002  0.00  0.00     0.046 H 
ATOM      5  C5  <0> d          -0.699   1.789  -1.220  0.00  0.00    -0.051 C 
ATOM      6  C6  <0> d          -0.505   3.229  -0.621  0.00  0.00    -0.022 C 
ATOM      7  H2  <0> d          -0.930   4.057  -1.189  0.00  0.00     0.048 H 
ATOM      8  C7  <0> d          -1.055   3.023   0.796  0.00  0.00    -0.101 C 
ATOM      9  C8  <0> d          -0.763   1.750   1.169  0.00  0.00    -0.102 C 
ATOM     10  H6  <0> d           1.823   1.782   0.994  0.00  0.00     0.035 H 
ATOM     11  H7  <0> d           2.044   1.326  -0.725  0.00  0.00     0.035 H 
ATOM     12  H8  <0> d          -0.137   1.656  -2.145  0.00  0.00     0.035 H 
ATOM     13  H9  <0> d          -1.746   1.506  -1.331  0.00  0.00     0.035 H 
ATOM     14  H10 <0> d          -1.584   3.760   1.382  0.00  0.00     0.077 H 
ATOM     15  H11 <0> d          -1.003   1.285   2.114  0.00  0.00     0.076 H 
ENDROOT
BRANCH   1  16
ATOM     16  C1  <0> d           1.438   4.235   0.674  0.00  0.00    -0.060 C 
ATOM     17  H3  <0> d           2.513   4.178   0.847  0.00  0.00     0.029 H 
ATOM     18  H4  <0> d           1.172   5.246   0.367  0.00  0.00     0.029 H 
ATOM     19  H5  <0> d           0.909   3.983   1.593  0.00  0.00     0.029 H 
ENDBRANCH   1  16
BRANCH   1  20
ATOM     20  C9  <0> d           1.740   3.594  -1.719  0.00  0.00     0.224 C 
ATOM     21  O1  <0> d           1.087   3.885  -2.699  0.00  0.00    -0.273 OA
ATOM     22  N1  <0> d           3.086   3.579  -1.785  0.00  0.00    -0.369 N 
ATOM     23  H12 <0> d           3.607   3.345  -1.002  0.00  0.00     0.159 HD
ATOM     24  H13 <0> d           3.533   3.801  -2.617  0.00  0.00     0.159 HD
ENDBRANCH   1  20
TORSDOF 2
