REMARK  1 active torsions:
REMARK  status: ('A' for Active; 'I' for Inactive)
REMARK    1  A    between atoms: C4_4  and  N1_7 
ROOT
ATOM      1  C1  <0> d          -5.102   0.631   0.025  0.00  0.00    -0.083 A 
ATOM      2  C2  <0> d          -4.799   1.980   0.032  0.00  0.00    -0.081 A 
ATOM      3  C3  <0> d          -3.481   2.393   0.029  0.00  0.00    -0.057 A 
ATOM      4  C4  <0> d          -2.460   1.453   0.020  0.00  0.00     0.041 A 
ATOM      5  C5  <0> d          -2.767   0.099   0.008  0.00  0.00    -0.057 A 
ATOM      6  C6  <0> d          -4.087  -0.308   0.016  0.00  0.00    -0.081 A 
ATOM      7  H1  <0> d          -6.133   0.310   0.027  0.00  0.00     0.083 H 
ATOM      8  H2  <0> d          -5.593   2.712   0.039  0.00  0.00     0.083 H 
ATOM      9  H3  <0> d          -3.244   3.447   0.035  0.00  0.00     0.086 H 
ATOM     10  H4  <0> d          -1.975  -0.635  -0.004  0.00  0.00     0.086 H 
ATOM     11  H5  <0> d          -4.327  -1.361   0.011  0.00  0.00     0.083 H 
ENDROOT
BRANCH   4  12
ATOM     12  N1  <0> d          -1.120   1.869   0.017  0.00  0.00    -0.297 N 
ATOM     13  C8  <0> d          -0.658   3.152   0.025  0.00  0.00     0.093 A 
ATOM     14  N3  <0> d           0.646   3.092   0.013  0.00  0.00    -0.144 NA
ATOM     15  H7  <0> d          -1.259   4.049   0.036  0.00  0.00     0.147 H 
ATOM     16  N2  <0> d           1.027   1.865   0.002  0.00  0.00    -0.144 NA
ATOM     17  C7  <0> d          -0.013   1.076   0.008  0.00  0.00     0.093 A 
ATOM     18  H6  <0> d           0.002  -0.004   0.002  0.00  0.00     0.147 H 
ENDBRANCH   4  12
TORSDOF 1
