REMARK  4 active torsions:
REMARK  status: ('A' for Active; 'I' for Inactive)
REMARK    1  A    between atoms: C2_2  and  C3_3 
REMARK    2  A    between atoms: C4_4  and  C5_5 
REMARK    3  A    between atoms: C5_5  and  C6_6 
REMARK    4  A    between atoms: C6_6  and  O1_7 
ROOT
ATOM      1  C5  <0> d          -1.228   5.802   0.039  0.00  0.00     0.011 C 
ATOM      2  H4  <0> d          -2.260   6.151   0.046  0.00  0.00     0.055 H 
ATOM      3  H5  <0> d          -0.714   6.168   0.929  0.00  0.00     0.055 H 
ENDROOT
BRANCH   1   4
ATOM      4  C4  <0> d          -1.208   4.330   0.031  0.00  0.00    -0.100 C 
ATOM      5  C3  <0> d          -1.192   3.156   0.025  0.00  0.00    -0.079 C 
BRANCH   5   6
ATOM      6  C2  <0> d          -1.172   1.724   0.017  0.00  0.00    -0.042 C 
ATOM      7  C1  <0> d          -0.013   1.076   0.008  0.00  0.00    -0.114 C 
ATOM      8  H1  <0> d           0.002  -0.004   0.002  0.00  0.00     0.067 H 
ATOM      9  H2  <0> d           0.915   1.629   0.002  0.00  0.00     0.067 H 
ATOM     10  H3  <0> d          -2.100   1.172   0.018  0.00  0.00     0.096 H 
ENDBRANCH   5   6
ENDBRANCH   1   4
BRANCH   1  11
ATOM     11  C6  <0> d          -0.519   6.329  -1.210  0.00  0.00     0.026 C 
ATOM     12  H6  <0> d           0.513   5.979  -1.217  0.00  0.00     0.075 H 
ATOM     13  H7  <0> d          -1.032   5.963  -2.100  0.00  0.00     0.075 H 
BRANCH  11  14
ATOM     14  O1  <0> d          -0.539   7.757  -1.202  0.00  0.00    -0.400 OA
ATOM     15  H8  <0> d          -0.106   8.161  -1.967  0.00  0.00     0.209 HD
ENDBRANCH  11  14
ENDBRANCH   1  11
TORSDOF 4
