REMARK  0 active torsions:
REMARK  status: ('A' for Active; 'I' for Inactive)
ROOT
ATOM      1  C1  <0> d           0.002  -0.004   0.002  0.00  0.00    -0.008 A 
ATOM      2  C2  <0> d          -0.017   1.380   0.010  0.00  0.00     0.122 A 
ATOM      3  C3  <0> d           1.173   2.088   0.002  0.00  0.00    -0.008 A 
ATOM      4  C4  <0> d           2.381   1.413  -0.015  0.00  0.00     0.122 A 
ATOM      5  C5  <0> d           2.400   0.029  -0.021  0.00  0.00    -0.008 A 
ATOM      6  C6  <0> d           1.210  -0.680  -0.013  0.00  0.00     0.122 A 
ATOM      7  F1  <0> d           1.228  -2.031  -0.020  0.00  0.00    -0.206 F 
ATOM      8  F2  <0> d           3.541   2.104  -0.021  0.00  0.00    -0.206 F 
ATOM      9  F3  <0> d          -1.196   2.040   0.019  0.00  0.00    -0.206 F 
ATOM     10  H1  <0> d          -0.926  -0.557   0.008  0.00  0.00     0.092 H 
ATOM     11  H2  <0> d           1.158   3.168   0.008  0.00  0.00     0.092 H 
ATOM     12  H3  <0> d           3.342  -0.499  -0.032  0.00  0.00     0.092 H 
ENDROOT
TORSDOF 0
