REMARK  0 active torsions:
REMARK  status: ('A' for Active; 'I' for Inactive)
ROOT
ATOM      1  C1  <0> d           1.198  -0.700  -0.013  0.00  0.00    -0.029 A 
ATOM      2  C2  <0> d           0.002  -0.004   0.002  0.00  0.00     0.006 A 
ATOM      3  N1  <0> d          -0.016   1.312   0.009  0.00  0.00    -0.250 NA
ATOM      4  C3  <0> d           1.105   2.025   0.002  0.00  0.00     0.139 A 
ATOM      5  C4  <0> d           2.347   1.393  -0.013  0.00  0.00    -0.008 A 
ATOM      6  C5  <0> d           2.396   0.005  -0.020  0.00  0.00     0.120 A 
ATOM      7  F1  <0> d           3.580  -0.644  -0.035  0.00  0.00    -0.206 F 
ATOM      8  C6  <0> d           1.037   3.455   0.011  0.00  0.00     0.119 C 
ATOM      9  N2  <0> d           0.983   4.590   0.017  0.00  0.00    -0.190 NA
ATOM     10  H1  <0> d           1.202  -1.779  -0.018  0.00  0.00     0.090 H 
ATOM     11  H2  <0> d          -0.930  -0.549   0.008  0.00  0.00     0.114 H 
ATOM     12  H3  <0> d           3.257   1.973  -0.018  0.00  0.00     0.092 H 
ENDROOT
TORSDOF 0
