REMARK  5 active torsions:
REMARK  status: ('A' for Active; 'I' for Inactive)
REMARK    1  A    between atoms: C1_1  and  C2_2 
REMARK    2  A    between atoms: C2_2  and  C10_11 
REMARK    3  A    between atoms: C6_6  and  C8_9 
REMARK    4  A    between atoms: C6_6  and  C9_10 
REMARK    5  A    between atoms: C7_7  and  O1_8 
ROOT
ATOM      1  C2  <0> d          -0.729   1.580   1.268  0.00  0.00    -0.021 C 
ATOM      2  C3  <0> d          -0.688   3.102   1.329  0.00  0.00    -0.056 C 
ATOM      3  C4  <0> d          -1.627   3.712   0.291  0.00  0.00    -0.064 C 
ATOM      4  C5  <0> d          -3.055   3.268   0.594  0.00  0.00    -0.056 C 
ATOM      5  C6  <0> d          -3.181   1.752   0.505  0.00  0.00    -0.021 C 
ATOM      6  C7  <0> d          -2.142   1.029   1.344  0.00  0.00     0.049 C 
ATOM      7  H4  <0> d          -0.987   3.435   2.326  0.00  0.00     0.034 H 
ATOM      8  H5  <0> d           0.333   3.446   1.139  0.00  0.00     0.034 H 
ATOM      9  H6  <0> d          -1.571   4.804   0.360  0.00  0.00     0.033 H 
ATOM     10  H7  <0> d          -1.336   3.414  -0.712  0.00  0.00     0.033 H 
ATOM     11  H8  <0> d          -3.332   3.599   1.598  0.00  0.00     0.034 H 
ATOM     12  H9  <0> d          -3.737   3.732  -0.125  0.00  0.00     0.034 H 
ATOM     13  H10 <0> d          -2.117  -0.029   1.023  0.00  0.00     0.085 H 
ENDROOT
BRANCH   1  14
ATOM     14  C1  <0> d          -0.013   1.086   0.008  0.00  0.00    -0.067 C 
ATOM     15  H1  <0> d           0.002  -0.004   0.002  0.00  0.00     0.028 H 
ATOM     16  H2  <0> d           1.010   1.463   0.000  0.00  0.00     0.028 H 
ATOM     17  H3  <0> d          -0.540   1.447  -0.875  0.00  0.00     0.028 H 
ENDBRANCH   1  14
BRANCH   1  18
ATOM     18  C10 <0> d           0.057   1.041   2.484  0.00  0.00    -0.067 C 
ATOM     19  H18 <0> d           1.079   1.419   2.452  0.00  0.00     0.028 H 
ATOM     20  H19 <0> d          -0.425   1.373   3.404  0.00  0.00     0.028 H 
ATOM     21  H20 <0> d           0.071  -0.048   2.454  0.00  0.00     0.028 H 
ENDBRANCH   1  18
BRANCH   6  22
ATOM     22  O1  <0> d          -2.569   1.032   2.717  0.00  0.00    -0.394 OA
ATOM     23  H11 <0> d          -3.465   0.693   2.852  0.00  0.00     0.210 HD
ENDBRANCH   6  22
BRANCH   5  24
ATOM     24  C8  <0> d          -4.577   1.366   1.043  0.00  0.00    -0.067 C 
ATOM     25  H12 <0> d          -5.345   1.846   0.436  0.00  0.00     0.028 H 
ATOM     26  H13 <0> d          -4.699   0.284   0.993  0.00  0.00     0.028 H 
ATOM     27  H14 <0> d          -4.672   1.695   2.077  0.00  0.00     0.028 H 
ENDBRANCH   5  24
BRANCH   5  28
ATOM     28  C9  <0> d          -3.117   1.304  -0.958  0.00  0.00    -0.067 C 
ATOM     29  H15 <0> d          -2.164   1.611  -1.389  0.00  0.00     0.028 H 
ATOM     30  H16 <0> d          -3.207   0.219  -1.010  0.00  0.00     0.028 H 
ATOM     31  H17 <0> d          -3.933   1.765  -1.515  0.00  0.00     0.028 H 
ENDBRANCH   5  28
TORSDOF 5
