REMARK  2 active torsions:
REMARK  status: ('A' for Active; 'I' for Inactive)
REMARK    1  A    between atoms: C1_1  and  C2_2 
REMARK    2  A    between atoms: C9_10  and  N3_12 
ROOT
ATOM      1  C2  <0> d          -1.226   2.120   0.031  0.00  0.00    -0.047 A 
ATOM      2  C3  <0> d          -1.167   3.487   0.032  0.00  0.00    -0.059 A 
ATOM      3  C4  <0> d           0.068   4.126   0.023  0.00  0.00     0.005 A 
ATOM      4  N1  <0> d           1.194   3.453   0.009  0.00  0.00    -0.241 NA
ATOM      5  C5  <0> d           1.208   2.117   0.002  0.00  0.00     0.162 A 
ATOM      6  C6  <0> d          -0.017   1.405   0.010  0.00  0.00     0.018 A 
ATOM      7  C7  <0> d           0.002  -0.004   0.002  0.00  0.00    -0.065 A 
ATOM      8  C8  <0> d           1.211  -0.632  -0.013  0.00  0.00    -0.038 A 
ATOM      9  C9  <0> d           2.390   0.127  -0.020  0.00  0.00     0.123 A 
ATOM     10  N2  <0> d           2.364   1.444  -0.013  0.00  0.00    -0.211 NA
ATOM     11  H4  <0> d          -2.078   4.067   0.044  0.00  0.00     0.086 H 
ATOM     12  H5  <0> d           0.101   5.206   0.029  0.00  0.00     0.114 H 
ATOM     13  H6  <0> d          -0.917  -0.571   0.007  0.00  0.00     0.085 H 
ATOM     14  H7  <0> d           1.261  -1.711  -0.019  0.00  0.00     0.089 H 
ENDROOT
BRANCH   1  15
ATOM     15  C1  <0> d          -2.550   1.401   0.046  0.00  0.00    -0.050 C 
ATOM     16  H1  <0> d          -2.855   1.223   1.078  0.00  0.00     0.033 H 
ATOM     17  H2  <0> d          -3.301   2.013  -0.454  0.00  0.00     0.033 H 
ATOM     18  H3  <0> d          -2.453   0.448  -0.474  0.00  0.00     0.033 H 
ENDBRANCH   1  15
BRANCH   9  19
ATOM     19  N3  <0> d           3.613  -0.524  -0.035  0.00  0.00    -0.384 N 
ATOM     20  H8  <0> d           3.646  -1.494  -0.041  0.00  0.00     0.157 HD
ATOM     21  H9  <0> d           4.436  -0.011  -0.041  0.00  0.00     0.157 HD
ENDBRANCH   9  19
TORSDOF 2
