REMARK  4 active torsions:
REMARK  status: ('A' for Active; 'I' for Inactive)
REMARK    1  A    between atoms: C1_1  and  C2_2 
REMARK    2  A    between atoms: C5_6  and  C8_12 
REMARK    3  A    between atoms: C7_9  and  O1_11 
REMARK    4  A    between atoms: C8_12  and  C10_14 
ROOT
ATOM      1  C2  <0> d          -2.188   1.063  -1.221  0.00  0.00    -0.033 C 
ATOM      2  H1  <0> d          -2.715   1.424  -2.104  0.00  0.00     0.043 H 
ATOM      3  C3  <0> d          -0.753   1.593  -1.232  0.00  0.00    -0.059 C 
ATOM      4  C4  <0> d          -0.013   1.086   0.008  0.00  0.00    -0.058 C 
ATOM      5  C5  <0> d          -0.729   1.579   1.267  0.00  0.00    -0.031 C 
ATOM      6  H2  <0> d          -0.744   2.669   1.273  0.00  0.00     0.047 H 
ATOM      7  C6  <0> d          -2.164   1.050   1.278  0.00  0.00    -0.034 C 
ATOM      8  C7  <0> d          -2.904   1.556   0.038  0.00  0.00     0.039 C 
ATOM      9  H3  <0> d          -2.919   2.646   0.044  0.00  0.00     0.083 H 
ATOM     10  H7  <0> d          -0.767   2.683  -1.226  0.00  0.00     0.033 H 
ATOM     11  H8  <0> d          -0.242   1.241  -2.128  0.00  0.00     0.033 H 
ATOM     12  H9  <0> d           0.002  -0.004   0.002  0.00  0.00     0.034 H 
ATOM     13  H10 <0> d           1.010   1.463   0.000  0.00  0.00     0.034 H 
ATOM     14  H11 <0> d          -2.674   1.401   2.175  0.00  0.00     0.037 H 
ATOM     15  H12 <0> d          -2.149  -0.040   1.272  0.00  0.00     0.037 H 
ENDROOT
BRANCH   5  16
ATOM     16  C8  <0> d           0.000   1.080   2.488  0.00  0.00    -0.089 C 
ATOM     17  C9  <0> d           0.494   1.933   3.350  0.00  0.00    -0.119 C 
ATOM     18  H14 <0> d           1.017   1.576   4.225  0.00  0.00     0.067 H 
ATOM     19  H15 <0> d           0.380   2.995   3.186  0.00  0.00     0.067 H 
BRANCH  16  20
ATOM     20  C10 <0> d           0.160  -0.401   2.717  0.00  0.00    -0.055 C 
ATOM     21  H16 <0> d          -0.312  -0.948   1.901  0.00  0.00     0.033 H 
ATOM     22  H17 <0> d           1.220  -0.650   2.755  0.00  0.00     0.033 H 
ATOM     23  H18 <0> d          -0.312  -0.676   3.660  0.00  0.00     0.033 H 
ENDBRANCH  16  20
ENDBRANCH   5  16
BRANCH   8  24
ATOM     24  O1  <0> d          -4.245   1.062   0.048  0.00  0.00    -0.395 OA
ATOM     25  H13 <0> d          -4.759   1.336   0.820  0.00  0.00     0.210 HD
ENDBRANCH   8  24
BRANCH   1  26
ATOM     26  C1  <0> d          -2.167  -0.467  -1.229  0.00  0.00    -0.071 C 
ATOM     27  H4  <0> d          -1.640  -0.828  -0.346  0.00  0.00     0.028 H 
ATOM     28  H5  <0> d          -3.190  -0.844  -1.221  0.00  0.00     0.028 H 
ATOM     29  H6  <0> d          -1.657  -0.818  -2.126  0.00  0.00     0.028 H 
ENDBRANCH   1  26
TORSDOF 4
