REMARK  1 active torsions:
REMARK  status: ('A' for Active; 'I' for Inactive)
REMARK    1  A    between atoms: C2_2  and  O2_8 
ROOT
ATOM      1  C1  <0> d          -0.013   1.086   0.008  0.00  0.00     0.034 C 
ATOM      2  C2  <0> d          -0.811   1.623  -1.203  0.00  0.00     0.059 C 
ATOM      3  H1  <0> d          -0.828   0.894  -2.013  0.00  0.00     0.086 H 
ATOM      4  C3  <0> d          -2.219   1.807  -0.595  0.00  0.00     0.019 C 
ATOM      5  N1  <0> d          -2.003   2.000   0.844  0.00  0.00    -0.359 N 
ATOM      6  C4  <0> d          -0.771   1.598   1.213  0.00  0.00     0.220 C 
ATOM      7  O1  <0> d          -0.333   1.640   2.343  0.00  0.00    -0.274 OA
ATOM      8  H2  <0> d           0.002  -0.004   0.002  0.00  0.00     0.051 H 
ATOM      9  H3  <0> d           1.003   1.480   0.000  0.00  0.00     0.051 H 
ATOM     10  H4  <0> d          -2.704   2.683  -1.025  0.00  0.00     0.068 H 
ATOM     11  H5  <0> d          -2.824   0.917  -0.769  0.00  0.00     0.068 H 
ATOM     12  H6  <0> d          -2.662   2.370   1.451  0.00  0.00     0.162 HD
ENDROOT
BRANCH   2  13
ATOM     13  O2  <0> d          -0.280   2.871  -1.652  0.00  0.00    -0.393 OA
ATOM     14  H7  <0> d          -0.748   3.248  -2.410  0.00  0.00     0.210 HD
ENDBRANCH   2  13
TORSDOF 1
