REMARK  4 active torsions:
REMARK  status: ('A' for Active; 'I' for Inactive)
REMARK    1  A    between atoms: C1_1  and  C2_2 
REMARK    2  A    between atoms: C6_7  and  C10_13 
REMARK    3  A    between atoms: N1_9  and  C7_10 
REMARK    4  A    between atoms: C7_10  and  C8_11 
ROOT
ATOM      1  C8  <0> d          -2.995   1.998   2.676  0.00  0.00    -0.087 C 
ATOM      2  C9  <0> d          -3.080   3.069   3.150  0.00  0.00    -0.152 C 
ATOM      3  H14 <0> d          -3.160   4.072   3.594  0.00  0.00     0.166 H 
ENDROOT
BRANCH   1   4
ATOM      4  C7  <0> d          -2.888   0.655   2.082  0.00  0.00     0.167 C 
ATOM      5  H12 <0> d          -3.895   0.270   1.864  0.00  0.00     0.099 H 
ATOM      6  H13 <0> d          -2.383  -0.019   2.789  0.00  0.00     0.099 H 
BRANCH   4   7
ATOM      7  N1  <0> d          -2.113   0.731   0.837  0.00  0.00     0.107 N 
ATOM      8  C2  <0> d          -2.811   1.542  -0.169  0.00  0.00     0.133 C 
ATOM      9  H1  <0> d          -2.843   2.574   0.210  0.00  0.00     0.087 H 
ATOM     10  C3  <0> d          -2.048   1.480  -1.495  0.00  0.00    -0.036 C 
ATOM     11  C4  <0> d          -0.626   2.006  -1.285  0.00  0.00    -0.061 C 
ATOM     12  H6  <0> d          -2.008   0.438  -1.845  0.00  0.00     0.036 H 
ATOM     13  H7  <0> d          -2.563   2.099  -2.244  0.00  0.00     0.036 H 
ATOM     14  C5  <0> d           0.062   1.175  -0.198  0.00  0.00    -0.036 C 
ATOM     15  H8  <0> d          -0.062   1.923  -2.226  0.00  0.00     0.033 H 
ATOM     16  H9  <0> d          -0.667   3.060  -0.974  0.00  0.00     0.033 H 
ATOM     17  C6  <0> d          -0.760   1.246   1.090  0.00  0.00     0.133 C 
ATOM     18  H10 <0> d           0.138   0.129  -0.529  0.00  0.00     0.036 H 
ATOM     19  H11 <0> d           1.071   1.575  -0.014  0.00  0.00     0.036 H 
ATOM     20  H2  <0> d          -0.865   2.289   1.425  0.00  0.00     0.087 H 
BRANCH   8  21
ATOM     21  C1  <0> d          -4.226   0.998  -0.369  0.00  0.00    -0.047 C 
ATOM     22  H3  <0> d          -4.749   1.605  -1.123  0.00  0.00     0.030 H 
ATOM     23  H4  <0> d          -4.775   1.044   0.583  0.00  0.00     0.030 H 
ATOM     24  H5  <0> d          -4.173  -0.046  -0.712  0.00  0.00     0.030 H 
ENDBRANCH   8  21
BRANCH  17  25
ATOM     25  C10 <0> d          -0.086   0.401   2.173  0.00  0.00    -0.047 C 
ATOM     26  H15 <0> d          -0.677   0.452   3.099  0.00  0.00     0.030 H 
ATOM     27  H16 <0> d           0.926   0.788   2.362  0.00  0.00     0.030 H 
ATOM     28  H17 <0> d          -0.022  -0.644   1.836  0.00  0.00     0.030 H 
ENDBRANCH  17  25
ENDBRANCH   4   7
ENDBRANCH   1   4
TORSDOF 4
