REMARK  3 active torsions:
REMARK  status: ('A' for Active; 'I' for Inactive)
REMARK    1  A    between atoms: C2_2  and  C3_3 
REMARK    2  A    between atoms: C3_3  and  C4_5 
REMARK    3  A    between atoms: C3_3  and  O1_11 
ROOT
ATOM      1  C1  <0> d           1.595   4.468   2.467  0.00  0.00    -0.151 C 
ATOM      2  C2  <0> d           1.398   4.079   1.377  0.00  0.00    -0.081 C 
ATOM      3  H2  <0> d           1.771   4.815   3.442  0.00  0.00     0.166 H 
ENDROOT
BRANCH   2   4
ATOM      4  C3  <0> d           1.151   3.592   0.010  0.00  0.00     0.118 C 
ATOM      5  H1  <0> d           0.177   3.944  -0.331  0.00  0.00     0.111 H 
BRANCH   4   6
ATOM      6  C4  <0> d           1.171   2.086   0.002  0.00  0.00    -0.018 A 
ATOM      7  C9  <0> d           2.377   1.411  -0.014  0.00  0.00    -0.073 A 
ATOM      8  C8  <0> d           2.396   0.029  -0.021  0.00  0.00    -0.082 A 
ATOM      9  H7  <0> d           3.305   1.963  -0.019  0.00  0.00     0.084 H 
ATOM     10  C7  <0> d           1.208  -0.679  -0.014  0.00  0.00    -0.083 A 
ATOM     11  H6  <0> d           3.339  -0.499  -0.033  0.00  0.00     0.083 H 
ATOM     12  C6  <0> d           0.002  -0.004   0.002  0.00  0.00    -0.082 A 
ATOM     13  H5  <0> d           1.223  -1.759  -0.020  0.00  0.00     0.083 H 
ATOM     14  C5  <0> d          -0.017   1.378   0.010  0.00  0.00    -0.073 A 
ATOM     15  H4  <0> d          -0.926  -0.557   0.008  0.00  0.00     0.083 H 
ATOM     16  H3  <0> d          -0.959   1.905   0.017  0.00  0.00     0.084 H 
ENDBRANCH   4   6
BRANCH   4  17
ATOM     17  O1  <0> d           2.168   4.087  -0.863  0.00  0.00    -0.379 OA
ATOM     18  H8  <0> d           3.063   3.813  -0.620  0.00  0.00     0.211 HD
ENDBRANCH   4  17
ENDBRANCH   2   4
TORSDOF 3
