REMARK  4 active torsions:
REMARK  status: ('A' for Active; 'I' for Inactive)
REMARK    1  A    between atoms: C1_1  and  C2_2 
REMARK    2  A    between atoms: C6_6  and  C8_9 
REMARK    3  A    between atoms: C7_7  and  O1_8 
REMARK    4  A    between atoms: C8_9  and  C9_11 
ROOT
ATOM      1  C2  <0> d           2.404   0.003  -0.021  0.00  0.00    -0.028 A 
ATOM      2  C3  <0> d           1.208  -0.688  -0.013  0.00  0.00    -0.074 A 
ATOM      3  C4  <0> d           0.002  -0.004   0.002  0.00  0.00    -0.081 A 
ATOM      4  C5  <0> d          -0.017   1.373   0.010  0.00  0.00    -0.067 A 
ATOM      5  C6  <0> d           1.188   2.087   0.002  0.00  0.00     0.043 A 
ATOM      6  C7  <0> d           2.407   1.389  -0.014  0.00  0.00     0.085 A 
ATOM      7  H4  <0> d           1.211  -1.768  -0.018  0.00  0.00     0.084 H 
ATOM      8  H5  <0> d          -0.927  -0.554   0.008  0.00  0.00     0.083 H 
ATOM      9  H6  <0> d          -0.959   1.901   0.017  0.00  0.00     0.085 H 
ENDROOT
BRANCH   5  10
ATOM     10  C8  <0> d           1.176   3.555   0.010  0.00  0.00     0.158 C 
ATOM     11  O2  <0> d           2.222   4.169   0.003  0.00  0.00    -0.293 OA
BRANCH  10  12
ATOM     12  C9  <0> d          -0.134   4.298   0.026  0.00  0.00    -0.017 C 
ATOM     13  H8  <0> d          -0.649   4.048   0.847  0.00  0.00     0.038 H 
ATOM     14  H9  <0> d           0.057   5.371   0.030  0.00  0.00     0.038 H 
ATOM     15  H10 <0> d          -0.712   4.035  -0.860  0.00  0.00     0.038 H 
ENDBRANCH  10  12
ENDBRANCH   5  10
BRANCH   6  16
ATOM     16  O1  <0> d           3.580   2.068  -0.021  0.00  0.00    -0.359 OA
ATOM     17  H7  <0> d           3.913   2.269  -0.907  0.00  0.00     0.217 HD
ENDBRANCH   6  16
BRANCH   1  18
ATOM     18  C1  <0> d           3.708  -0.753  -0.037  0.00  0.00    -0.049 C 
ATOM     19  H1  <0> d           4.012  -0.930  -1.068  0.00  0.00     0.033 H 
ATOM     20  H2  <0> d           4.473  -0.167   0.472  0.00  0.00     0.033 H 
ATOM     21  H3  <0> d           3.581  -1.707   0.474  0.00  0.00     0.033 H 
ENDBRANCH   1  18
TORSDOF 4
