REMARK  3 active torsions:
REMARK  status: ('A' for Active; 'I' for Inactive)
REMARK    1  A    between atoms: C1_1  and  C2_2 
REMARK    2  A    between atoms: C9_10  and  C10_11 
REMARK    3  A    between atoms: C9_10  and  C11_12 
ROOT
ATOM      1  C2  <0> d          -1.576   5.473   0.046  0.00  0.00     0.022 A 
ATOM      2  N1  <0> d          -0.321   5.196   0.033  0.00  0.00    -0.257 NA
ATOM      3  C3  <0> d          -0.046   3.857   0.023  0.00  0.00     0.064 A 
ATOM      4  C4  <0> d           1.169   3.163   0.007  0.00  0.00    -0.055 A 
ATOM      5  C5  <0> d           1.176   1.785   0.000  0.00  0.00    -0.081 A 
ATOM      6  C6  <0> d          -0.013   1.076   0.008  0.00  0.00    -0.082 A 
ATOM      7  C7  <0> d          -1.221   1.753   0.017  0.00  0.00    -0.073 A 
ATOM      8  C8  <0> d          -1.236   3.125   0.030  0.00  0.00    -0.016 A 
ATOM      9  C9  <0> d          -2.336   4.162   0.046  0.00  0.00     0.022 A 
ATOM     10  H4  <0> d           2.102   3.707   0.001  0.00  0.00     0.087 H 
ATOM     11  H5  <0> d           2.116   1.254  -0.011  0.00  0.00     0.083 H 
ATOM     12  H6  <0> d           0.002  -0.004   0.002  0.00  0.00     0.083 H 
ATOM     13  H7  <0> d          -2.150   1.202   0.019  0.00  0.00     0.084 H 
ENDROOT
BRANCH   9  14
ATOM     14  C10 <0> d          -3.184   4.029   1.313  0.00  0.00    -0.060 C 
ATOM     15  H8  <0> d          -3.916   4.837   1.346  0.00  0.00     0.029 H 
ATOM     16  H9  <0> d          -3.702   3.070   1.305  0.00  0.00     0.029 H 
ATOM     17  H10 <0> d          -2.540   4.087   2.189  0.00  0.00     0.029 H 
ENDBRANCH   9  14
BRANCH   9  18
ATOM     18  C11 <0> d          -3.212   4.045  -1.203  0.00  0.00    -0.060 C 
ATOM     19  H11 <0> d          -2.586   4.113  -2.093  0.00  0.00     0.029 H 
ATOM     20  H12 <0> d          -3.729   3.086  -1.196  0.00  0.00     0.029 H 
ATOM     21  H13 <0> d          -3.944   4.852  -1.210  0.00  0.00     0.029 H 
ENDBRANCH   9  18
BRANCH   1  22
ATOM     22  C1  <0> d          -2.182   6.852   0.059  0.00  0.00    -0.038 C 
ATOM     23  H1  <0> d          -1.388   7.598   0.056  0.00  0.00     0.035 H 
ATOM     24  H2  <0> d          -2.807   6.983  -0.824  0.00  0.00     0.035 H 
ATOM     25  H3  <0> d          -2.791   6.973   0.955  0.00  0.00     0.035 H 
ENDBRANCH   1  22
TORSDOF 3
