REMARK  3 active torsions:
REMARK  status: ('A' for Active; 'I' for Inactive)
REMARK    1  A    between atoms: C1_1  and  O1_2 
REMARK    2  A    between atoms: O1_2  and  C2_3 
REMARK    3  A    between atoms: C2_3  and  C3_5 
ROOT
ATOM      1  C3  <0> d           0.042   3.801   0.022  0.00  0.00     0.170 A 
ATOM      2  C4  <0> d          -1.192   3.147   0.031  0.00  0.00     0.151 A 
ATOM      3  C5  <0> d          -1.218   1.758   0.017  0.00  0.00    -0.042 A 
ATOM      4  C6  <0> d          -0.013   1.076   0.008  0.00  0.00    -0.063 A 
ATOM      5  C7  <0> d           1.175   1.792   0.001  0.00  0.00     0.003 A 
ATOM      6  N1  <0> d           1.173   3.106   0.007  0.00  0.00    -0.252 NA
ATOM      7  F1  <0> d          -2.343   3.854   0.046  0.00  0.00    -0.203 F 
ATOM      8  H4  <0> d          -2.156   1.223   0.019  0.00  0.00     0.088 H 
ATOM      9  H5  <0> d           0.002  -0.004   0.002  0.00  0.00     0.085 H 
ATOM     10  H6  <0> d           2.116   1.261  -0.011  0.00  0.00     0.114 H 
ENDROOT
BRANCH   1  11
ATOM     11  C2  <0> d           0.089   5.279   0.029  0.00  0.00     0.314 C 
ATOM     12  O2  <0> d          -0.943   5.920   0.042  0.00  0.00    -0.257 OA
BRANCH  11  13
ATOM     13  O1  <0> d           1.276   5.916   0.020  0.00  0.00    -0.321 OA
BRANCH  13  14
ATOM     14  C1  <0> d           1.246   7.367   0.028  0.00  0.00     0.013 C 
ATOM     15  H1  <0> d           0.716   7.724  -0.855  0.00  0.00     0.067 H 
ATOM     16  H2  <0> d           0.734   7.715   0.925  0.00  0.00     0.067 H 
ATOM     17  H3  <0> d           2.266   7.752   0.020  0.00  0.00     0.067 H 
ENDBRANCH  13  14
ENDBRANCH  11  13
ENDBRANCH   1  11
TORSDOF 3
