REMARK  2 active torsions:
REMARK  status: ('A' for Active; 'I' for Inactive)
REMARK    1  A    between atoms: C4_6  and  C5_8 
REMARK    2  A    between atoms: C5_8  and  O3_9 
ROOT
ATOM      1  C1  <0> d          -0.121   1.004  -2.511  0.00  0.00    -0.030 C 
ATOM      2  C2  <0> d          -0.067   2.219  -3.464  0.00  0.00     0.018 C 
ATOM      3  C3  <0> d          -0.667   3.358  -2.666  0.00  0.00     0.259 C 
ATOM      4  O1  <0> d          -1.129   4.377  -3.121  0.00  0.00    -0.265 OA
ATOM      5  O2  <0> d          -0.595   3.038  -1.361  0.00  0.00    -0.314 OA
ATOM      6  C4  <0> d          -0.753   1.593  -1.232  0.00  0.00     0.068 C 
ATOM      7  H1  <0> d          -1.809   1.329  -1.175  0.00  0.00     0.087 H 
ATOM      8  H2  <0> d           0.882   0.629  -2.308  0.00  0.00     0.037 H 
ATOM      9  H3  <0> d          -0.751   0.217  -2.925  0.00  0.00     0.037 H 
ATOM     10  H4  <0> d           0.964   2.445  -3.733  0.00  0.00     0.048 H 
ATOM     11  H5  <0> d          -0.661   2.027  -4.358  0.00  0.00     0.048 H 
ENDROOT
BRANCH   6  12
ATOM     12  C5  <0> d          -0.013   1.086   0.008  0.00  0.00     0.041 C 
ATOM     13  H6  <0> d           0.002  -0.004   0.002  0.00  0.00     0.077 H 
ATOM     14  H7  <0> d           1.010   1.463   0.000  0.00  0.00     0.077 H 
BRANCH  12  15
ATOM     15  O3  <0> d          -0.682   1.547   1.184  0.00  0.00    -0.398 OA
ATOM     16  H8  <0> d          -0.266   1.262   2.009  0.00  0.00     0.209 HD
ENDBRANCH  12  15
ENDBRANCH   6  12
TORSDOF 2
