REMARK  4 active torsions:
REMARK  status: ('A' for Active; 'I' for Inactive)
REMARK    1  A    between atoms: C1_1  and  C2_2 
REMARK    2  A    between atoms: C2_2  and  C3_3 
REMARK    3  A    between atoms: C3_3  and  C4_4 
REMARK    4  A    between atoms: C6_6  and  N3_10 
ROOT
ATOM      1  C4  <0> d          -0.018   1.503   0.010  0.00  0.00     0.031 A 
ATOM      2  C5  <0> d          -1.122   2.284   0.019  0.00  0.00    -0.014 A 
ATOM      3  C6  <0> d          -0.702   3.624   0.027  0.00  0.00     0.143 A 
ATOM      4  N1  <0> d           0.610   3.638   0.015  0.00  0.00    -0.157 NA
ATOM      5  N2  <0> d           1.062   2.312   0.004  0.00  0.00    -0.280 N 
ATOM      6  H1  <0> d           2.017   2.017  -0.006  0.00  0.00     0.189 HD
ATOM      7  H9  <0> d          -2.146   1.939   0.022  0.00  0.00     0.092 H 
ENDROOT
BRANCH   1   8
ATOM      8  C3  <0> d           0.002  -0.004   0.002  0.00  0.00    -0.025 C 
ATOM      9  H7  <0> d          -0.840  -0.376  -0.582  0.00  0.00     0.042 H 
ATOM     10  H8  <0> d           0.934  -0.352  -0.443  0.00  0.00     0.042 H 
BRANCH   8  11
ATOM     11  C2  <0> d          -0.104  -0.523   1.437  0.00  0.00    -0.063 C 
ATOM     12  H5  <0> d           0.739  -0.152   2.021  0.00  0.00     0.033 H 
ATOM     13  H6  <0> d          -1.036  -0.175   1.882  0.00  0.00     0.033 H 
BRANCH  11  14
ATOM     14  C1  <0> d          -0.083  -2.053   1.429  0.00  0.00    -0.076 C 
ATOM     15  H2  <0> d           0.849  -2.402   0.984  0.00  0.00     0.027 H 
ATOM     16  H3  <0> d          -0.158  -2.423   2.451  0.00  0.00     0.027 H 
ATOM     17  H4  <0> d          -0.925  -2.425   0.845  0.00  0.00     0.027 H 
ENDBRANCH  11  14
ENDBRANCH   8  11
ENDBRANCH   1   8
BRANCH   3  18
ATOM     18  N3  <0> d          -1.536   4.748   0.040  0.00  0.00    -0.383 N 
ATOM     19  H10 <0> d          -1.151   5.638   0.041  0.00  0.00     0.157 HD
ATOM     20  H11 <0> d          -2.500   4.636   0.048  0.00  0.00     0.157 HD
ENDBRANCH   3  18
TORSDOF 4
