REMARK  2 active torsions:
REMARK  status: ('A' for Active; 'I' for Inactive)
REMARK    1  A    between atoms: C4_6  and  C5_8 
REMARK    2  A    between atoms: C5_8  and  O2_9 
ROOT
ATOM      1  C1  <0> d           1.429   1.640  -0.003  0.00  0.00    -0.036 C 
ATOM      2  C2  <0> d           1.290   2.898   0.886  0.00  0.00     0.011 C 
ATOM      3  C3  <0> d           0.096   2.600   1.766  0.00  0.00     0.218 C 
ATOM      4  O1  <0> d          -0.182   3.196   2.785  0.00  0.00    -0.274 OA
ATOM      5  N1  <0> d          -0.612   1.579   1.254  0.00  0.00    -0.354 N 
ATOM      6  C4  <0> d          -0.013   1.086   0.008  0.00  0.00     0.033 C 
ATOM      7  H1  <0> d           0.002  -0.004   0.002  0.00  0.00     0.075 H 
ATOM      8  H2  <0> d           2.125   0.926   0.438  0.00  0.00     0.036 H 
ATOM      9  H3  <0> d           1.736   1.908  -1.014  0.00  0.00     0.036 H 
ATOM     10  H4  <0> d           2.185   3.037   1.493  0.00  0.00     0.047 H 
ATOM     11  H5  <0> d           1.103   3.779   0.273  0.00  0.00     0.047 H 
ATOM     12  H6  <0> d          -1.416   1.214   1.656  0.00  0.00     0.162 HD
ENDROOT
BRANCH   6  13
ATOM     13  C5  <0> d          -0.791   1.611  -1.200  0.00  0.00     0.035 C 
ATOM     14  H7  <0> d          -0.885   2.694  -1.129  0.00  0.00     0.077 H 
ATOM     15  H8  <0> d          -0.259   1.352  -2.116  0.00  0.00     0.077 H 
BRANCH  13  16
ATOM     16  O2  <0> d          -2.092   1.020  -1.222  0.00  0.00    -0.399 OA
ATOM     17  H9  <0> d          -2.642   1.308  -1.964  0.00  0.00     0.209 HD
ENDBRANCH  13  16
ENDBRANCH   6  13
TORSDOF 2
