REMARK  1 active torsions:
REMARK  status: ('A' for Active; 'I' for Inactive)
REMARK    1  A    between atoms: C4_4  and  C8_10 
REMARK       I    between atoms: C8_10  and  N1_12 
ROOT
ATOM      1  C1  <0> d          -3.902   2.950  -0.192  0.00  0.00    -0.065 C 
ATOM      2  C2  <0> d          -3.823   1.518   0.258  0.00  0.00    -0.064 C 
ATOM      3  C3  <0> d          -2.463   0.904  -0.155  0.00  0.00    -0.047 C 
ATOM      4  C4  <0> d          -1.330   1.944   0.019  0.00  0.00     0.081 C 
ATOM      5  H1  <0> d          -1.354   2.594  -0.741  0.00  0.00     0.066 H 
ATOM      6  C5  <0> d          -1.381   2.775   1.242  0.00  0.00     0.140 C 
ATOM      7  O1  <0> d          -0.824   2.418   2.252  0.00  0.00    -0.297 OA
ATOM      8  C6  <0> d          -2.160   4.110   1.203  0.00  0.00    -0.009 C 
ATOM      9  C7  <0> d          -3.575   3.765   1.053  0.00  0.00    -0.059 C 
ATOM     10  H2  <0> d          -4.907   3.182  -0.544  0.00  0.00     0.033 H 
ATOM     11  H3  <0> d          -3.172   3.146  -0.976  0.00  0.00     0.033 H 
ATOM     12  H4  <0> d          -3.925   1.473   1.342  0.00  0.00     0.033 H 
ATOM     13  H5  <0> d          -4.629   0.949  -0.206  0.00  0.00     0.033 H 
ATOM     14  H6  <0> d          -2.509   0.592  -1.198  0.00  0.00     0.034 H 
ATOM     15  H7  <0> d          -2.254   0.036   0.470  0.00  0.00     0.034 H 
ATOM     16  H8  <0> d          -2.000   4.615   2.051  0.00  0.00     0.044 H 
ATOM     17  H9  <0> d          -1.830   4.710   0.355  0.00  0.00     0.044 H 
ATOM     18  H10 <0> d          -3.886   3.197   1.929  0.00  0.00     0.033 H 
ATOM     19  H11 <0> d          -4.154   4.689   1.022  0.00  0.00     0.033 H 
ENDROOT
BRANCH   4  20
ATOM     20  C8  <0> d          -0.014   1.209   0.009  0.00  0.00     0.226 C 
ATOM     21  O2  <0> d           0.002  -0.004   0.002  0.00  0.00    -0.273 OA
ATOM     22  N1  <0> d           1.143   1.898   0.001  0.00  0.00    -0.369 N 
ATOM     23  H12 <0> d           1.990   1.425  -0.009  0.00  0.00     0.159 HD
ATOM     24  H13 <0> d           1.130   2.868   0.007  0.00  0.00     0.159 HD
ENDBRANCH   4  20
TORSDOF 1
