REMARK  2 active torsions:
REMARK  status: ('A' for Active; 'I' for Inactive)
REMARK    1  A    between atoms: C1_1  and  N1_2 
REMARK    2  A    between atoms: C6_7  and  N3_11 
ROOT
ATOM      1  N1  <0> d           0.002  -0.004   0.002  0.00  0.00    -0.284 N 
ATOM      2  C2  <0> d           0.007  -0.767  -1.099  0.00  0.00     0.010 A 
ATOM      3  C3  <0> d           0.027  -2.090  -0.700  0.00  0.00     0.012 A 
ATOM      4  C4  <0> d           0.041  -3.331  -1.374  0.00  0.00    -0.067 A 
ATOM      5  C5  <0> d           0.059  -4.482  -0.659  0.00  0.00    -0.057 A 
ATOM      6  C6  <0> d           0.065  -4.477   0.744  0.00  0.00     0.028 A 
ATOM      7  C7  <0> d           0.053  -3.314   1.455  0.00  0.00    -0.027 A 
ATOM      8  C8  <0> d           0.034  -2.081   0.771  0.00  0.00     0.090 A 
ATOM      9  N2  <0> d           0.024  -0.813   1.144  0.00  0.00    -0.173 NA
ATOM     10  H4  <0> d          -0.003  -0.411  -2.119  0.00  0.00     0.115 H 
ATOM     11  H5  <0> d           0.036  -3.363  -2.454  0.00  0.00     0.085 H 
ATOM     12  H6  <0> d           0.069  -5.427  -1.182  0.00  0.00     0.086 H 
ATOM     13  H7  <0> d           0.058  -3.337   2.535  0.00  0.00     0.090 H 
ENDROOT
BRANCH   1  14
ATOM     14  C1  <0> d          -0.018   1.461   0.010  0.00  0.00     0.002 C 
ATOM     15  H1  <0> d           1.005   1.838   0.002  0.00  0.00     0.059 H 
ATOM     16  H2  <0> d          -0.545   1.822  -0.873  0.00  0.00     0.059 H 
ATOM     17  H3  <0> d          -0.528   1.812   0.907  0.00  0.00     0.059 H 
ENDBRANCH   1  14
BRANCH   6  18
ATOM     18  N3  <0> d           0.085  -5.694   1.429  0.00  0.00    -0.399 N 
ATOM     19  H8  <0> d           0.093  -6.529   0.935  0.00  0.00     0.156 HD
ATOM     20  H9  <0> d           0.089  -5.704   2.399  0.00  0.00     0.156 HD
ENDBRANCH   6  18
TORSDOF 2
