REMARK  4 active torsions:
REMARK  status: ('A' for Active; 'I' for Inactive)
REMARK    1  A    between atoms: C1_1  and  C2_2 
REMARK    2  A    between atoms: C2_2  and  O2_6 
REMARK    3  A    between atoms: C3_3  and  C4_4 
REMARK    4  A    between atoms: O2_6  and  C5_7 
ROOT
ATOM      1  C2  <0> d          -0.014   1.344   0.010  0.00  0.00     0.048 C 
ATOM      2  C3  <0> d          -0.010   0.001   0.089  0.00  0.00     0.018 C 
ATOM      3  H4  <0> d           0.918  -0.543  -0.010  0.00  0.00     0.098 H 
ENDROOT
BRANCH   1   4
ATOM      4  C1  <0> d           1.287   2.097  -0.092  0.00  0.00    -0.032 C 
ATOM      5  H1  <0> d           1.556   2.218  -1.141  0.00  0.00     0.036 H 
ATOM      6  H2  <0> d           1.177   3.078   0.371  0.00  0.00     0.036 H 
ATOM      7  H3  <0> d           2.071   1.540   0.422  0.00  0.00     0.036 H 
ENDBRANCH   1   4
BRANCH   1   8
ATOM      8  O2  <0> d          -1.183   2.016   0.017  0.00  0.00    -0.360 OA
BRANCH   8   9
ATOM      9  C5  <0> d          -1.533   2.741  -1.191  0.00  0.00     0.010 C 
ATOM     10  H5  <0> d          -0.816   3.546  -1.352  0.00  0.00     0.066 H 
ATOM     11  H6  <0> d          -1.513   2.061  -2.042  0.00  0.00     0.066 H 
ATOM     12  H7  <0> d          -2.533   3.162  -1.086  0.00  0.00     0.066 H 
ENDBRANCH   8   9
ENDBRANCH   1   8
BRANCH   2  13
ATOM     13  C4  <0> d          -1.221  -0.700   0.303  0.00  0.00     0.200 C 
ATOM     14  O1  <0> d          -2.278  -0.096   0.320  0.00  0.00    -0.644 OA
ATOM     15  O3  <0> d          -1.204  -2.036   0.487  0.00  0.00    -0.644 OA
ENDBRANCH   2  13
TORSDOF 4
