REMARK  2 active torsions:
REMARK  status: ('A' for Active; 'I' for Inactive)
REMARK    1  A    between atoms: C1_1  and  C2_2 
REMARK    2  A    between atoms: C4_5  and  N1_10 
ROOT
ATOM      1  C2  <0> d           0.002  -0.004   0.002  0.00  0.00     0.047 C 
ATOM      2  H1  <0> d          -1.012  -0.403   0.022  0.00  0.00     0.083 H 
ATOM      3  C3  <0> d           0.779  -0.537  -1.232  0.00  0.00    -0.003 C 
ATOM      4  C4  <0> d           1.268  -1.907  -0.695  0.00  0.00     0.215 C 
ATOM      5  H2  <0> d           2.300  -2.088  -0.994  0.00  0.00     0.104 H 
ATOM      6  C5  <0> d           1.167  -1.766   0.811  0.00  0.00     0.292 C 
ATOM      7  O1  <0> d           1.398  -2.639   1.615  0.00  0.00    -0.263 OA
ATOM      8  O2  <0> d           0.773  -0.511   1.111  0.00  0.00    -0.315 OA
ATOM      9  H6  <0> d           0.117  -0.664  -2.089  0.00  0.00     0.040 H 
ATOM     10  H7  <0> d           1.619   0.112  -1.478  0.00  0.00     0.040 H 
ENDROOT
BRANCH   1  11
ATOM     11  C1  <0> d          -0.019   1.526   0.010  0.00  0.00    -0.051 C 
ATOM     12  H3  <0> d           1.004   1.903   0.003  0.00  0.00     0.030 H 
ATOM     13  H4  <0> d          -0.546   1.887  -0.873  0.00  0.00     0.030 H 
ATOM     14  H5  <0> d          -0.529   1.877   0.907  0.00  0.00     0.030 H 
ENDBRANCH   1  11
BRANCH   4  15
ATOM     15  N1  <0> d           0.397  -2.988  -1.175  0.00  0.00     0.092 N 
ATOM     16  H8  <0> d           0.709  -3.884  -0.829  0.00  0.00     0.313 HD
ATOM     17  H9  <0> d          -0.565  -2.818  -0.920  0.00  0.00     0.313 HD
ENDBRANCH   4  15
TORSDOF 2
