REMARK  1 active torsions:
REMARK  status: ('A' for Active; 'I' for Inactive)
REMARK    1  A    between atoms: C5_9  and  N5_11 
ROOT
ATOM      1  C1  <0> d          -0.016   1.297   0.009  0.00  0.00     0.066 A 
ATOM      2  N1  <0> d          -1.306   1.742   0.018  0.00  0.00    -0.333 N 
ATOM      3  H1  <0> d          -1.593   2.668   0.024  0.00  0.00     0.168 HD
ATOM      4  C2  <0> d          -2.120   0.642   0.016  0.00  0.00     0.182 A 
ATOM      5  C3  <0> d          -1.271  -0.470   0.006  0.00  0.00     0.172 A 
ATOM      6  N2  <0> d           0.002  -0.004   0.002  0.00  0.00    -0.234 NA
ATOM      7  C4  <0> d          -1.847  -1.762   0.002  0.00  0.00     0.292 A 
ATOM      8  N3  <0> d          -3.194  -1.864   0.008  0.00  0.00    -0.152 N 
ATOM      9  C5  <0> d          -3.969  -0.743   0.018  0.00  0.00     0.703 A 
ATOM     10  N4  <0> d          -3.446   0.463   0.022  0.00  0.00    -0.044 NA
ATOM     11  O1  <0> d          -1.145  -2.759  -0.008  0.00  0.00    -0.265 OA
ATOM     12  H2  <0> d           0.860   1.930   0.004  0.00  0.00     0.143 H 
ATOM     13  H4  <0> d          -3.612  -2.739   0.005  0.00  0.00     0.187 HD
ENDROOT
BRANCH   9  14
ATOM     14  N5  <0> d          -5.335  -0.877   0.024  0.00  0.00    -0.233 N 
ATOM     15  H3  <0> d          -5.736  -1.760   0.021  0.00  0.00     0.174 HD
ATOM     16  H5  <0> d          -5.900  -0.088   0.031  0.00  0.00     0.174 HD
ENDBRANCH   9  14
TORSDOF 1
