REMARK  0 active torsions:
REMARK  status: ('A' for Active; 'I' for Inactive)
ROOT
ATOM      1  C1  <0> d          -0.128   3.672   0.022  0.00  0.00     0.030 A 
ATOM      2  C2  <0> d           1.093   3.068   0.008  0.00  0.00     0.119 A 
ATOM      3  C3  <0> d           1.149   1.658  -0.000  0.00  0.00     0.269 A 
ATOM      4  O1  <0> d           2.221   1.076  -0.013  0.00  0.00    -0.266 OA
ATOM      5  N1  <0> d          -0.011   0.966   0.007  0.00  0.00    -0.317 N 
ATOM      6  H1  <0> d           0.003  -0.034   0.006  0.00  0.00     0.170 HD
ATOM      7  C4  <0> d          -1.187   1.625   0.017  0.00  0.00     0.066 A 
ATOM      8  N2  <0> d          -1.238   2.930   0.029  0.00  0.00    -0.254 NA
ATOM      9 Cl1  <0> d           2.550   4.012  -0.002  0.00  0.00    -0.077 Cl
ATOM     10  H2  <0> d          -0.198   4.750   0.029  0.00  0.00     0.117 H 
ATOM     11  H3  <0> d          -2.108   1.060   0.018  0.00  0.00     0.143 H 
ENDROOT
TORSDOF 0
