REMARK  6 active torsions:
REMARK  status: ('A' for Active; 'I' for Inactive)
REMARK    1  A    between atoms: C1_1  and  C2_2 
REMARK    2  A    between atoms: C2_2  and  C3_3 
REMARK    3  A    between atoms: C3_3  and  C4_4 
REMARK    4  A    between atoms: C4_4  and  C7_8 
REMARK    5  A    between atoms: C5_5  and  C6_6 
REMARK    6  A    between atoms: C7_8  and  C8_9 
ROOT
ATOM      1  C4  <0> d           2.413   3.679   0.099  0.00  0.00    -0.074 C 
ATOM      2  C5  <0> d           1.249   3.079  -0.137  0.00  0.00    -0.007 C 
ATOM      3  H8  <0> d           0.324   3.620   0.000  0.00  0.00     0.094 H 
ENDROOT
BRANCH   1   4
ATOM      4  C3  <0> d           3.690   2.880   0.083  0.00  0.00    -0.045 C 
ATOM      5  H6  <0> d           4.390   3.300   0.805  0.00  0.00     0.039 H 
ATOM      6  H7  <0> d           3.474   1.845   0.346  0.00  0.00     0.039 H 
BRANCH   4   7
ATOM      7  C2  <0> d           4.307   2.933  -1.316  0.00  0.00    -0.065 C 
ATOM      8  H4  <0> d           3.607   2.514  -2.038  0.00  0.00     0.032 H 
ATOM      9  H5  <0> d           4.523   3.969  -1.579  0.00  0.00     0.032 H 
BRANCH   7  10
ATOM     10  C1  <0> d           5.604   2.122  -1.333  0.00  0.00    -0.076 C 
ATOM     11  H1  <0> d           6.304   2.541  -0.610  0.00  0.00     0.027 H 
ATOM     12  H2  <0> d           5.388   1.086  -1.070  0.00  0.00     0.027 H 
ATOM     13  H3  <0> d           6.044   2.160  -2.329  0.00  0.00     0.027 H 
ENDBRANCH   7  10
ENDBRANCH   4   7
ENDBRANCH   1   4
BRANCH   1  14
ATOM     14  C7  <0> d           2.453   5.159   0.383  0.00  0.00    -0.048 C 
ATOM     15  H9  <0> d           3.361   5.586  -0.044  0.00  0.00     0.039 H 
ATOM     16  H10 <0> d           1.581   5.638  -0.063  0.00  0.00     0.039 H 
BRANCH  14  17
ATOM     17  C8  <0> d           2.444   5.389   1.895  0.00  0.00    -0.073 C 
ATOM     18  H11 <0> d           2.473   6.459   2.101  0.00  0.00     0.028 H 
ATOM     19  H12 <0> d           1.536   4.962   2.322  0.00  0.00     0.028 H 
ATOM     20  H13 <0> d           3.315   4.909   2.341  0.00  0.00     0.028 H 
ENDBRANCH  14  17
ENDBRANCH   1  14
BRANCH   2  21
ATOM     21  C6  <0> d           1.222   1.679  -0.584  0.00  0.00     0.198 C 
ATOM     22  O1  <0> d           2.260   1.106  -0.850  0.00  0.00    -0.644 OA
ATOM     23  O2  <0> d           0.045   1.031  -0.699  0.00  0.00    -0.644 OA
ENDBRANCH   2  21
TORSDOF 6
