REMARK  4 active torsions:
REMARK  status: ('A' for Active; 'I' for Inactive)
REMARK    1  A    between atoms: C1_1  and  O1_2 
REMARK    2  A    between atoms: O1_2  and  C2_3 
REMARK    3  A    between atoms: C2_3  and  C3_4 
REMARK       I    between atoms: C3_4  and  N1_6 
REMARK    4  A    between atoms: N1_6  and  C4_7 
ROOT
ATOM      1  C4  <0> d          -0.789   1.611   1.242  0.00  0.00     0.012 C 
ATOM      2  C5  <0> d          -0.013   1.086   0.008  0.00  0.00    -0.046 C 
ATOM      3  C6  <0> d          -0.809   1.622  -1.200  0.00  0.00    -0.063 C 
ATOM      4  C7  <0> d          -2.243   1.875  -0.703  0.00  0.00    -0.063 C 
ATOM      5  C8  <0> d          -2.268   1.485   0.789  0.00  0.00    -0.046 C 
ATOM      6  H7  <0> d          -0.534   2.651   1.444  0.00  0.00     0.072 H 
ATOM      7  H8  <0> d           0.002  -0.004   0.002  0.00  0.00     0.035 H 
ATOM      8  H9  <0> d           1.003   1.480   0.000  0.00  0.00     0.035 H 
ATOM      9  H10 <0> d          -0.367   2.552  -1.555  0.00  0.00     0.033 H 
ATOM     10  H11 <0> d          -0.816   0.882  -2.000  0.00  0.00     0.033 H 
ATOM     11  H12 <0> d          -2.497   2.929  -0.818  0.00  0.00     0.033 H 
ATOM     12  H13 <0> d          -2.946   1.258  -1.263  0.00  0.00     0.033 H 
ATOM     13  H14 <0> d          -2.899   2.172   1.353  0.00  0.00     0.035 H 
ATOM     14  H15 <0> d          -2.620   0.460   0.909  0.00  0.00     0.035 H 
ENDROOT
BRANCH   1  15
ATOM     15  N1  <0> d          -0.528   0.772   2.414  0.00  0.00    -0.355 N 
ATOM     16  C3  <0> d          -0.663   1.286   3.653  0.00  0.00     0.241 C 
ATOM     17  O2  <0> d          -1.000   2.442   3.797  0.00  0.00    -0.271 OA
ATOM     18  H6  <0> d          -0.258  -0.152   2.299  0.00  0.00     0.162 HD
BRANCH  16  19
ATOM     19  C2  <0> d          -0.394   0.423   4.859  0.00  0.00     0.092 C 
ATOM     20  H4  <0> d          -1.071  -0.431   4.853  0.00  0.00     0.088 H 
ATOM     21  H5  <0> d           0.636   0.070   4.832  0.00  0.00     0.088 H 
BRANCH  19  22
ATOM     22  O1  <0> d          -0.604   1.189   6.048  0.00  0.00    -0.387 OA
BRANCH  22  23
ATOM     23  C1  <0> d          -0.374   0.461   7.256  0.00  0.00     0.005 C 
ATOM     24  H1  <0> d          -1.051  -0.393   7.300  0.00  0.00     0.066 H 
ATOM     25  H2  <0> d           0.657   0.108   7.278  0.00  0.00     0.066 H 
ATOM     26  H3  <0> d          -0.554   1.111   8.112  0.00  0.00     0.066 H 
ENDBRANCH  22  23
ENDBRANCH  19  22
ENDBRANCH  16  19
ENDBRANCH   1  15
TORSDOF 4
