REMARK  8 active torsions:
REMARK  status: ('A' for Active; 'I' for Inactive)
REMARK    1  A    between atoms: C1_1  and  O1_2 
REMARK    2  A    between atoms: O1_2  and  C2_3 
REMARK    3  A    between atoms: C2_3  and  C3_4 
REMARK    4  A    between atoms: C2_3  and  O2_7 
REMARK    5  A    between atoms: C2_3  and  O3_9 
REMARK    6  A    between atoms: C3_4  and  C4_5 
REMARK    7  A    between atoms: O2_7  and  C6_8 
REMARK    8  A    between atoms: O3_9  and  C7_10 
ROOT
ATOM      1  C2  <0> d          -3.353   1.363   1.148  0.00  0.00     0.284 C 
ENDROOT
BRANCH   1   2
ATOM      2  O1  <0> d          -2.825   0.983   2.420  0.00  0.00    -0.338 OA
BRANCH   2   3
ATOM      3  C1  <0> d          -2.862  -0.424   2.667  0.00  0.00     0.010 C 
ATOM      4  H1  <0> d          -2.370  -0.640   3.615  0.00  0.00     0.066 H 
ATOM      5  H2  <0> d          -3.899  -0.758   2.712  0.00  0.00     0.066 H 
ATOM      6  H3  <0> d          -2.346  -0.948   1.863  0.00  0.00     0.066 H 
ENDBRANCH   2   3
ENDBRANCH   1   2
BRANCH   1   7
ATOM      7  C3  <0> d          -2.460   0.805   0.038  0.00  0.00     0.028 C 
ATOM      8  H4  <0> d          -2.863   1.095  -0.933  0.00  0.00     0.050 H 
ATOM      9  H5  <0> d          -2.430  -0.282   0.108  0.00  0.00     0.050 H 
BRANCH   7  10
ATOM     10  C4  <0> d          -1.066   1.356   0.189  0.00  0.00    -0.105 C 
ATOM     11  C5  <0> d          -0.045   0.540   0.274  0.00  0.00    -0.125 C 
ATOM     12  H7  <0> d          -0.202  -0.527   0.236  0.00  0.00     0.066 H 
ATOM     13  H8  <0> d           0.955   0.936   0.378  0.00  0.00     0.066 H 
ATOM     14  H6  <0> d          -0.909   2.424   0.227  0.00  0.00     0.075 H 
ENDBRANCH   7  10
ENDBRANCH   1   7
BRANCH   1  15
ATOM     15  O2  <0> d          -3.392   2.789   1.056  0.00  0.00    -0.338 OA
BRANCH  15  16
ATOM     16  C6  <0> d          -4.001   3.277  -0.141  0.00  0.00     0.010 C 
ATOM     17  H9  <0> d          -3.918   4.364  -0.173  0.00  0.00     0.066 H 
ATOM     18  H10 <0> d          -3.497   2.849  -1.007  0.00  0.00     0.066 H 
ATOM     19  H11 <0> d          -5.053   2.993  -0.155  0.00  0.00     0.066 H 
ENDBRANCH  15  16
ENDBRANCH   1  15
BRANCH   1  20
ATOM     20  O3  <0> d          -4.675   0.841   1.004  0.00  0.00    -0.338 OA
BRANCH  20  21
ATOM     21  C7  <0> d          -5.615   1.371   1.941  0.00  0.00     0.010 C 
ATOM     22  H12 <0> d          -5.242   1.220   2.954  0.00  0.00     0.066 H 
ATOM     23  H13 <0> d          -5.747   2.437   1.758  0.00  0.00     0.066 H 
ATOM     24  H14 <0> d          -6.571   0.861   1.825  0.00  0.00     0.066 H 
ENDBRANCH  20  21
ENDBRANCH   1  20
TORSDOF 8
