REMARK  1 active torsions:
REMARK  status: ('A' for Active; 'I' for Inactive)
REMARK    1  A    between atoms: C4_5  and  O1_8 
ROOT
ATOM      1  C1  <0> d          -0.019   1.538   0.011  0.00  0.00    -0.061 C 
ATOM      2  C2  <0> d           1.477   1.939  -0.002  0.00  0.00    -0.048 C 
ATOM      3  C3  <0> d           2.107   0.881  -0.942  0.00  0.00     0.055 C 
ATOM      4  H1  <0> d           3.171   0.771  -0.735  0.00  0.00     0.066 H 
ATOM      5  C4  <0> d           1.353  -0.422  -0.604  0.00  0.00     0.051 C 
ATOM      6  H2  <0> d           1.923  -1.005   0.120  0.00  0.00     0.085 H 
ATOM      7  C5  <0> d           0.002  -0.004   0.002  0.00  0.00    -0.040 C 
ATOM      8  C6  <0> d           1.893   1.252  -2.351  0.00  0.00     0.066 C 
ATOM      9  N1  <0> d           1.728   1.538  -3.438  0.00  0.00    -0.197 NA
ATOM     10  H3  <0> d          -0.505   1.908   0.913  0.00  0.00     0.033 H 
ATOM     11  H4  <0> d          -0.522   1.918  -0.878  0.00  0.00     0.033 H 
ATOM     12  H5  <0> d           1.606   2.942  -0.408  0.00  0.00     0.035 H 
ATOM     13  H6  <0> d           1.904   1.868   0.999  0.00  0.00     0.035 H 
ATOM     14  H7  <0> d          -0.084  -0.384   1.020  0.00  0.00     0.036 H 
ATOM     15  H8  <0> d          -0.815  -0.385  -0.610  0.00  0.00     0.036 H 
ENDROOT
BRANCH   5  16
ATOM     16  O1  <0> d           1.143  -1.188  -1.792  0.00  0.00    -0.394 OA
ATOM     17  H9  <0> d           0.673  -2.021  -1.644  0.00  0.00     0.210 HD
ENDBRANCH   5  16
TORSDOF 1
