REMARK  1 active torsions:
REMARK  status: ('A' for Active; 'I' for Inactive)
REMARK    1  A    between atoms: N1_4  and  C4_6 
ROOT
ATOM      1  C4  <0> d           2.468   1.458  -0.012  0.00  0.00     0.094 C 
ATOM      2  C5  <0> d           3.160   2.080  -1.152  0.00  0.00     0.081 C 
ATOM      3  N3  <0> d           3.695   2.560  -2.032  0.00  0.00    -0.195 NA
ATOM      4  H3  <0> d           2.951   1.762   0.916  0.00  0.00     0.089 H 
ATOM      5  H4  <0> d           2.514   0.373  -0.107  0.00  0.00     0.089 H 
ENDROOT
BRANCH   1   6
ATOM      6  N1  <0> d           1.067   1.887   0.002  0.00  0.00    -0.267 N 
ATOM      7  C3  <0> d          -0.013   1.076   0.008  0.00  0.00     0.022 A 
ATOM      8  C2  <0> d          -1.117   1.859   0.017  0.00  0.00     0.070 A 
ATOM      9  H2  <0> d           0.002  -0.004   0.002  0.00  0.00     0.117 H 
ATOM     10  C1  <0> d          -0.697   3.194   0.025  0.00  0.00     0.044 A 
ATOM     11 Cl1  <0> d          -2.762   1.306   0.021  0.00  0.00    -0.081 Cl
ATOM     12  N2  <0> d           0.611   3.212   0.013  0.00  0.00    -0.183 NA
ATOM     13  H1  <0> d          -1.342   4.060   0.035  0.00  0.00     0.120 H 
ENDBRANCH   1   6
TORSDOF 1
