REMARK  0 active torsions:
REMARK  status: ('A' for Active; 'I' for Inactive)
ROOT
ATOM      1  C1  <0> d           0.274   5.072   0.027  0.00  0.00    -0.054 A 
ATOM      2  C2  <0> d           1.661   5.132   0.015  0.00  0.00    -0.022 A 
ATOM      3  N1  <0> d           2.179   3.920   0.003  0.00  0.00    -0.364 N 
ATOM      4  C3  <0> d           1.208   2.995   0.007  0.00  0.00     0.061 A 
ATOM      5  C4  <0> d           1.162   1.614  -0.000  0.00  0.00     0.028 A 
ATOM      6  N2  <0> d          -0.011   0.966   0.007  0.00  0.00    -0.269 NA
ATOM      7  C5  <0> d          -1.212   1.588   0.017  0.00  0.00     0.023 A 
ATOM      8  C6  <0> d          -1.311   2.953   0.029  0.00  0.00     0.074 A 
ATOM      9  C7  <0> d          -0.070   3.731   0.022  0.00  0.00     0.015 A 
ATOM     10  C8  <0> d          -2.589   3.600   0.044  0.00  0.00     0.102 C 
ATOM     11  N3  <0> d          -3.602   4.113   0.057  0.00  0.00    -0.191 NA
ATOM     12  H1  <0> d          -0.406   5.911   0.038  0.00  0.00     0.087 H 
ATOM     13  H2  <0> d           2.236   6.046   0.015  0.00  0.00     0.111 H 
ATOM     14  H3  <0> d           2.083   1.050  -0.012  0.00  0.00     0.118 H 
ATOM     15  H4  <0> d          -2.114   0.993   0.018  0.00  0.00     0.117 H 
ATOM     16  H5  <0> d           3.272   3.790  -0.007  0.00  0.00     0.165 HD
ENDROOT
TORSDOF 0
