REMARK  1 active torsions:
REMARK  status: ('A' for Active; 'I' for Inactive)
REMARK    1  A    between atoms: C1_1  and  C2_2 
ROOT
ATOM      1  C2  <0> d          -2.176   2.047   0.593  0.00  0.00     0.054 C 
ATOM      2  C3  <0> d          -0.807   1.621   1.248  0.00  0.00    -0.035 C 
ATOM      3  H1  <0> d          -0.861   0.964   2.115  0.00  0.00     0.042 H 
ATOM      4  C4  <0> d          -0.139   3.022   1.444  0.00  0.00    -0.060 C 
ATOM      5  C5  <0> d          -0.508   3.765   0.141  0.00  0.00    -0.058 C 
ATOM      6  C6  <0> d          -1.542   2.886  -0.590  0.00  0.00    -0.012 C 
ATOM      7  H2  <0> d          -2.237   3.410  -1.246  0.00  0.00     0.045 H 
ATOM      8  C7  <0> d          -0.828   1.633  -1.206  0.00  0.00     0.053 C 
ATOM      9  H3  <0> d          -0.267   1.791  -2.127  0.00  0.00     0.084 H 
ATOM     10  C8  <0> d          -0.013   1.086   0.008  0.00  0.00    -0.035 C 
ATOM     11  O1  <0> d          -1.956   0.679  -1.286  0.00  0.00    -0.315 OA
ATOM     12  C9  <0> d          -2.700   0.838  -0.171  0.00  0.00     0.268 C 
ATOM     13  O2  <0> d          -3.625   0.139   0.165  0.00  0.00    -0.264 OA
ATOM     14  H7  <0> d          -0.559   3.532   2.311  0.00  0.00     0.033 H 
ATOM     15  H8  <0> d           0.942   2.924   1.542  0.00  0.00     0.033 H 
ATOM     16  H9  <0> d          -0.942   4.737   0.375  0.00  0.00     0.033 H 
ATOM     17  H10 <0> d           0.378   3.891  -0.481  0.00  0.00     0.033 H 
ATOM     18  H11 <0> d           0.002  -0.004   0.002  0.00  0.00     0.037 H 
ATOM     19  H12 <0> d           1.002   1.483   0.001  0.00  0.00     0.037 H 
ENDROOT
BRANCH   1  20
ATOM     20  C1  <0> d          -3.185   2.765   1.492  0.00  0.00    -0.059 C 
ATOM     21  H4  <0> d          -3.545   2.076   2.257  0.00  0.00     0.029 H 
ATOM     22  H5  <0> d          -2.703   3.618   1.969  0.00  0.00     0.029 H 
ATOM     23  H6  <0> d          -4.026   3.111   0.891  0.00  0.00     0.029 H 
ENDBRANCH   1  20
TORSDOF 1
