REMARK  1 active torsions:
REMARK  status: ('A' for Active; 'I' for Inactive)
REMARK    1  A    between atoms: C1_1  and  C2_2 
ROOT
ATOM      1  C2  <0> d           0.002  -0.004   0.002  0.00  0.00     0.000 C 
ATOM      2  H1  <0> d           0.468  -0.327  -0.822  0.00  0.00     0.051 H 
ATOM      3  C3  <0> d           0.737  -0.509   1.233  0.00  0.00    -0.056 C 
ATOM      4  C4  <0> d           1.030  -2.013   1.067  0.00  0.00    -0.064 C 
ATOM      5  C5  <0> d          -0.239  -2.808   1.354  0.00  0.00    -0.065 C 
ATOM      6  C6  <0> d          -0.742  -3.523   0.086  0.00  0.00    -0.065 C 
ATOM      7  C7  <0> d          -0.697  -2.577  -1.112  0.00  0.00    -0.059 C 
ATOM      8  C8  <0> d          -1.829  -1.546  -0.992  0.00  0.00    -0.009 C 
ATOM      9  C9  <0> d          -1.415  -0.529   0.022  0.00  0.00     0.130 C 
ATOM     10  O1  <0> d          -2.202  -0.131   0.847  0.00  0.00    -0.298 OA
ATOM     11  H5  <0> d           1.675   0.034   1.346  0.00  0.00     0.034 H 
ATOM     12  H6  <0> d           0.117  -0.354   2.117  0.00  0.00     0.034 H 
ATOM     13  H7  <0> d           1.359  -2.209   0.046  0.00  0.00     0.033 H 
ATOM     14  H8  <0> d           1.812  -2.311   1.764  0.00  0.00     0.033 H 
ATOM     15  H9  <0> d          -0.029  -3.551   2.124  0.00  0.00     0.033 H 
ATOM     16  H10 <0> d          -1.013  -2.130   1.712  0.00  0.00     0.033 H 
ATOM     17  H11 <0> d          -0.112  -4.389  -0.115  0.00  0.00     0.033 H 
ATOM     18  H12 <0> d          -1.768  -3.856   0.243  0.00  0.00     0.033 H 
ATOM     19  H13 <0> d           0.264  -2.062  -1.132  0.00  0.00     0.033 H 
ATOM     20  H14 <0> d          -0.821  -3.149  -2.032  0.00  0.00     0.033 H 
ATOM     21  H15 <0> d          -1.981  -1.113  -1.880  0.00  0.00     0.044 H 
ATOM     22  H16 <0> d          -2.745  -2.040  -0.668  0.00  0.00     0.044 H 
ENDROOT
BRANCH   1  23
ATOM     23  C1  <0> d          -0.019   1.526   0.010  0.00  0.00    -0.066 C 
ATOM     24  H2  <0> d           1.004   1.903   0.003  0.00  0.00     0.028 H 
ATOM     25  H3  <0> d          -0.546   1.887  -0.873  0.00  0.00     0.028 H 
ATOM     26  H4  <0> d          -0.529   1.877   0.907  0.00  0.00     0.028 H 
ENDBRANCH   1  23
TORSDOF 1
