REMARK  3 active torsions:
REMARK  status: ('A' for Active; 'I' for Inactive)
REMARK    1  A    between atoms: C1_1  and  O1_2 
REMARK    2  A    between atoms: O1_2  and  C2_3 
REMARK    3  A    between atoms: C2_3  and  C3_5 
ROOT
ATOM      1  C3  <0> d          -0.739   1.585   1.260  0.00  0.00     0.107 C 
ATOM      2  H1  <0> d          -1.684   1.052   1.366  0.00  0.00     0.070 H 
ATOM      3  C4  <0> d          -0.013   1.086   0.008  0.00  0.00    -0.043 C 
ATOM      4  C5  <0> d          -0.764   1.599  -1.226  0.00  0.00    -0.049 C 
ATOM      5  C6  <0> d          -0.616   3.119  -1.293  0.00  0.00    -0.005 C 
ATOM      6  N1  <0> d          -0.969   3.723  -0.014  0.00  0.00    -0.360 N 
ATOM      7  C7  <0> d          -1.008   3.057   1.141  0.00  0.00     0.231 C 
ATOM      8  O3  <0> d          -1.275   3.675   2.151  0.00  0.00    -0.273 OA
ATOM      9  H5  <0> d           0.002  -0.004   0.002  0.00  0.00     0.035 H 
ATOM     10  H6  <0> d           1.009   1.467   0.000  0.00  0.00     0.035 H 
ATOM     11  H7  <0> d          -0.341   1.150  -2.125  0.00  0.00     0.035 H 
ATOM     12  H8  <0> d          -1.819   1.335  -1.148  0.00  0.00     0.035 H 
ATOM     13  H9  <0> d           0.416   3.370  -1.538  0.00  0.00     0.064 H 
ATOM     14  H10 <0> d          -1.273   3.511  -2.069  0.00  0.00     0.064 H 
ATOM     15  H11 <0> d          -1.188   4.668  -0.002  0.00  0.00     0.162 HD
ENDROOT
BRANCH   1  16
ATOM     16  C2  <0> d           0.118   1.327   2.472  0.00  0.00     0.271 C 
ATOM     17  O2  <0> d           1.198   0.800   2.347  0.00  0.00    -0.264 OA
BRANCH  16  18
ATOM     18  O1  <0> d          -0.318   1.684   3.690  0.00  0.00    -0.326 OA
BRANCH  18  19
ATOM     19  C1  <0> d           0.561   1.406   4.812  0.00  0.00     0.013 C 
ATOM     20  H2  <0> d           1.505   1.932   4.674  0.00  0.00     0.067 H 
ATOM     21  H3  <0> d           0.089   1.743   5.735  0.00  0.00     0.067 H 
ATOM     22  H4  <0> d           0.747   0.334   4.871  0.00  0.00     0.067 H 
ENDBRANCH  18  19
ENDBRANCH  16  18
ENDBRANCH   1  16
TORSDOF 3
