REMARK  2 active torsions:
REMARK  status: ('A' for Active; 'I' for Inactive)
REMARK    1  A    between atoms: C1_1  and  C2_2 
REMARK    2  A    between atoms: C7_10  and  N4_11 
ROOT
ATOM      1  C2  <0> d           1.437   3.387   0.007  0.00  0.00     0.130 A 
ATOM      2  N1  <0> d           2.740   3.508  -0.004  0.00  0.00    -0.135 NA
ATOM      3  N2  <0> d           3.295   2.347  -0.016  0.00  0.00    -0.127 NA
ATOM      4  C3  <0> d           2.360   1.411  -0.013  0.00  0.00     0.183 A 
ATOM      5  N3  <0> d           1.149   2.057   0.002  0.00  0.00    -0.290 N 
ATOM      6  C4  <0> d          -0.016   1.345   0.009  0.00  0.00    -0.012 A 
ATOM      7  C5  <0> d           0.002  -0.004   0.002  0.00  0.00    -0.065 A 
ATOM      8  C6  <0> d           1.223  -0.699  -0.013  0.00  0.00    -0.052 A 
ATOM      9  C7  <0> d           2.398  -0.002  -0.021  0.00  0.00     0.074 A 
ATOM     10  H4  <0> d          -0.962   1.867   0.017  0.00  0.00     0.112 H 
ATOM     11  H5  <0> d          -0.928  -0.553   0.008  0.00  0.00     0.085 H 
ATOM     12  H6  <0> d           1.232  -1.779  -0.019  0.00  0.00     0.087 H 
ENDROOT
BRANCH   1  13
ATOM     13  C1  <0> d           0.437   4.514   0.023  0.00  0.00    -0.019 C 
ATOM     14  H1  <0> d           0.970   5.477   0.023  0.00  0.00     0.037 H 
ATOM     15  H2  <0> d          -0.186   4.440   0.926  0.00  0.00     0.037 H 
ATOM     16  H3  <0> d          -0.202   4.450  -0.870  0.00  0.00     0.037 H 
ENDBRANCH   1  13
BRANCH   9  17
ATOM     17  N4  <0> d           3.620  -0.677  -0.036  0.00  0.00    -0.396 N 
ATOM     18  H7  <0> d           3.641  -1.776  -0.043  0.00  0.00     0.156 HD
ATOM     19  H8  <0> d           4.562  -0.108  -0.043  0.00  0.00     0.156 HD
ENDBRANCH   9  17
TORSDOF 2
