REMARK  2 active torsions:
REMARK  status: ('A' for Active; 'I' for Inactive)
REMARK    1  A    between atoms: C2_2  and  C5_10 
REMARK    2  A    between atoms: C5_10  and  O1_11 
ROOT
ATOM      1  C1  <0> d          -0.111   1.053   2.573  0.00  0.00     0.013 C 
ATOM      2  C2  <0> d          -0.729   1.579   1.267  0.00  0.00     0.041 C 
ATOM      3  H1  <0> d          -1.810   1.456   1.214  0.00  0.00     0.053 H 
ATOM      4  C3  <0> d          -0.290   2.984   1.714  0.00  0.00     0.313 C 
ATOM      5  C4  <0> d          -0.351   2.454   3.159  0.00  0.00     0.309 C 
ATOM      6  F1  <0> d          -1.607   2.604   3.756  0.00  0.00    -0.200 F 
ATOM      7  F2  <0> d           0.694   2.909   3.970  0.00  0.00    -0.200 F 
ATOM      8  F3  <0> d           1.000   3.327   1.298  0.00  0.00    -0.199 F 
ATOM      9  F4  <0> d          -1.234   3.979   1.441  0.00  0.00    -0.199 F 
ATOM     10  H2  <0> d          -0.702   0.272   3.052  0.00  0.00     0.043 H 
ATOM     11  H3  <0> d           0.943   0.792   2.483  0.00  0.00     0.043 H 
ENDROOT
BRANCH   2  12
ATOM     12  C5  <0> d          -0.013   1.086   0.008  0.00  0.00     0.026 C 
ATOM     13  H4  <0> d           0.002  -0.004   0.002  0.00  0.00     0.074 H 
ATOM     14  H5  <0> d           1.010   1.463   0.000  0.00  0.00     0.074 H 
BRANCH  12  15
ATOM     15  O1  <0> d          -0.704   1.559  -1.150  0.00  0.00    -0.400 OA
ATOM     16  H6  <0> d          -0.304   1.284  -1.986  0.00  0.00     0.209 HD
ENDBRANCH  12  15
ENDBRANCH   2  12
TORSDOF 2
