REMARK  2 active torsions:
REMARK  status: ('A' for Active; 'I' for Inactive)
REMARK    1  A    between atoms: C1_1  and  C2_2 
REMARK    2  A    between atoms: C2_2  and  C3_4 
ROOT
ATOM      1  C3  <0> d           1.348   1.852  -0.001  0.00  0.00     0.105 C 
ATOM      2  H1  <0> d           1.698   1.959   0.930  0.00  0.00     0.096 H 
ATOM      3  C4  <0> d           2.157   0.787  -0.776  0.00  0.00    -0.025 C 
ATOM      4  C5  <0> d           1.335  -0.496  -0.520  0.00  0.00     0.018 C 
ATOM      5  C6  <0> d           0.002  -0.004   0.002  0.00  0.00     0.259 C 
ATOM      6  O2  <0> d          -0.909  -0.713   0.359  0.00  0.00    -0.265 OA
ATOM      7  O3  <0> d          -0.016   1.336   0.009  0.00  0.00    -0.308 OA
ATOM      8  H5  <0> d           3.163   0.691  -0.369  0.00  0.00     0.038 H 
ATOM      9  H6  <0> d           2.191   1.019  -1.841  0.00  0.00     0.038 H 
ATOM     10  H7  <0> d           1.827  -1.119   0.226  0.00  0.00     0.048 H 
ATOM     11  H8  <0> d           1.197  -1.052  -1.447  0.00  0.00     0.048 H 
ENDROOT
BRANCH   1  12
ATOM     12  C2  <0> d           1.405   3.178  -0.714  0.00  0.00     0.152 C 
ATOM     13  O1  <0> d           0.468   3.544  -1.384  0.00  0.00    -0.296 OA
BRANCH  12  14
ATOM     14  C1  <0> d           2.629   4.048  -0.592  0.00  0.00    -0.018 C 
ATOM     15  H2  <0> d           3.302   3.596  -0.006  0.00  0.00     0.037 H 
ATOM     16  H3  <0> d           3.060   4.210  -1.581  0.00  0.00     0.037 H 
ATOM     17  H4  <0> d           2.352   5.007  -0.155  0.00  0.00     0.037 H 
ENDBRANCH  12  14
ENDBRANCH   1  12
TORSDOF 2
