REMARK  4 active torsions:
REMARK  status: ('A' for Active; 'I' for Inactive)
REMARK    1  A    between atoms: C1_1  and  O1_2 
REMARK    2  A    between atoms: O1_2  and  C2_3 
REMARK    3  A    between atoms: C4_5  and  C8_10 
REMARK    4  A    between atoms: C8_10  and  O2_11 
ROOT
ATOM      1  C2  <0> d           1.152   3.441   0.009  0.00  0.00     0.071 A 
ATOM      2  C3  <0> d          -0.061   4.115   0.025  0.00  0.00    -0.043 A 
ATOM      3  C4  <0> d          -1.246   3.405   0.032  0.00  0.00    -0.029 A 
ATOM      4  C5  <0> d          -1.225   2.023   0.019  0.00  0.00    -0.037 A 
ATOM      5  C6  <0> d          -0.016   1.347   0.009  0.00  0.00     0.119 A 
ATOM      6  C7  <0> d           1.173   2.055   0.002  0.00  0.00    -0.014 A 
ATOM      7  F1  <0> d           0.002  -0.004   0.002  0.00  0.00    -0.206 F 
ATOM      8  H4  <0> d          -0.079   5.195   0.031  0.00  0.00     0.088 H 
ATOM      9  H5  <0> d          -2.152   1.469   0.020  0.00  0.00     0.089 H 
ATOM     10  H6  <0> d           2.115   1.528  -0.010  0.00  0.00     0.092 H 
ENDROOT
BRANCH   1  11
ATOM     11  O1  <0> d           2.318   4.139   0.002  0.00  0.00    -0.356 OA
BRANCH  11  12
ATOM     12  C1  <0> d           3.529   3.380  -0.014  0.00  0.00     0.010 C 
ATOM     13  H1  <0> d           3.572   2.747   0.872  0.00  0.00     0.066 H 
ATOM     14  H2  <0> d           3.554   2.756  -0.908  0.00  0.00     0.066 H 
ATOM     15  H3  <0> d           4.382   4.057  -0.019  0.00  0.00     0.066 H 
ENDBRANCH  11  12
ENDBRANCH   1  11
BRANCH   3  16
ATOM     16  C8  <0> d          -2.562   4.138   0.049  0.00  0.00     0.041 C 
ATOM     17  H7  <0> d          -3.308   3.534   0.567  0.00  0.00     0.081 H 
ATOM     18  H8  <0> d          -2.442   5.089   0.567  0.00  0.00     0.081 H 
BRANCH  16  19
ATOM     19  O2  <0> d          -2.991   4.377  -1.293  0.00  0.00    -0.396 OA
ATOM     20  H9  <0> d          -3.834   4.846  -1.359  0.00  0.00     0.209 HD
ENDBRANCH  16  19
ENDBRANCH   3  16
TORSDOF 4
