REMARK  7 active torsions:
REMARK  status: ('A' for Active; 'I' for Inactive)
REMARK    1  A    between atoms: C1_1  and  C2_2 
REMARK    2  A    between atoms: C2_2  and  C3_3 
REMARK    3  A    between atoms: C3_3  and  C4_4 
REMARK    4  A    between atoms: C4_4  and  O2_6 
REMARK    5  A    between atoms: O2_6  and  C5_7 
REMARK    6  A    between atoms: N1_8  and  C6_9 
REMARK    7  A    between atoms: N1_8  and  C7_10 
ROOT
ATOM      1  C2  <0> d          -2.436  -2.675   0.112  0.00  0.00     0.008 C 
ATOM      2  N1  <0> d          -3.598  -1.957   0.128  0.00  0.00    -0.393 N 
ENDROOT
BRANCH   1   3
ATOM      3  C1  <0> d          -2.478  -4.178   0.210  0.00  0.00    -0.037 C 
ATOM      4  H1  <0> d          -2.523  -4.473   1.258  0.00  0.00     0.035 H 
ATOM      5  H2  <0> d          -3.360  -4.551  -0.311  0.00  0.00     0.035 H 
ATOM      6  H3  <0> d          -1.581  -4.597  -0.247  0.00  0.00     0.035 H 
ENDBRANCH   1   3
BRANCH   1   7
ATOM      7  C3  <0> d          -1.250  -2.037   0.009  0.00  0.00     0.011 C 
ATOM      8  H4  <0> d          -0.338  -2.607  -0.093  0.00  0.00     0.096 H 
BRANCH   7   9
ATOM      9  C4  <0> d          -1.202  -0.627   0.036  0.00  0.00     0.284 C 
ATOM     10  O1  <0> d          -2.235   0.017   0.055  0.00  0.00    -0.260 OA
BRANCH   9  11
ATOM     11  O2  <0> d          -0.011   0.008   0.040  0.00  0.00    -0.323 OA
BRANCH  11  12
ATOM     12  C5  <0> d          -0.037   1.437   0.068  0.00  0.00     0.013 C 
ATOM     13  H5  <0> d           0.984   1.819   0.068  0.00  0.00     0.067 H 
ATOM     14  H6  <0> d          -0.563   1.807  -0.812  0.00  0.00     0.067 H 
ATOM     15  H7  <0> d          -0.552   1.773   0.968  0.00  0.00     0.067 H 
ENDBRANCH  11  12
ENDBRANCH   9  11
ENDBRANCH   7   9
ENDBRANCH   1   7
BRANCH   2  16
ATOM     16  C6  <0> d          -4.233  -1.563  -1.132  0.00  0.00    -0.019 C 
ATOM     17  H8  <0> d          -4.994  -2.296  -1.400  0.00  0.00     0.056 H 
ATOM     18  H9  <0> d          -4.697  -0.584  -1.015  0.00  0.00     0.056 H 
ATOM     19  H10 <0> d          -3.480  -1.517  -1.919  0.00  0.00     0.056 H 
ENDBRANCH   2  16
BRANCH   2  20
ATOM     20  C7  <0> d          -4.209  -1.580   1.405  0.00  0.00    -0.019 C 
ATOM     21  H11 <0> d          -3.890  -0.575   1.679  0.00  0.00     0.056 H 
ATOM     22  H12 <0> d          -5.295  -1.603   1.309  0.00  0.00     0.056 H 
ATOM     23  H13 <0> d          -3.898  -2.283   2.178  0.00  0.00     0.056 H 
ENDBRANCH   2  20
TORSDOF 7
