REMARK  5 active torsions:
REMARK  status: ('A' for Active; 'I' for Inactive)
REMARK    1  A    between atoms: C1_1  and  O1_2 
REMARK    2  A    between atoms: O1_2  and  C2_3 
REMARK    3  A    between atoms: C2_3  and  C3_5 
REMARK    4  A    between atoms: C3_5  and  C4_6 
REMARK    5  A    between atoms: C4_6  and  O3_7 
ROOT
ATOM      1  C3  <0> d           1.145   3.085   0.008  0.00  0.00     0.035 C 
ATOM      2  H4  <0> d           0.591   3.404  -0.875  0.00  0.00     0.051 H 
ATOM      3  H5  <0> d           0.608   3.395   0.904  0.00  0.00     0.051 H 
ENDROOT
BRANCH   1   4
ATOM      4  C2  <0> d           2.513   3.717  -0.002  0.00  0.00     0.260 C 
ATOM      5  O2  <0> d           3.500   3.020  -0.015  0.00  0.00    -0.265 OA
BRANCH   4   6
ATOM      6  O1  <0> d           2.635   5.053   0.004  0.00  0.00    -0.326 OA
BRANCH   6   7
ATOM      7  C1  <0> d           3.984   5.592  -0.006  0.00  0.00     0.013 C 
ATOM      8  H1  <0> d           3.940   6.681   0.000  0.00  0.00     0.067 H 
ATOM      9  H2  <0> d           4.520   5.245   0.877  0.00  0.00     0.067 H 
ATOM     10  H3  <0> d           4.503   5.255  -0.903  0.00  0.00     0.067 H 
ENDBRANCH   6   7
ENDBRANCH   4   6
ENDBRANCH   1   4
BRANCH   1  11
ATOM     11  C4  <0> d           1.286   1.562  -0.002  0.00  0.00     0.025 C 
ATOM     12  H6  <0> d           1.840   1.243   0.881  0.00  0.00     0.074 H 
ATOM     13  H7  <0> d           1.823   1.252  -0.899  0.00  0.00     0.074 H 
BRANCH  11  14
ATOM     14  O3  <0> d          -0.011   0.963   0.007  0.00  0.00    -0.400 OA
ATOM     15  H8  <0> d           0.002  -0.004   0.002  0.00  0.00     0.209 HD
ENDBRANCH  11  14
ENDBRANCH   1  11
TORSDOF 5
