REMARK  4 active torsions:
REMARK  status: ('A' for Active; 'I' for Inactive)
REMARK    1  A    between atoms: C1_1  and  C2_2 
REMARK    2  A    between atoms: C2_2  and  N1_3 
REMARK    3  A    between atoms: C3_4  and  C6_8 
REMARK    4  A    between atoms: C6_8  and  O1_9 
ROOT
ATOM      1  N1  <0> d           2.159   3.955   0.008  0.00  0.00    -0.273 N 
ATOM      2  C3  <0> d           1.147   3.062   0.008  0.00  0.00     0.055 A 
ATOM      3  C4  <0> d          -0.015   3.756   0.023  0.00  0.00    -0.039 A 
ATOM      4  C5  <0> d           0.297   5.119   0.028  0.00  0.00     0.024 A 
ATOM      5  N2  <0> d           1.600   5.240   0.016  0.00  0.00    -0.185 NA
ATOM      6  H6  <0> d          -1.008   3.331   0.030  0.00  0.00     0.088 H 
ATOM      7  H7  <0> d          -0.414   5.931   0.040  0.00  0.00     0.117 H 
ENDROOT
BRANCH   1   8
ATOM      8  C2  <0> d           3.589   3.638  -0.001  0.00  0.00     0.014 C 
ATOM      9  H4  <0> d           4.139   4.424   0.515  0.00  0.00     0.066 H 
ATOM     10  H5  <0> d           3.753   2.687   0.506  0.00  0.00     0.066 H 
BRANCH   8  11
ATOM     11  C1  <0> d           4.080   3.536  -1.447  0.00  0.00    -0.059 C 
ATOM     12  H1  <0> d           3.529   2.749  -1.963  0.00  0.00     0.029 H 
ATOM     13  H2  <0> d           3.915   4.487  -1.954  0.00  0.00     0.029 H 
ATOM     14  H3  <0> d           5.144   3.300  -1.453  0.00  0.00     0.029 H 
ENDBRANCH   8  11
ENDBRANCH   1   8
BRANCH   2  15
ATOM     15  C6  <0> d           1.286   1.562  -0.002  0.00  0.00     0.056 C 
ATOM     16  H8  <0> d           1.840   1.243   0.881  0.00  0.00     0.083 H 
ATOM     17  H9  <0> d           1.823   1.252  -0.899  0.00  0.00     0.083 H 
BRANCH  15  18
ATOM     18  O1  <0> d          -0.011   0.963   0.007  0.00  0.00    -0.395 OA
ATOM     19  H10 <0> d           0.002  -0.004   0.002  0.00  0.00     0.209 HD
ENDBRANCH  15  18
ENDBRANCH   2  15
TORSDOF 4
