REMARK  3 active torsions:
REMARK  status: ('A' for Active; 'I' for Inactive)
REMARK    1  A    between atoms: C1_1  and  O1_2 
REMARK    2  A    between atoms: O1_2  and  C2_3 
REMARK    3  A    between atoms: C6_7  and  O2_9 
ROOT
ATOM      1  C2  <0> d          -0.049   3.845   0.023  0.00  0.00     0.070 A 
ATOM      2  C3  <0> d           1.160   3.164   0.008  0.00  0.00    -0.051 A 
ATOM      3  C4  <0> d           1.175   1.782   0.000  0.00  0.00    -0.078 A 
ATOM      4  C5  <0> d          -0.013   1.076   0.008  0.00  0.00    -0.051 A 
ATOM      5  C6  <0> d          -1.224   1.753   0.017  0.00  0.00     0.068 A 
ATOM      6  C7  <0> d          -1.242   3.139   0.030  0.00  0.00    -0.019 A 
ATOM      7  H4  <0> d           2.089   3.714   0.002  0.00  0.00     0.087 H 
ATOM      8  H5  <0> d           2.117   1.254  -0.012  0.00  0.00     0.083 H 
ATOM      9  H6  <0> d           0.002  -0.004   0.002  0.00  0.00     0.087 H 
ATOM     10  H7  <0> d          -2.184   3.667   0.042  0.00  0.00     0.092 H 
ENDROOT
BRANCH   1  11
ATOM     11  O1  <0> d          -0.064   5.204   0.029  0.00  0.00    -0.356 OA
BRANCH  11  12
ATOM     12  C1  <0> d           1.202   5.867   0.020  0.00  0.00     0.010 C 
ATOM     13  H1  <0> d           1.754   5.584  -0.876  0.00  0.00     0.066 H 
ATOM     14  H2  <0> d           1.048   6.946   0.027  0.00  0.00     0.066 H 
ATOM     15  H3  <0> d           1.771   5.576   0.903  0.00  0.00     0.066 H 
ENDBRANCH  11  12
ENDBRANCH   1  11
BRANCH   5  16
ATOM     16  O2  <0> d          -2.391   1.057   0.019  0.00  0.00    -0.361 OA
ATOM     17  H8  <0> d          -2.725   0.851   0.903  0.00  0.00     0.217 HD
ENDBRANCH   5  16
TORSDOF 3
