REMARK  6 active torsions:
REMARK  status: ('A' for Active; 'I' for Inactive)
REMARK    1  A    between atoms: C1_1  and  C2_2 
REMARK    2  A    between atoms: C2_2  and  C3_3 
REMARK    3  A    between atoms: C3_3  and  C4_5 
REMARK    4  A    between atoms: C3_3  and  O2_8 
REMARK    5  A    between atoms: C4_5  and  O1_6 
REMARK    6  A    between atoms: O1_6  and  C5_7 
ROOT
ATOM      1  C3  <0> d          -0.729   1.579   1.267  0.00  0.00     0.056 C 
ATOM      2  H1  <0> d          -1.776   1.277   1.232  0.00  0.00     0.086 H 
ENDROOT
BRANCH   1   3
ATOM      3  C2  <0> d          -0.064   0.971   2.503  0.00  0.00    -0.043 C 
ATOM      4  H5  <0> d          -0.047  -0.115   2.410  0.00  0.00     0.036 H 
ATOM      5  H6  <0> d           0.957   1.344   2.587  0.00  0.00     0.036 H 
BRANCH   3   6
ATOM      6  C1  <0> d          -0.855   1.364   3.753  0.00  0.00    -0.074 C 
ATOM      7  H2  <0> d          -1.875   0.991   3.669  0.00  0.00     0.027 H 
ATOM      8  H3  <0> d          -0.381   0.931   4.634  0.00  0.00     0.027 H 
ATOM      9  H4  <0> d          -0.871   2.450   3.846  0.00  0.00     0.027 H 
ENDBRANCH   3   6
ENDBRANCH   1   3
BRANCH   1  10
ATOM     10  C4  <0> d          -0.013   1.086   0.008  0.00  0.00     0.043 C 
ATOM     11  H7  <0> d           0.002  -0.004   0.002  0.00  0.00     0.078 H 
ATOM     12  H8  <0> d           1.010   1.463   0.000  0.00  0.00     0.078 H 
BRANCH  10  13
ATOM     13  O1  <0> d          -0.704   1.559  -1.150  0.00  0.00    -0.393 OA
BRANCH  13  14
ATOM     14  C5  <0> d          -0.114   1.152  -2.386  0.00  0.00     0.004 C 
ATOM     15  H9  <0> d          -0.697   1.552  -3.216  0.00  0.00     0.066 H 
ATOM     16  H10 <0> d           0.907   1.531  -2.443  0.00  0.00     0.066 H 
ATOM     17  H11 <0> d          -0.101   0.064  -2.442  0.00  0.00     0.066 H 
ENDBRANCH  13  14
ENDBRANCH  10  13
ENDBRANCH   1  10
BRANCH   1  18
ATOM     18  O2  <0> d          -0.647   3.004   1.334  0.00  0.00    -0.393 OA
ATOM     19  H12 <0> d           0.258   3.345   1.368  0.00  0.00     0.210 HD
ENDBRANCH   1  18
TORSDOF 6
