REMARK  1 active torsions:
REMARK  status: ('A' for Active; 'I' for Inactive)
REMARK    1  A    between atoms: C1_1  and  C2_2 
ROOT
ATOM      1  C2  <0> d           0.002  -0.004   0.002  0.00  0.00     0.142 A 
ATOM      2  N1  <0> d           1.226  -0.438  -0.012  0.00  0.00    -0.226 NA
ATOM      3  C3  <0> d           2.070   0.630  -0.014  0.00  0.00     0.096 A 
ATOM      4  C4  <0> d           3.460   0.763  -0.027  0.00  0.00    -0.015 A 
ATOM      5  C5  <0> d           4.026   2.020  -0.025  0.00  0.00     0.118 A 
ATOM      6  C6  <0> d           3.221   3.152  -0.012  0.00  0.00    -0.043 A 
ATOM      7  C7  <0> d           1.848   3.034   0.000  0.00  0.00    -0.045 A 
ATOM      8  C8  <0> d           1.262   1.777  -0.001  0.00  0.00     0.106 A 
ATOM      9  O1  <0> d          -0.016   1.338   0.009  0.00  0.00    -0.294 OA
ATOM     10  F1  <0> d           5.370   2.151  -0.037  0.00  0.00    -0.206 F 
ATOM     11  H4  <0> d           4.088  -0.115  -0.038  0.00  0.00     0.091 H 
ATOM     12  H5  <0> d           3.675   4.132  -0.011  0.00  0.00     0.088 H 
ATOM     13  H6  <0> d           1.229   3.918   0.010  0.00  0.00     0.088 H 
ENDROOT
BRANCH   1  14
ATOM     14  C1  <0> d          -1.223  -0.882   0.009  0.00  0.00    -0.015 C 
ATOM     15  H1  <0> d          -1.528  -1.088  -1.016  0.00  0.00     0.038 H 
ATOM     16  H2  <0> d          -0.994  -1.820   0.516  0.00  0.00     0.038 H 
ATOM     17  H3  <0> d          -2.031  -0.373   0.534  0.00  0.00     0.038 H 
ENDBRANCH   1  14
TORSDOF 1
