REMARK  5 active torsions:
REMARK  status: ('A' for Active; 'I' for Inactive)
REMARK    1  A    between atoms: C1_1  and  C2_2 
REMARK    2  A    between atoms: C4_4  and  C8_9 
REMARK    3  A    between atoms: C6_6  and  C7_8 
REMARK    4  A    between atoms: C8_9  and  C9_10 
REMARK    5  A    between atoms: C8_9  and  C10_11 
ROOT
ATOM      1  C2  <0> d          -1.204   1.776   0.017  0.00  0.00     0.050 A 
ATOM      2  C3  <0> d          -0.013   1.076   0.008  0.00  0.00    -0.048 A 
ATOM      3  C4  <0> d           1.170   1.814   0.001  0.00  0.00    -0.050 A 
ATOM      4  C5  <0> d           1.022   3.200   0.009  0.00  0.00    -0.048 A 
ATOM      5  C6  <0> d          -0.265   3.707   0.024  0.00  0.00     0.050 A 
ATOM      6  O1  <0> d          -1.234   2.984   0.029  0.00  0.00    -0.320 OA
ATOM      7  H4  <0> d           0.002  -0.004   0.002  0.00  0.00     0.088 H 
ATOM      8  H5  <0> d           1.881   3.855   0.004  0.00  0.00     0.088 H 
ENDROOT
BRANCH   3   9
ATOM      9  C8  <0> d           2.525   1.155  -0.015  0.00  0.00    -0.035 C 
ATOM     10  H9  <0> d           2.402   0.072  -0.019  0.00  0.00     0.046 H 
BRANCH   9  11
ATOM     11  C9  <0> d           3.288   1.586  -1.269  0.00  0.00    -0.069 C 
ATOM     12  H10 <0> d           3.411   2.669  -1.265  0.00  0.00     0.028 H 
ATOM     13  H11 <0> d           4.268   1.109  -1.280  0.00  0.00     0.028 H 
ATOM     14  H12 <0> d           2.728   1.287  -2.155  0.00  0.00     0.028 H 
ENDBRANCH   9  11
BRANCH   9  15
ATOM     15  C10 <0> d           3.311   1.574   1.229  0.00  0.00    -0.069 C 
ATOM     16  H13 <0> d           2.767   1.267   2.123  0.00  0.00     0.028 H 
ATOM     17  H14 <0> d           4.290   1.097   1.218  0.00  0.00     0.028 H 
ATOM     18  H15 <0> d           3.434   2.657   1.233  0.00  0.00     0.028 H 
ENDBRANCH   9  15
ENDBRANCH   3   9
BRANCH   1  19
ATOM     19  C1  <0> d          -2.503   1.011   0.020  0.00  0.00    -0.031 C 
ATOM     20  H1  <0> d          -2.786   0.837   0.963  0.00  0.00     0.036 H 
ATOM     21  H2  <0> d          -3.270   1.596  -0.488  0.00  0.00     0.036 H 
ATOM     22  H3  <0> d          -2.367   0.062  -0.500  0.00  0.00     0.036 H 
ENDBRANCH   1  19
BRANCH   5  23
ATOM     23  C7  <0> d          -0.464   5.200   0.032  0.00  0.00    -0.031 C 
ATOM     24  H6  <0> d          -0.522   5.565  -0.993  0.00  0.00     0.036 H 
ATOM     25  H7  <0> d          -1.389   5.440   0.556  0.00  0.00     0.036 H 
ATOM     26  H8  <0> d           0.375   5.676   0.541  0.00  0.00     0.036 H 
ENDBRANCH   5  23
TORSDOF 5
