REMARK  5 active torsions:
REMARK  status: ('A' for Active; 'I' for Inactive)
REMARK    1  A    between atoms: C1_1  and  O1_2 
REMARK    2  A    between atoms: O1_2  and  C2_3 
REMARK    3  A    between atoms: C3_4  and  N3_11 
REMARK    4  A    between atoms: C5_7  and  O2_9 
REMARK    5  A    between atoms: O2_9  and  C6_10 
ROOT
ATOM      1  C2  <0> d          -1.190  -0.738   0.015  0.00  0.00     0.196 A 
ATOM      2  C3  <0> d           0.002  -0.004   0.002  0.00  0.00     0.097 A 
ATOM      3  C4  <0> d           1.202  -0.698  -0.013  0.00  0.00     0.036 A 
ATOM      4  N1  <0> d           1.182  -2.024  -0.020  0.00  0.00    -0.217 NA
ATOM      5  C5  <0> d           0.038  -2.686  -0.012  0.00  0.00     0.270 A 
ATOM      6  N2  <0> d          -1.129  -2.063   0.003  0.00  0.00    -0.180 NA
ATOM      7  H4  <0> d           2.142  -0.166  -0.019  0.00  0.00     0.118 H 
ENDROOT
BRANCH   1   8
ATOM      8  O1  <0> d          -2.388  -0.103   0.036  0.00  0.00    -0.338 OA
BRANCH   8   9
ATOM      9  C1  <0> d          -3.557  -0.925   0.049  0.00  0.00     0.012 C 
ATOM     10  H1  <0> d          -4.454  -0.288   0.065  0.00  0.00     0.067 H 
ATOM     11  H2  <0> d          -3.546  -1.565   0.943  0.00  0.00     0.067 H 
ATOM     12  H3  <0> d          -3.572  -1.556  -0.853  0.00  0.00     0.067 H 
ENDBRANCH   8   9
ENDBRANCH   1   8
BRANCH   2  13
ATOM     13  N3  <0> d          -0.017   1.399   0.010  0.00  0.00    -0.394 N 
ATOM     14  H8  <0> d           0.928   1.962  -0.001  0.00  0.00     0.156 HD
ATOM     15  H9  <0> d          -0.977   1.936   0.026  0.00  0.00     0.156 HD
ENDBRANCH   2  13
BRANCH   5  16
ATOM     16  O2  <0> d           0.061  -4.042  -0.018  0.00  0.00    -0.324 OA
BRANCH  16  17
ATOM     17  C6  <0> d           1.345  -4.668  -0.034  0.00  0.00     0.013 C 
ATOM     18  H5  <0> d           1.220  -5.761  -0.037  0.00  0.00     0.067 H 
ATOM     19  H6  <0> d           1.911  -4.368   0.861  0.00  0.00     0.067 H 
ATOM     20  H7  <0> d           1.894  -4.359  -0.936  0.00  0.00     0.067 H 
ENDBRANCH  16  17
ENDBRANCH   5  16
TORSDOF 5
