REMARK  1 active torsions:
REMARK  status: ('A' for Active; 'I' for Inactive)
REMARK    1  A    between atoms: C3_3  and  C5_5 
ROOT
ATOM      1  C1  <0> d          -0.019   1.534   0.011  0.00  0.00    -0.064 C 
ATOM      2  C2  <0> d           1.518   1.476  -0.004  0.00  0.00    -0.055 C 
ATOM      3  C3  <0> d           1.381   0.097  -0.670  0.00  0.00     0.008 C 
ATOM      4  C4  <0> d           0.002  -0.004   0.002  0.00  0.00    -0.055 C 
ATOM      5  H1  <0> d          -0.431   1.960   0.925  0.00  0.00     0.033 H 
ATOM      6  H2  <0> d          -0.448   1.969  -0.892  0.00  0.00     0.033 H 
ATOM      7  H3  <0> d           1.977   2.228  -0.647  0.00  0.00     0.034 H 
ATOM      8  H4  <0> d           1.963   1.439   0.990  0.00  0.00     0.034 H 
ATOM      9  H5  <0> d           1.335   0.140  -1.758  0.00  0.00     0.052 H 
ATOM     10  H6  <0> d           0.033  -0.446   0.998  0.00  0.00     0.034 H 
ATOM     11  H7  <0> d          -0.763  -0.448  -0.635  0.00  0.00     0.034 H 
ENDROOT
BRANCH   3  12
ATOM     12  C5  <0> d           2.375  -0.918  -0.165  0.00  0.00     0.161 A 
ATOM     13  N2  <0> d           2.485  -1.321   1.068  0.00  0.00    -0.109 NA
ATOM     14  O1  <0> d           3.537  -2.273   1.091  0.00  0.00    -0.178 OA
ATOM     15  C6  <0> d           3.991  -2.361  -0.166  0.00  0.00     0.268 A 
ATOM     16  N1  <0> d           3.290  -1.547  -0.910  0.00  0.00    -0.194 NA
ATOM     17 Cl1  <0> d           5.286  -3.380  -0.713  0.00  0.00    -0.033 Cl
ENDBRANCH   3  12
TORSDOF 1
