REMARK  1 active torsions:
REMARK  status: ('A' for Active; 'I' for Inactive)
REMARK    1  A    between atoms: C5_6  and  O1_7 
ROOT
ATOM      1  C1  <0> d           1.849   1.833  -1.207  0.00  0.00    -0.047 A 
ATOM      2  C2  <0> d           3.104   2.413  -1.170  0.00  0.00    -0.042 A 
ATOM      3  C3  <0> d           3.696   2.674   0.067  0.00  0.00     0.136 A 
ATOM      4  N1  <0> d           3.065   2.372   1.196  0.00  0.00    -0.247 NA
ATOM      5  C4  <0> d           1.869   1.826   1.195  0.00  0.00     0.035 A 
ATOM      6  C5  <0> d           1.222   1.532  -0.001  0.00  0.00     0.083 A 
ATOM      7  C6  <0> d           4.995   3.273   0.119  0.00  0.00     0.119 C 
ATOM      8  N2  <0> d           6.026   3.749   0.160  0.00  0.00    -0.190 NA
ATOM      9  H1  <0> d           1.367   1.620  -2.149  0.00  0.00     0.087 H 
ATOM     10  H2  <0> d           3.620   2.660  -2.086  0.00  0.00     0.088 H 
ATOM     11  H3  <0> d           1.386   1.598   2.133  0.00  0.00     0.119 H 
ENDROOT
BRANCH   6  12
ATOM     12  O1  <0> d          -0.011   0.963   0.007  0.00  0.00    -0.359 OA
ATOM     13  H4  <0> d           0.002  -0.004   0.002  0.00  0.00     0.217 HD
ENDBRANCH   6  12
TORSDOF 1
