REMARK  1 active torsions:
REMARK  status: ('A' for Active; 'I' for Inactive)
REMARK    1  A    between atoms: C3_6  and  N3_10 
ROOT
ATOM      1  C1  <0> d          -3.578   2.937   0.035  0.00  0.00     0.040 A 
ATOM      2  C2  <0> d          -2.379   3.667   0.033  0.00  0.00     0.264 A 
ATOM      3  O1  <0> d          -2.395   4.887   0.040  0.00  0.00    -0.268 OA
ATOM      4  N1  <0> d          -1.209   2.994   0.030  0.00  0.00    -0.154 N 
ATOM      5  H1  <0> d          -0.257   3.546   0.037  0.00  0.00     0.187 HD
ATOM      6  C3  <0> d          -1.206   1.634   0.017  0.00  0.00     0.703 A 
ATOM      7  N2  <0> d          -2.330   0.947   0.018  0.00  0.00    -0.035 NA
ATOM      8  C4  <0> d          -3.515   1.559   0.027  0.00  0.00     0.233 A 
ATOM      9  F1  <0> d          -4.653   0.830   0.029  0.00  0.00    -0.183 F 
ATOM     10  H2  <0> d          -4.531   3.444   0.043  0.00  0.00     0.099 H 
ENDROOT
BRANCH   6  11
ATOM     11  N3  <0> d          -0.011   0.966   0.007  0.00  0.00    -0.233 N 
ATOM     12  H3  <0> d           0.004  -0.134  -0.003  0.00  0.00     0.174 HD
ATOM     13  H4  <0> d           0.934   1.529   0.010  0.00  0.00     0.174 HD
ENDBRANCH   6  11
TORSDOF 1
