REMARK  0 active torsions:
REMARK  status: ('A' for Active; 'I' for Inactive)
ROOT
ATOM      1  C1  <0> d          -0.017   1.373   0.010  0.00  0.00    -0.082 C 
ATOM      2  C2  <0> d           1.024   2.248   0.004  0.00  0.00    -0.082 C 
ATOM      3  C3  <0> d           2.373   1.998  -0.026  0.00  0.00    -0.077 C 
ATOM      4  C4  <0> d           2.885   0.830  -0.479  0.00  0.00    -0.054 C 
ATOM      5  C5  <0> d           4.035   0.149  -0.191  0.00  0.00    -0.077 C 
ATOM      6  C6  <0> d           4.057  -1.222  -0.141  0.00  0.00    -0.082 C 
ATOM      7  C7  <0> d           3.030  -2.107  -0.061  0.00  0.00    -0.082 C 
ATOM      8  C8  <0> d           1.671  -1.898  -0.011  0.00  0.00    -0.077 C 
ATOM      9  C9  <0> d           1.122  -0.698  -0.332  0.00  0.00    -0.054 C 
ATOM     10  C10 <0> d           0.002  -0.004   0.002  0.00  0.00    -0.077 C 
ATOM     11  C11 <0> d           1.951   0.041  -1.409  0.00  0.00    -0.017 C 
ATOM     12  H1  <0> d          -0.999   1.822   0.026  0.00  0.00     0.083 H 
ATOM     13  H2  <0> d           0.749   3.292   0.027  0.00  0.00     0.083 H 
ATOM     14  H3  <0> d           3.052   2.762   0.325  0.00  0.00     0.084 H 
ATOM     15  H4  <0> d           4.943   0.701   0.000  0.00  0.00     0.084 H 
ATOM     16  H5  <0> d           5.042  -1.665  -0.170  0.00  0.00     0.083 H 
ATOM     17  H6  <0> d           3.329  -3.145  -0.031  0.00  0.00     0.083 H 
ATOM     18  H7  <0> d           1.025  -2.709   0.290  0.00  0.00     0.084 H 
ATOM     19  H8  <0> d          -0.894  -0.545   0.267  0.00  0.00     0.084 H 
ATOM     20  H9  <0> d           1.328   0.704  -2.009  0.00  0.00     0.047 H 
ATOM     21  H10 <0> d           2.506  -0.658  -2.036  0.00  0.00     0.047 H 
ENDROOT
TORSDOF 0
