REMARK  6 active torsions:
REMARK  status: ('A' for Active; 'I' for Inactive)
REMARK    1  A    between atoms: C1_1  and  C2_2 
REMARK    2  A    between atoms: C2_2  and  C3_3 
REMARK    3  A    between atoms: C2_2  and  C4_4 
REMARK    4  A    between atoms: C2_2  and  C6_6 
REMARK    5  A    between atoms: C6_6  and  O2_8 
REMARK    6  A    between atoms: O2_8  and  C7_9 
ROOT
ATOM      1  C4  <0> d          -1.379  -0.514   0.013  0.00  0.00    -0.098 C 
ATOM      2  C5  <0> d          -2.480  -0.920   0.021  0.00  0.00    -0.153 C 
ATOM      3  H7  <0> d          -3.465  -1.283   0.028  0.00  0.00     0.166 H 
ENDROOT
BRANCH   1   4
ATOM      4  C2  <0> d           0.002  -0.004   0.002  0.00  0.00     0.103 C 
BRANCH   4   5
ATOM      5  C1  <0> d          -0.019   1.526   0.010  0.00  0.00    -0.050 C 
ATOM      6  H1  <0> d           1.004   1.903   0.003  0.00  0.00     0.030 H 
ATOM      7  H2  <0> d          -0.546   1.887  -0.873  0.00  0.00     0.030 H 
ATOM      8  H3  <0> d          -0.529   1.877   0.907  0.00  0.00     0.030 H 
ENDBRANCH   4   5
BRANCH   4   9
ATOM      9  C3  <0> d           0.742  -0.511   1.242  0.00  0.00    -0.050 C 
ATOM     10  H4  <0> d           0.232  -0.159   2.138  0.00  0.00     0.030 H 
ATOM     11  H5  <0> d           0.757  -1.601   1.236  0.00  0.00     0.030 H 
ATOM     12  H6  <0> d           1.765  -0.134   1.234  0.00  0.00     0.030 H 
ENDBRANCH   4   9
BRANCH   4  13
ATOM     13  C6  <0> d           0.707  -0.490  -1.238  0.00  0.00     0.278 C 
ATOM     14  O1  <0> d           0.122  -1.188  -2.031  0.00  0.00    -0.263 OA
BRANCH  13  15
ATOM     15  O2  <0> d           1.986  -0.147  -1.461  0.00  0.00    -0.325 OA
BRANCH  15  16
ATOM     16  C7  <0> d           2.592  -0.643  -2.656  0.00  0.00     0.013 C 
ATOM     17  H8  <0> d           2.579  -1.733  -2.645  0.00  0.00     0.067 H 
ATOM     18  H9  <0> d           2.037  -0.282  -3.522  0.00  0.00     0.067 H 
ATOM     19  H10 <0> d           3.622  -0.293  -2.713  0.00  0.00     0.067 H 
ENDBRANCH  15  16
ENDBRANCH  13  15
ENDBRANCH   4  13
ENDBRANCH   1   4
TORSDOF 6
