REMARK  4 active torsions:
REMARK  status: ('A' for Active; 'I' for Inactive)
REMARK    1  A    between atoms: C1_1  and  C2_2 
REMARK    2  A    between atoms: C8_9  and  C9_11 
REMARK    3  A    between atoms: C9_11  and  C10_12 
REMARK    4  A    between atoms: C10_12  and  O1_13 
ROOT
ATOM      1  C2  <0> d          -0.045   1.159   0.049  0.00  0.00    -0.051 C 
ATOM      2  H1  <0> d          -0.030   0.071   0.117  0.00  0.00     0.040 H 
ATOM      3  C3  <0> d           1.390   1.689   0.024  0.00  0.00    -0.061 C 
ATOM      4  C4  <0> d           1.379   3.218   0.018  0.00  0.00    -0.061 C 
ATOM      5  C5  <0> d           0.711   3.718  -1.268  0.00  0.00    -0.045 C 
ATOM      6  C6  <0> d          -0.658   3.083  -1.377  0.00  0.00    -0.085 C 
ATOM      7  C7  <0> d          -1.723   3.817  -1.588  0.00  0.00    -0.119 C 
ATOM      8  C8  <0> d          -0.766   1.581  -1.236  0.00  0.00    -0.028 C 
ATOM      9  H2  <0> d          -0.297   1.099  -2.094  0.00  0.00     0.047 H 
ATOM     10  H6  <0> d           1.923   1.334   0.906  0.00  0.00     0.033 H 
ATOM     11  H7  <0> d           1.894   1.327  -0.873  0.00  0.00     0.033 H 
ATOM     12  H8  <0> d           0.821   3.581   0.881  0.00  0.00     0.033 H 
ATOM     13  H9  <0> d           2.402   3.590   0.065  0.00  0.00     0.033 H 
ATOM     14  H10 <0> d           0.610   4.802  -1.230  0.00  0.00     0.039 H 
ATOM     15  H11 <0> d           1.318   3.436  -2.128  0.00  0.00     0.039 H 
ATOM     16  H12 <0> d          -1.643   4.893  -1.604  0.00  0.00     0.067 H 
ATOM     17  H13 <0> d          -2.681   3.344  -1.745  0.00  0.00     0.067 H 
ENDROOT
BRANCH   8  18
ATOM     18  C9  <0> d          -2.239   1.177  -1.155  0.00  0.00    -0.038 C 
ATOM     19  H14 <0> d          -2.686   1.612  -0.261  0.00  0.00     0.037 H 
ATOM     20  H15 <0> d          -2.765   1.541  -2.038  0.00  0.00     0.037 H 
BRANCH  18  21
ATOM     21  C10 <0> d          -2.347  -0.348  -1.089  0.00  0.00     0.017 C 
ATOM     22  H16 <0> d          -1.820  -0.786  -1.937  0.00  0.00     0.074 H 
ATOM     23  H17 <0> d          -1.901  -0.704  -0.161  0.00  0.00     0.074 H 
BRANCH  21  24
ATOM     24  O1  <0> d          -3.723  -0.730  -1.134  0.00  0.00    -0.401 OA
ATOM     25  H18 <0> d          -3.867  -1.686  -1.096  0.00  0.00     0.209 HD
ENDBRANCH  21  24
ENDBRANCH  18  21
ENDBRANCH   8  18
BRANCH   1  26
ATOM     26  C1  <0> d          -0.780   1.736   1.260  0.00  0.00    -0.072 C 
ATOM     27  H3  <0> d          -0.795   2.824   1.192  0.00  0.00     0.028 H 
ATOM     28  H4  <0> d          -1.803   1.359   1.278  0.00  0.00     0.028 H 
ATOM     29  H5  <0> d          -0.267   1.436   2.174  0.00  0.00     0.028 H 
ENDBRANCH   1  26
TORSDOF 4
