REMARK  8 active torsions:
REMARK  status: ('A' for Active; 'I' for Inactive)
REMARK    1  A    between atoms: C1_1  and  C2_2 
REMARK    2  A    between atoms: C2_2  and  C3_3 
REMARK    3  A    between atoms: C3_3  and  C4_4 
REMARK    4  A    between atoms: C4_4  and  C5_6 
REMARK    5  A    between atoms: C4_4  and  C6_7 
REMARK    6  A    between atoms: C6_7  and  C7_9 
REMARK    7  A    between atoms: C6_7  and  O1_11 
REMARK    8  A    between atoms: C7_9  and  C8_10 
ROOT
ATOM      1  C4  <0> d          -0.729   1.579   1.267  0.00  0.00    -0.033 C 
ATOM      2  H1  <0> d          -0.744   2.669   1.273  0.00  0.00     0.043 H 
ENDROOT
BRANCH   1   3
ATOM      3  C3  <0> d          -2.164   1.050   1.278  0.00  0.00    -0.060 C 
ATOM      4  H8  <0> d          -2.152  -0.036   1.182  0.00  0.00     0.033 H 
ATOM      5  H9  <0> d          -2.647   1.326   2.215  0.00  0.00     0.033 H 
BRANCH   3   6
ATOM      6  C2  <0> d          -2.940   1.656   0.107  0.00  0.00    -0.068 C 
ATOM      7  H6  <0> d          -2.953   2.741   0.202  0.00  0.00     0.032 H 
ATOM      8  H7  <0> d          -2.458   1.379  -0.831  0.00  0.00     0.032 H 
BRANCH   6   9
ATOM      9  C1  <0> d          -4.376   1.126   0.117  0.00  0.00    -0.077 C 
ATOM     10  H3  <0> d          -4.363   0.040   0.022  0.00  0.00     0.027 H 
ATOM     11  H4  <0> d          -4.858   1.403   1.055  0.00  0.00     0.027 H 
ATOM     12  H5  <0> d          -4.929   1.558  -0.717  0.00  0.00     0.027 H 
ENDBRANCH   6   9
ENDBRANCH   3   6
ENDBRANCH   1   3
BRANCH   1  13
ATOM     13  C5  <0> d          -0.013   1.086   0.008  0.00  0.00    -0.071 C 
ATOM     14  H10 <0> d           0.002  -0.004   0.002  0.00  0.00     0.028 H 
ATOM     15  H11 <0> d           1.010   1.463   0.000  0.00  0.00     0.028 H 
ATOM     16  H12 <0> d          -0.540   1.447  -0.875  0.00  0.00     0.028 H 
ENDBRANCH   1  13
BRANCH   1  17
ATOM     17  C6  <0> d           0.011   1.072   2.506  0.00  0.00     0.038 C 
ATOM     18  H2  <0> d          -0.547   1.348   3.401  0.00  0.00     0.083 H 
BRANCH  17  19
ATOM     19  C7  <0> d           1.405   1.701   2.561  0.00  0.00    -0.044 C 
ATOM     20  H13 <0> d           1.994   1.354   1.712  0.00  0.00     0.036 H 
ATOM     21  H14 <0> d           1.316   2.787   2.522  0.00  0.00     0.036 H 
BRANCH  19  22
ATOM     22  C8  <0> d           2.098   1.293   3.862  0.00  0.00    -0.074 C 
ATOM     23  H15 <0> d           1.509   1.640   4.712  0.00  0.00     0.027 H 
ATOM     24  H16 <0> d           2.187   0.207   3.902  0.00  0.00     0.027 H 
ATOM     25  H17 <0> d           3.091   1.741   3.901  0.00  0.00     0.027 H 
ENDBRANCH  19  22
ENDBRANCH  17  19
BRANCH  17  26
ATOM     26  O1  <0> d           0.132  -0.350   2.440  0.00  0.00    -0.395 OA
ATOM     27  H18 <0> d           0.619  -0.668   1.668  0.00  0.00     0.210 HD
ENDBRANCH  17  26
ENDBRANCH   1  17
TORSDOF 8
