REMARK  2 active torsions:
REMARK  status: ('A' for Active; 'I' for Inactive)
REMARK    1  A    between atoms: C3_3  and  C5_6 
REMARK    2  A    between atoms: C7_8  and  N3_12 
ROOT
ATOM      1  C5  <0> d          -3.435   2.070   0.030  0.00  0.00     0.087 A 
ATOM      2  C6  <0> d          -2.501   1.056   0.020  0.00  0.00    -0.008 A 
ATOM      3  C7  <0> d          -1.233   1.649   0.017  0.00  0.00     0.143 A 
ATOM      4  N1  <0> d          -1.381   2.953   0.030  0.00  0.00    -0.157 NA
ATOM      5  N2  <0> d          -2.750   3.251   0.034  0.00  0.00    -0.274 N 
ATOM      6  H1  <0> d          -3.153   4.166   0.038  0.00  0.00     0.189 HD
ATOM      7  H5  <0> d          -2.710  -0.003   0.015  0.00  0.00     0.093 H 
ENDROOT
BRANCH   1   8
ATOM      8  C3  <0> d          -4.899   1.910   0.036  0.00  0.00     0.103 A 
ATOM      9  C2  <0> d          -5.814   2.919   0.046  0.00  0.00    -0.046 A 
ATOM     10  C1  <0> d          -7.086   2.313   0.049  0.00  0.00    -0.059 A 
ATOM     11  H3  <0> d          -5.605   3.978   0.051  0.00  0.00     0.087 H 
ATOM     12  C4  <0> d          -6.889   0.980   0.040  0.00  0.00     0.019 A 
ATOM     13  H2  <0> d          -8.039   2.821   0.057  0.00  0.00     0.086 H 
ATOM     14  O1  <0> d          -5.567   0.740   0.026  0.00  0.00    -0.320 OA
ATOM     15  H4  <0> d          -7.665   0.229   0.038  0.00  0.00     0.123 H 
ENDBRANCH   1   8
BRANCH   3  16
ATOM     16  N3  <0> d          -0.011   0.966   0.007  0.00  0.00    -0.383 N 
ATOM     17  H6  <0> d           0.002  -0.004   0.002  0.00  0.00     0.157 HD
ATOM     18  H7  <0> d           0.822   1.462   0.002  0.00  0.00     0.157 HD
ENDBRANCH   3  16
TORSDOF 2
