REMARK  1 active torsions:
REMARK  status: ('A' for Active; 'I' for Inactive)
REMARK    1  A    between atoms: C3_4  and  C5_7 
ROOT
ATOM      1  C1  <0> d          -0.054   4.157   0.025  0.00  0.00    -0.049 A 
ATOM      2  C2  <0> d           1.147   3.465   0.010  0.00  0.00     0.006 A 
ATOM      3  N1  <0> d           1.130   2.143   0.003  0.00  0.00    -0.238 NA
ATOM      4  C3  <0> d          -0.018   1.481   0.010  0.00  0.00     0.197 A 
ATOM      5  N2  <0> d          -1.183   2.112   0.019  0.00  0.00    -0.238 NA
ATOM      6  C4  <0> d          -1.237   3.432   0.032  0.00  0.00     0.006 A 
ATOM      7  H1  <0> d          -0.069   5.237   0.031  0.00  0.00     0.087 H 
ATOM      8  H2  <0> d           2.086   3.999   0.003  0.00  0.00     0.114 H 
ATOM      9  H3  <0> d          -2.190   3.941   0.044  0.00  0.00     0.114 H 
ENDROOT
BRANCH   4  10
ATOM     10  C5  <0> d           0.002  -0.004   0.002  0.00  0.00     0.197 A 
ATOM     11  N4  <0> d          -1.146  -0.666   0.009  0.00  0.00    -0.238 NA
ATOM     12  C8  <0> d          -1.163  -1.988   0.003  0.00  0.00     0.006 A 
ATOM     13  C7  <0> d           0.038  -2.680  -0.013  0.00  0.00    -0.049 A 
ATOM     14  H6  <0> d          -2.102  -2.522   0.008  0.00  0.00     0.114 H 
ATOM     15  C6  <0> d           1.221  -1.955  -0.020  0.00  0.00     0.006 A 
ATOM     16  H5  <0> d           0.053  -3.760  -0.018  0.00  0.00     0.087 H 
ATOM     17  N3  <0> d           1.167  -0.635  -0.018  0.00  0.00    -0.238 NA
ATOM     18  H4  <0> d           2.174  -2.464  -0.032  0.00  0.00     0.114 H 
ENDBRANCH   4  10
TORSDOF 1
