REMARK  4 active torsions:
REMARK  status: ('A' for Active; 'I' for Inactive)
REMARK    1  A    between atoms: C1_1  and  C2_2 
REMARK    2  A    between atoms: C2_2  and  O1_3 
REMARK    3  A    between atoms: O1_3  and  C3_4 
REMARK    4  A    between atoms: C4_5  and  N2_10 
ROOT
ATOM      1  C3  <0> d           1.195   2.078   0.002  0.00  0.00     0.191 A 
ATOM      2  C4  <0> d          -0.017   1.385   0.010  0.00  0.00     0.079 A 
ATOM      3  C5  <0> d           0.002  -0.004   0.002  0.00  0.00    -0.052 A 
ATOM      4  C6  <0> d           1.232  -0.648  -0.013  0.00  0.00    -0.064 A 
ATOM      5  C7  <0> d           2.389   0.104  -0.020  0.00  0.00     0.005 A 
ATOM      6  N1  <0> d           2.342   1.423  -0.013  0.00  0.00    -0.235 NA
ATOM      7  H6  <0> d          -0.918  -0.570   0.007  0.00  0.00     0.087 H 
ATOM      8  H7  <0> d           1.282  -1.727  -0.020  0.00  0.00     0.085 H 
ATOM      9  H8  <0> d           3.347  -0.395  -0.032  0.00  0.00     0.114 H 
ENDROOT
BRANCH   1  10
ATOM     10  O1  <0> d           1.194   3.436   0.009  0.00  0.00    -0.333 OA
BRANCH  10  11
ATOM     11  C2  <0> d           2.467   4.085   0.000  0.00  0.00     0.024 C 
ATOM     12  H4  <0> d           3.020   3.795  -0.905  0.00  0.00     0.074 H 
ATOM     13  H5  <0> d           3.038   3.785   0.891  0.00  0.00     0.074 H 
BRANCH  11  14
ATOM     14  C1  <0> d           2.265   5.602   0.011  0.00  0.00    -0.056 C 
ATOM     15  H1  <0> d           3.245   6.102   0.004  0.00  0.00     0.030 H 
ATOM     16  H2  <0> d           1.712   5.892   0.916  0.00  0.00     0.030 H 
ATOM     17  H3  <0> d           1.694   5.902  -0.881  0.00  0.00     0.030 H 
ENDBRANCH  11  14
ENDBRANCH  10  11
ENDBRANCH   1  10
BRANCH   2  18
ATOM     18  N2  <0> d          -1.232   2.079   0.019  0.00  0.00    -0.396 N 
ATOM     19  H9  <0> d          -2.182   1.525   0.025  0.00  0.00     0.156 HD
ATOM     20  H10 <0> d          -1.237   3.179   0.021  0.00  0.00     0.156 HD
ENDBRANCH   2  18
TORSDOF 4
