REMARK  3 active torsions:
REMARK  status: ('A' for Active; 'I' for Inactive)
REMARK    1  A    between atoms: C1_1  and  C2_2 
REMARK    2  A    between atoms: C5_5  and  C8_9 
REMARK    3  A    between atoms: C6_6  and  N1_8 
REMARK       I    between atoms: C8_9  and  N2_11 
ROOT
ATOM      1  C2  <0> d          -4.803  -0.571   0.250  0.00  0.00    -0.060 A 
ATOM      2  C3  <0> d          -3.629  -1.222  -0.091  0.00  0.00    -0.076 A 
ATOM      3  C4  <0> d          -2.476  -0.504  -0.322  0.00  0.00    -0.065 A 
ATOM      4  C5  <0> d          -2.488   0.888  -0.212  0.00  0.00     0.058 A 
ATOM      5  C6  <0> d          -3.678   1.545   0.140  0.00  0.00     0.042 A 
ATOM      6  C7  <0> d          -4.832   0.804   0.363  0.00  0.00    -0.051 A 
ATOM      7  H4  <0> d          -3.617  -2.299  -0.177  0.00  0.00     0.084 H 
ATOM      8  H5  <0> d          -1.563  -1.018  -0.587  0.00  0.00     0.085 H 
ATOM      9  H6  <0> d          -5.751   1.304   0.629  0.00  0.00     0.087 H 
ENDROOT
BRANCH   4  10
ATOM     10  C8  <0> d          -1.258   1.663  -0.457  0.00  0.00     0.251 C 
ATOM     11  O1  <0> d          -1.244   2.862  -0.254  0.00  0.00    -0.268 OA
ATOM     12  N2  <0> d          -0.149   1.042  -0.905  0.00  0.00    -0.366 N 
ATOM     13  H9  <0> d          -0.160   0.086  -1.066  0.00  0.00     0.159 HD
ATOM     14  H10 <0> d           0.659   1.553  -1.069  0.00  0.00     0.159 HD
ENDBRANCH   4  10
BRANCH   5  15
ATOM     15  N1  <0> d          -3.703   2.928   0.258  0.00  0.00    -0.398 N 
ATOM     16  H7  <0> d          -3.050   3.468  -0.214  0.00  0.00     0.156 HD
ATOM     17  H8  <0> d          -4.374   3.356   0.814  0.00  0.00     0.156 HD
ENDBRANCH   5  15
BRANCH   1  18
ATOM     18  C1  <0> d          -6.057  -1.369   0.500  0.00  0.00    -0.051 C 
ATOM     19  H1  <0> d          -6.112  -1.638   1.555  0.00  0.00     0.033 H 
ATOM     20  H2  <0> d          -6.928  -0.771   0.231  0.00  0.00     0.033 H 
ATOM     21  H3  <0> d          -6.037  -2.275  -0.105  0.00  0.00     0.033 H 
ENDBRANCH   1  18
TORSDOF 3
