REMARK  1 active torsions:
REMARK  status: ('A' for Active; 'I' for Inactive)
REMARK    1  A    between atoms: C6_7  and  O1_10 
ROOT
ATOM      1  C1  <0> d           1.015  -0.483  -1.040  0.00  0.00    -0.062 C 
ATOM      2  C2  <0> d           0.686   0.107  -2.412  0.00  0.00    -0.061 C 
ATOM      3  C3  <0> d           0.636   1.641  -2.300  0.00  0.00    -0.051 C 
ATOM      4  H1  <0> d           0.580   2.129  -3.273  0.00  0.00     0.040 H 
ATOM      5  C4  <0> d           1.869   2.085  -1.481  0.00  0.00    -0.059 C 
ATOM      6  C5  <0> d           1.450   2.017  -0.001  0.00  0.00    -0.036 C 
ATOM      7  C6  <0> d          -0.019   1.534   0.011  0.00  0.00     0.058 C 
ATOM      8  C7  <0> d           0.002  -0.004   0.002  0.00  0.00    -0.036 C 
ATOM      9  C8  <0> d          -0.561   1.980  -1.373  0.00  0.00    -0.033 C 
ATOM     10  H2  <0> d           2.015  -0.168  -0.742  0.00  0.00     0.033 H 
ATOM     11  H3  <0> d           0.983  -1.571  -1.100  0.00  0.00     0.033 H 
ATOM     12  H4  <0> d           1.456  -0.182  -3.127  0.00  0.00     0.033 H 
ATOM     13  H5  <0> d          -0.281  -0.268  -2.748  0.00  0.00     0.033 H 
ATOM     14  H6  <0> d           2.705   1.410  -1.665  0.00  0.00     0.033 H 
ATOM     15  H7  <0> d           2.147   3.105  -1.746  0.00  0.00     0.033 H 
ATOM     16  H8  <0> d           1.523   3.005   0.455  0.00  0.00     0.037 H 
ATOM     17  H9  <0> d           2.081   1.309   0.535  0.00  0.00     0.037 H 
ATOM     18  H10 <0> d           0.291  -0.370   0.987  0.00  0.00     0.037 H 
ATOM     19  H11 <0> d          -0.989  -0.381  -0.251  0.00  0.00     0.037 H 
ATOM     20  H12 <0> d          -1.445   1.406  -1.650  0.00  0.00     0.037 H 
ATOM     21  H13 <0> d          -0.773   3.049  -1.384  0.00  0.00     0.037 H 
ENDROOT
BRANCH   7  22
ATOM     22  O1  <0> d          -0.764   2.066   1.107  0.00  0.00    -0.390 OA
ATOM     23  H14 <0> d          -0.431   1.800   1.975  0.00  0.00     0.210 HD
ENDBRANCH   7  22
TORSDOF 1
