REMARK  3 active torsions:
REMARK  status: ('A' for Active; 'I' for Inactive)
REMARK    1  A    between atoms: C1_1  and  C2_2 
REMARK    2  A    between atoms: C4_5  and  C6_9 
REMARK    3  A    between atoms: C4_5  and  C7_10 
ROOT
ATOM      1  C2  <0> d          -2.046   1.125   1.274  0.00  0.00     0.040 C 
ATOM      2  H1  <0> d          -2.090   0.037   1.316  0.00  0.00     0.083 H 
ATOM      3  C3  <0> d          -2.803   1.622   0.037  0.00  0.00    -0.013 C 
ATOM      4  C4  <0> d          -2.070   1.139  -1.219  0.00  0.00     0.058 C 
ATOM      5  O1  <0> d          -0.704   1.559  -1.150  0.00  0.00    -0.357 OA
ATOM      6  C5  <0> d          -0.013   1.086   0.008  0.00  0.00     0.104 C 
ATOM      7  O2  <0> d          -0.682   1.547   1.184  0.00  0.00    -0.362 OA
ATOM      8  H5  <0> d          -2.838   2.712   0.044  0.00  0.00     0.041 H 
ATOM      9  H6  <0> d          -3.818   1.225   0.044  0.00  0.00     0.041 H 
ATOM     10  H7  <0> d           0.002  -0.004   0.002  0.00  0.00     0.117 H 
ATOM     11  H8  <0> d           1.010   1.463   0.000  0.00  0.00     0.117 H 
ENDROOT
BRANCH   4  12
ATOM     12  C6  <0> d          -2.730   1.741  -2.461  0.00  0.00    -0.048 C 
ATOM     13  H9  <0> d          -2.202   1.404  -3.352  0.00  0.00     0.031 H 
ATOM     14  H10 <0> d          -3.770   1.420  -2.511  0.00  0.00     0.031 H 
ATOM     15  H11 <0> d          -2.688   2.829  -2.403  0.00  0.00     0.031 H 
ENDBRANCH   4  12
BRANCH   4  16
ATOM     16  C7  <0> d          -2.133  -0.388  -1.292  0.00  0.00    -0.048 C 
ATOM     17  H12 <0> d          -1.666  -0.814  -0.404  0.00  0.00     0.031 H 
ATOM     18  H13 <0> d          -3.174  -0.707  -1.345  0.00  0.00     0.031 H 
ATOM     19  H14 <0> d          -1.603  -0.731  -2.181  0.00  0.00     0.031 H 
ENDBRANCH   4  16
BRANCH   1  20
ATOM     20  C1  <0> d          -2.684   1.712   2.535  0.00  0.00    -0.052 C 
ATOM     21  H2  <0> d          -3.725   1.397   2.596  0.00  0.00     0.030 H 
ATOM     22  H3  <0> d          -2.145   1.358   3.414  0.00  0.00     0.030 H 
ATOM     23  H4  <0> d          -2.636   2.801   2.494  0.00  0.00     0.030 H 
ENDBRANCH   1  20
TORSDOF 3
