REMARK  7 active torsions:
REMARK  status: ('A' for Active; 'I' for Inactive)
REMARK    1  A    between atoms: C1_1  and  C2_2 
REMARK    2  A    between atoms: C2_2  and  C3_3 
REMARK    3  A    between atoms: C2_2  and  C4_4 
REMARK    4  A    between atoms: C2_2  and  C5_5 
REMARK    5  A    between atoms: C6_6  and  C7_7 
REMARK    6  A    between atoms: C7_7  and  O2_9 
REMARK    7  A    between atoms: O2_9  and  C8_10 
ROOT
ATOM      1  C2  <0> d           0.038  -2.650  -0.013  0.00  0.00     0.013 C 
ENDROOT
BRANCH   1   2
ATOM      2  C1  <0> d          -1.397  -3.179  -0.002  0.00  0.00    -0.059 C 
ATOM      3  H1  <0> d          -1.925  -2.818  -0.885  0.00  0.00     0.029 H 
ATOM      4  H2  <0> d          -1.383  -4.269  -0.008  0.00  0.00     0.029 H 
ATOM      5  H3  <0> d          -1.908  -2.828   0.895  0.00  0.00     0.029 H 
ENDBRANCH   1   2
BRANCH   1   6
ATOM      6  C3  <0> d           0.754  -3.143  -1.271  0.00  0.00    -0.059 C 
ATOM      7  H4  <0> d           1.777  -2.766  -1.279  0.00  0.00     0.029 H 
ATOM      8  H5  <0> d           0.769  -4.233  -1.277  0.00  0.00     0.029 H 
ATOM      9  H6  <0> d           0.227  -2.782  -2.154  0.00  0.00     0.029 H 
ENDBRANCH   1   6
BRANCH   1  10
ATOM     10  C4  <0> d           0.778  -3.157   1.227  0.00  0.00    -0.059 C 
ATOM     11  H7  <0> d           0.268  -2.805   2.124  0.00  0.00     0.029 H 
ATOM     12  H8  <0> d           0.793  -4.247   1.221  0.00  0.00     0.029 H 
ATOM     13  H9  <0> d           1.800  -2.779   1.219  0.00  0.00     0.029 H 
ENDBRANCH   1  10
BRANCH   1  14
ATOM     14  C5  <0> d           0.018  -1.178  -0.004  0.00  0.00    -0.087 C 
ATOM     15  C6  <0> d           0.002  -0.004   0.002  0.00  0.00     0.003 C 
BRANCH  15  16
ATOM     16  C7  <0> d          -0.017   1.428   0.010  0.00  0.00     0.338 C 
ATOM     17  O1  <0> d           1.027   2.050   0.003  0.00  0.00    -0.249 OA
BRANCH  16  18
ATOM     18  O2  <0> d          -1.194   2.086   0.019  0.00  0.00    -0.316 OA
BRANCH  18  19
ATOM     19  C8  <0> d          -1.137   3.537   0.027  0.00  0.00     0.014 C 
ATOM     20  H10 <0> d          -0.606   3.875   0.916  0.00  0.00     0.067 H 
ATOM     21  H11 <0> d          -0.614   3.885  -0.864  0.00  0.00     0.067 H 
ATOM     22  H12 <0> d          -2.150   3.940   0.034  0.00  0.00     0.067 H 
ENDBRANCH  18  19
ENDBRANCH  16  18
ENDBRANCH  15  16
ENDBRANCH   1  14
TORSDOF 7
