REMARK  3 active torsions:
REMARK  status: ('A' for Active; 'I' for Inactive)
REMARK    1  A    between atoms: C1_1  and  O1_2 
REMARK    2  A    between atoms: O1_2  and  C2_3 
REMARK    3  A    between atoms: C2_3  and  C3_5 
ROOT
ATOM      1  C3  <0> d          -1.186   3.158   0.030  0.00  0.00     0.097 A 
ATOM      2  C4  <0> d          -1.216   1.758   0.017  0.00  0.00    -0.061 A 
ATOM      3  C5  <0> d          -0.013   1.076   0.008  0.00  0.00    -0.065 A 
ATOM      4  C6  <0> d           1.172   1.790   0.001  0.00  0.00     0.005 A 
ATOM      5  N1  <0> d           1.174   3.109   0.007  0.00  0.00    -0.232 NA
ATOM      6  C7  <0> d           0.054   3.807   0.022  0.00  0.00     0.226 A 
ATOM      7  F1  <0> d           0.104   5.157   0.028  0.00  0.00    -0.183 F 
ATOM      8  H4  <0> d          -2.155   1.224   0.019  0.00  0.00     0.085 H 
ATOM      9  H5  <0> d           0.002  -0.004   0.002  0.00  0.00     0.085 H 
ATOM     10  H6  <0> d           2.112   1.259  -0.011  0.00  0.00     0.114 H 
ENDROOT
BRANCH   1  11
ATOM     11  C2  <0> d          -2.440   3.935   0.047  0.00  0.00     0.297 C 
ATOM     12  O2  <0> d          -2.402   5.150   0.052  0.00  0.00    -0.259 OA
BRANCH  11  13
ATOM     13  O1  <0> d          -3.628   3.299   0.055  0.00  0.00    -0.322 OA
BRANCH  13  14
ATOM     14  C1  <0> d          -4.820   4.127   0.071  0.00  0.00     0.013 C 
ATOM     15  H1  <0> d          -4.816   4.752   0.964  0.00  0.00     0.067 H 
ATOM     16  H2  <0> d          -4.834   4.761  -0.816  0.00  0.00     0.067 H 
ATOM     17  H3  <0> d          -5.705   3.491   0.076  0.00  0.00     0.067 H 
ENDBRANCH  13  14
ENDBRANCH  11  13
ENDBRANCH   1  11
TORSDOF 3
