REMARK  2 active torsions:
REMARK  status: ('A' for Active; 'I' for Inactive)
REMARK    1  A    between atoms: C4_5  and  O2_14 
REMARK    2  A    between atoms: C7_10  and  C8_12 
ROOT
ATOM      1  C1  <0> d           0.928  -0.286   1.225  0.00  0.00    -0.060 C 
ATOM      2  C2  <0> d           1.946   0.877   1.221  0.00  0.00    -0.058 C 
ATOM      3  C3  <0> d           1.539   1.753  -0.003  0.00  0.00    -0.016 C 
ATOM      4  H1  <0> d           1.900   2.781  -0.008  0.00  0.00     0.045 H 
ATOM      5  C4  <0> d           1.905   0.890  -1.270  0.00  0.00     0.040 C 
ATOM      6  H2  <0> d           1.797   1.476  -2.183  0.00  0.00     0.083 H 
ATOM      7  C5  <0> d           0.887  -0.273  -1.253  0.00  0.00    -0.036 C 
ATOM      8  C6  <0> d           0.002  -0.004   0.002  0.00  0.00    -0.038 C 
ATOM      9  H3  <0> d          -0.969  -0.499   0.015  0.00  0.00     0.041 H 
ATOM     10  C7  <0> d          -0.019   1.565   0.011  0.00  0.00     0.040 C 
ATOM     11  H4  <0> d          -0.471   1.963   0.919  0.00  0.00     0.058 H 
ATOM     12  H5  <0> d           0.349  -0.282   2.148  0.00  0.00     0.033 H 
ATOM     13  H6  <0> d           1.440  -1.240   1.101  0.00  0.00     0.033 H 
ATOM     14  H7  <0> d           2.959   0.495   1.095  0.00  0.00     0.033 H 
ATOM     15  H8  <0> d           1.869   1.454   2.143  0.00  0.00     0.033 H 
ATOM     16  H9  <0> d           1.404  -1.228  -1.156  0.00  0.00     0.037 H 
ATOM     17  H10 <0> d           0.279  -0.260  -2.157  0.00  0.00     0.037 H 
ENDROOT
BRANCH  10  18
ATOM     18  C8  <0> d          -0.667   2.128  -1.228  0.00  0.00     0.177 C 
ATOM     19  O1  <0> d          -0.031   2.832  -1.976  0.00  0.00    -0.648 OA
ATOM     20  O3  <0> d          -1.952   1.849  -1.499  0.00  0.00    -0.648 OA
ENDBRANCH  10  18
BRANCH   5  21
ATOM     21  O2  <0> d           3.238   0.388  -1.157  0.00  0.00    -0.395 OA
ATOM     22  H11 <0> d           3.501  -0.197  -1.881  0.00  0.00     0.210 HD
ENDBRANCH   5  21
TORSDOF 2
