REMARK  10 active torsions:
REMARK  status: ('A' for Active; 'I' for Inactive)
REMARK    1  A    between atoms: C1_1  and  C2_2 
REMARK    2  A    between atoms: C2_2  and  C3_3 
REMARK    3  A    between atoms: C3_3  and  C4_4 
REMARK    4  A    between atoms: C3_3  and  C5_5 
REMARK    5  A    between atoms: C3_3  and  O1_11 
REMARK    6  A    between atoms: C5_5  and  C6_6 
REMARK    7  A    between atoms: C6_6  and  C7_7 
REMARK    8  A    between atoms: C7_7  and  C8_8 
REMARK    9  A    between atoms: C8_8  and  C9_9 
REMARK   10  A    between atoms: C8_8  and  C10_10 
ROOT
ATOM      1  C5  <0> d          -1.433  -0.534   0.013  0.00  0.00    -0.037 C 
ATOM      2  H9  <0> d          -1.933  -0.247  -0.912  0.00  0.00     0.037 H 
ATOM      3  H10 <0> d          -1.419  -1.620   0.097  0.00  0.00     0.037 H 
ENDROOT
BRANCH   1   4
ATOM      4  C3  <0> d           0.002  -0.004   0.002  0.00  0.00     0.054 C 
BRANCH   4   5
ATOM      5  C2  <0> d           0.718  -0.497  -1.257  0.00  0.00    -0.040 C 
ATOM      6  H4  <0> d           0.733  -1.587  -1.263  0.00  0.00     0.036 H 
ATOM      7  H5  <0> d           0.191  -0.136  -2.140  0.00  0.00     0.036 H 
BRANCH   5   8
ATOM      8  C1  <0> d           2.154   0.032  -1.268  0.00  0.00    -0.074 C 
ATOM      9  H1  <0> d           2.681  -0.329  -0.385  0.00  0.00     0.027 H 
ATOM     10  H2  <0> d           2.664  -0.319  -2.164  0.00  0.00     0.027 H 
ATOM     11  H3  <0> d           2.139   1.122  -1.262  0.00  0.00     0.027 H 
ENDBRANCH   5   8
ENDBRANCH   4   5
BRANCH   4  12
ATOM     12  C4  <0> d          -0.019   1.526   0.010  0.00  0.00    -0.048 C 
ATOM     13  H6  <0> d           1.004   1.903   0.003  0.00  0.00     0.031 H 
ATOM     14  H7  <0> d          -0.546   1.887  -0.873  0.00  0.00     0.031 H 
ATOM     15  H8  <0> d          -0.529   1.877   0.907  0.00  0.00     0.031 H 
ENDBRANCH   4  12
BRANCH   4  16
ATOM     16  O1  <0> d           0.693  -0.477   1.160  0.00  0.00    -0.390 OA
ATOM     17  H22 <0> d           0.745  -1.441   1.220  0.00  0.00     0.210 HD
ENDBRANCH   4  16
ENDBRANCH   1   4
BRANCH   1  18
ATOM     18  C6  <0> d          -2.187   0.060   1.205  0.00  0.00    -0.062 C 
ATOM     19  H11 <0> d          -1.687  -0.227   2.130  0.00  0.00     0.033 H 
ATOM     20  H12 <0> d          -2.201   1.146   1.121  0.00  0.00     0.033 H 
BRANCH  18  21
ATOM     21  C7  <0> d          -3.622  -0.470   1.216  0.00  0.00    -0.062 C 
ATOM     22  H13 <0> d          -4.122  -0.183   0.291  0.00  0.00     0.033 H 
ATOM     23  H14 <0> d          -3.608  -1.557   1.299  0.00  0.00     0.033 H 
BRANCH  21  24
ATOM     24  C8  <0> d          -4.376   0.123   2.408  0.00  0.00    -0.061 C 
ATOM     25  H15 <0> d          -3.828  -0.088   3.326  0.00  0.00     0.038 H 
BRANCH  24  26
ATOM     26  C9  <0> d          -4.504   1.637   2.228  0.00  0.00    -0.073 C 
ATOM     27  H16 <0> d          -5.041   2.060   3.077  0.00  0.00     0.028 H 
ATOM     28  H17 <0> d          -3.511   2.082   2.168  0.00  0.00     0.028 H 
ATOM     29  H18 <0> d          -5.052   1.849   1.310  0.00  0.00     0.028 H 
ENDBRANCH  24  26
BRANCH  24  30
ATOM     30  C10 <0> d          -5.770  -0.500   2.491  0.00  0.00    -0.073 C 
ATOM     31  H19 <0> d          -5.679  -1.579   2.620  0.00  0.00     0.028 H 
ATOM     32  H20 <0> d          -6.307  -0.078   3.341  0.00  0.00     0.028 H 
ATOM     33  H21 <0> d          -6.319  -0.289   1.573  0.00  0.00     0.028 H 
ENDBRANCH  24  30
ENDBRANCH  21  24
ENDBRANCH  18  21
ENDBRANCH   1  18
TORSDOF 10
