REMARK  5 active torsions:
REMARK  status: ('A' for Active; 'I' for Inactive)
REMARK    1  A    between atoms: C1_1  and  C2_2 
REMARK    2  A    between atoms: C2_2  and  N1_3 
REMARK    3  A    between atoms: N1_3  and  C3_4 
REMARK    4  A    between atoms: N1_3  and  C4_5 
REMARK    5  A    between atoms: C8_9  and  N2_11 
ROOT
ATOM      1  C4  <0> d           2.090  -0.703   1.140  0.00  0.00     0.031 A 
ATOM      2  C5  <0> d           2.792  -0.450  -0.033  0.00  0.00    -0.057 A 
ATOM      3  C6  <0> d           4.156  -0.662  -0.082  0.00  0.00    -0.079 A 
ATOM      4  C7  <0> d           4.827  -1.125   1.033  0.00  0.00    -0.058 A 
ATOM      5  C8  <0> d           4.132  -1.380   2.209  0.00  0.00     0.027 A 
ATOM      6  C9  <0> d           2.762  -1.163   2.264  0.00  0.00    -0.032 A 
ATOM      7  H9  <0> d           2.270  -0.088  -0.906  0.00  0.00     0.086 H 
ATOM      8  H10 <0> d           4.699  -0.466  -0.995  0.00  0.00     0.083 H 
ATOM      9  H11 <0> d           5.894  -1.290   0.992  0.00  0.00     0.086 H 
ATOM     10  H12 <0> d           2.219  -1.355   3.177  0.00  0.00     0.090 H 
ENDROOT
BRANCH   1  11
ATOM     11  N1  <0> d           0.711  -0.489   1.189  0.00  0.00    -0.386 N 
BRANCH  11  12
ATOM     12  C2  <0> d           0.002  -0.004   0.002  0.00  0.00    -0.009 C 
ATOM     13  H4  <0> d          -1.020  -0.381   0.010  0.00  0.00     0.063 H 
ATOM     14  H5  <0> d           0.512  -0.356  -0.895  0.00  0.00     0.063 H 
BRANCH  12  15
ATOM     15  C1  <0> d          -0.019   1.526   0.010  0.00  0.00    -0.061 C 
ATOM     16  H1  <0> d           1.004   1.903   0.003  0.00  0.00     0.029 H 
ATOM     17  H2  <0> d          -0.546   1.887  -0.873  0.00  0.00     0.029 H 
ATOM     18  H3  <0> d          -0.529   1.877   0.907  0.00  0.00     0.029 H 
ENDBRANCH  12  15
ENDBRANCH  11  12
BRANCH  11  19
ATOM     19  C3  <0> d          -0.028  -0.750   2.427  0.00  0.00    -0.018 C 
ATOM     20  H6  <0> d          -0.372  -1.785   2.434  0.00  0.00     0.056 H 
ATOM     21  H7  <0> d           0.626  -0.579   3.283  0.00  0.00     0.056 H 
ATOM     22  H8  <0> d          -0.886  -0.082   2.486  0.00  0.00     0.056 H 
ENDBRANCH  11  19
ENDBRANCH   1  11
BRANCH   5  23
ATOM     23  N2  <0> d           4.811  -1.849   3.336  0.00  0.00    -0.399 N 
ATOM     24  H13 <0> d           5.769  -1.997   3.298  0.00  0.00     0.156 HD
ATOM     25  H14 <0> d           4.324  -2.026   4.156  0.00  0.00     0.156 HD
ENDBRANCH   5  23
TORSDOF 5
