REMARK  4 active torsions:
REMARK  status: ('A' for Active; 'I' for Inactive)
REMARK    1  A    between atoms: C2_2  and  C6_9 
REMARK    2  A    between atoms: N1_4  and  C4_6 
REMARK    3  A    between atoms: C4_6  and  C5_7 
REMARK    4  A    between atoms: C5_7  and  O1_8 
ROOT
ATOM      1  C1  <0> d          -0.691   3.220   0.025  0.00  0.00     0.040 A 
ATOM      2  C2  <0> d          -1.137   1.878   0.017  0.00  0.00     0.077 A 
ATOM      3  C3  <0> d          -0.013   1.076   0.008  0.00  0.00     0.016 A 
ATOM      4  N1  <0> d           1.058   1.885   0.002  0.00  0.00    -0.278 N 
ATOM      5  N2  <0> d           0.613   3.212   0.013  0.00  0.00    -0.184 NA
ATOM      6  H1  <0> d          -1.321   4.097   0.034  0.00  0.00     0.119 H 
ATOM      7  H2  <0> d           0.002  -0.004   0.002  0.00  0.00     0.115 H 
ENDROOT
BRANCH   4   8
ATOM      8  C4  <0> d           2.458   1.452  -0.013  0.00  0.00     0.036 C 
ATOM      9  H3  <0> d           2.946   1.758   0.924  0.00  0.00     0.070 H 
ATOM     10  H4  <0> d           2.502   0.357  -0.109  0.00  0.00     0.070 H 
BRANCH   8  11
ATOM     11  C5  <0> d           3.179   2.098  -1.198  0.00  0.00     0.033 C 
ATOM     12  H5  <0> d           2.690   1.792  -2.135  0.00  0.00     0.076 H 
ATOM     13  H6  <0> d           3.135   3.193  -1.102  0.00  0.00     0.076 H 
BRANCH  11  14
ATOM     14  O1  <0> d           4.544   1.676  -1.213  0.00  0.00    -0.399 OA
ATOM     15  H7  <0> d           5.223   2.039  -1.998  0.00  0.00     0.209 HD
ENDBRANCH  11  14
ENDBRANCH   8  11
ENDBRANCH   4   8
BRANCH   2  16
ATOM     16  C6  <0> d          -2.537   1.422   0.020  0.00  0.00     0.212 C 
ATOM     17  O2  <0> d          -2.789   0.233   0.015  0.00  0.00    -0.644 OA
ATOM     18  O3  <0> d          -3.539   2.322   0.029  0.00  0.00    -0.644 OA
ENDBRANCH   2  16
TORSDOF 4
