REMARK  1 active torsions:
REMARK  status: ('A' for Active; 'I' for Inactive)
REMARK    1  A    between atoms: C5_5  and  N2_8 
ROOT
ATOM      1  C1  <0> d          -0.017   1.383   0.010  0.00  0.00    -0.063 A 
ATOM      2  C2  <0> d           1.177   2.082   0.002  0.00  0.00    -0.044 A 
ATOM      3  C3  <0> d           2.365   1.356  -0.013  0.00  0.00     0.134 A 
ATOM      4  C4  <0> d           2.307  -0.045  -0.020  0.00  0.00     0.140 A 
ATOM      5  C5  <0> d           3.704  -0.514  -0.036  0.00  0.00     0.180 A 
ATOM      6  N1  <0> d           4.467   0.543  -0.038  0.00  0.00    -0.108 NA
ATOM      7  O1  <0> d           3.666   1.707  -0.024  0.00  0.00    -0.209 OA
ATOM      8  N3  <0> d           1.135  -0.670  -0.013  0.00  0.00    -0.254 NA
ATOM      9  C6  <0> d           0.002  -0.004   0.002  0.00  0.00     0.003 A 
ATOM     10  H1  <0> d          -0.957   1.914   0.026  0.00  0.00     0.085 H 
ATOM     11  H2  <0> d           1.187   3.161   0.007  0.00  0.00     0.088 H 
ATOM     12  H5  <0> d          -0.932  -0.547   0.008  0.00  0.00     0.114 H 
ENDROOT
BRANCH   5  13
ATOM     13  N2  <0> d           4.128  -1.835  -0.047  0.00  0.00    -0.380 N 
ATOM     14  H3  <0> d           3.477  -2.554  -0.044  0.00  0.00     0.158 HD
ATOM     15  H4  <0> d           5.076  -2.040  -0.057  0.00  0.00     0.158 HD
ENDBRANCH   5  13
TORSDOF 1
