REMARK  5 active torsions:
REMARK  status: ('A' for Active; 'I' for Inactive)
REMARK    1  A    between atoms: C1_1  and  C2_2 
REMARK    2  A    between atoms: C2_2  and  C3_3 
REMARK    3  A    between atoms: C2_2  and  C6_6 
REMARK    4  A    between atoms: C2_2  and  O1_10 
REMARK    5  A    between atoms: C3_3  and  C4_4 
ROOT
ATOM      1  C2  <0> d          -0.019   1.526   0.010  0.00  0.00     0.154 C 
ENDROOT
BRANCH   1   2
ATOM      2  C1  <0> d           0.002  -0.004   0.002  0.00  0.00    -0.039 C 
ATOM      3  H1  <0> d           0.529  -0.365   0.885  0.00  0.00     0.032 H 
ATOM      4  H2  <0> d          -1.020  -0.381   0.010  0.00  0.00     0.032 H 
ATOM      5  H3  <0> d           0.512  -0.356  -0.895  0.00  0.00     0.032 H 
ENDBRANCH   1   2
BRANCH   1   6
ATOM      6  C3  <0> d          -0.735   2.019   1.269  0.00  0.00    -0.014 C 
ATOM      7  H4  <0> d          -0.160   1.734   2.150  0.00  0.00     0.043 H 
ATOM      8  H5  <0> d          -0.828   3.105   1.232  0.00  0.00     0.043 H 
BRANCH   6   9
ATOM      9  C4  <0> d          -2.106   1.399   1.343  0.00  0.00    -0.109 C 
ATOM     10  C5  <0> d          -2.467   0.731   2.410  0.00  0.00    -0.125 C 
ATOM     11  H7  <0> d          -3.450   0.287   2.463  0.00  0.00     0.066 H 
ATOM     12  H8  <0> d          -1.782   0.625   3.238  0.00  0.00     0.066 H 
ATOM     13  H6  <0> d          -2.792   1.506   0.515  0.00  0.00     0.075 H 
ENDBRANCH   6   9
ENDBRANCH   1   6
BRANCH   1  14
ATOM     14  C6  <0> d           1.417   2.055  -0.000  0.00  0.00     0.418 C 
ATOM     15  F1  <0> d           2.071   1.604  -1.151  0.00  0.00    -0.168 F 
ATOM     16  F2  <0> d           1.398   3.454   0.007  0.00  0.00    -0.168 F 
ATOM     17  F3  <0> d           2.093   1.592   1.133  0.00  0.00    -0.168 F 
ENDBRANCH   1  14
BRANCH   1  18
ATOM     18  O1  <0> d          -0.710   1.999  -1.147  0.00  0.00    -0.381 OA
ATOM     19  H9  <0> d          -0.762   2.963  -1.208  0.00  0.00     0.211 HD
ENDBRANCH   1  18
TORSDOF 5
