REMARK  3 active torsions:
REMARK  status: ('A' for Active; 'I' for Inactive)
REMARK    1  A    between atoms: C1_1  and  C2_2 
REMARK    2  A    between atoms: C5_5  and  C9_9 
REMARK    3  A    between atoms: C6_6  and  C8_8 
ROOT
ATOM      1  C9  <0> d           0.060  -4.205  -0.021  0.00  0.00    -0.077 C 
ATOM      2  C10 <0> d           0.076  -5.379  -0.028  0.00  0.00    -0.149 C 
ATOM      3  H10 <0> d           0.090  -6.428  -0.033  0.00  0.00     0.166 H 
ENDROOT
BRANCH   1   4
ATOM      4  C5  <0> d           0.041  -2.773  -0.013  0.00  0.00     0.022 A 
ATOM      5  C4  <0> d           0.025  -2.066  -1.216  0.00  0.00    -0.064 A 
ATOM      6  C3  <0> d           0.006  -0.686  -1.202  0.00  0.00    -0.076 A 
ATOM      7  H5  <0> d           0.027  -2.597  -2.156  0.00  0.00     0.085 H 
ATOM      8  C2  <0> d           0.002  -0.004   0.002  0.00  0.00    -0.061 A 
ATOM      9  H4  <0> d          -0.007  -0.138  -2.132  0.00  0.00     0.084 H 
ATOM     10  C7  <0> d           0.023  -0.699   1.198  0.00  0.00    -0.070 A 
ATOM     11  C6  <0> d           0.037  -2.079   1.197  0.00  0.00    -0.043 A 
ATOM     12  H6  <0> d           0.024  -0.161   2.134  0.00  0.00     0.085 H 
BRANCH   8  13
ATOM     13  C1  <0> d          -0.018   1.503   0.010  0.00  0.00    -0.051 C 
ATOM     14  H1  <0> d           1.004   1.880   0.003  0.00  0.00     0.033 H 
ATOM     15  H2  <0> d          -0.545   1.864  -0.873  0.00  0.00     0.033 H 
ATOM     16  H3  <0> d          -0.529   1.854   0.907  0.00  0.00     0.033 H 
ENDBRANCH   8  13
BRANCH  11  17
ATOM     17  C8  <0> d           0.053  -2.835   2.501  0.00  0.00    -0.050 C 
ATOM     18  H7  <0> d           1.085  -3.003   2.810  0.00  0.00     0.033 H 
ATOM     19  H8  <0> d          -0.465  -2.254   3.264  0.00  0.00     0.033 H 
ATOM     20  H9  <0> d          -0.448  -3.794   2.371  0.00  0.00     0.033 H 
ENDBRANCH  11  17
ENDBRANCH   1   4
TORSDOF 3
