REMARK  0 active torsions:
REMARK  status: ('A' for Active; 'I' for Inactive)
ROOT
ATOM      1  C1  <0> d          -1.123   1.831   0.017  0.00  0.00    -0.037 A 
ATOM      2  C2  <0> d          -0.013   1.076   0.008  0.00  0.00    -0.019 A 
ATOM      3  N1  <0> d           1.097   1.876   0.002  0.00  0.00    -0.349 N 
ATOM      4  H1  <0> d           2.100   1.425  -0.010  0.00  0.00     0.167 HD
ATOM      5  C3  <0> d           0.722   3.197   0.012  0.00  0.00     0.156 A 
ATOM      6  C4  <0> d          -0.689   3.229   0.026  0.00  0.00     0.103 A 
ATOM      7  N2  <0> d          -1.327   4.395   0.038  0.00  0.00    -0.256 NA
ATOM      8  C5  <0> d          -0.635   5.518   0.038  0.00  0.00     0.020 A 
ATOM      9  C6  <0> d           0.752   5.487   0.025  0.00  0.00     0.021 A 
ATOM     10  N3  <0> d           1.399   4.337   0.012  0.00  0.00    -0.240 NA
ATOM     11  H2  <0> d          -2.143   1.475   0.019  0.00  0.00     0.089 H 
ATOM     12  H3  <0> d           0.002  -0.004   0.002  0.00  0.00     0.111 H 
ATOM     13  H4  <0> d          -1.151   6.467   0.048  0.00  0.00     0.117 H 
ATOM     14  H5  <0> d           1.307   6.414   0.025  0.00  0.00     0.117 H 
ENDROOT
TORSDOF 0
