REMARK  1 active torsions:
REMARK  status: ('A' for Active; 'I' for Inactive)
REMARK    1  A    between atoms: C1_1  and  C2_2 
ROOT
ATOM      1  C2  <0> d           1.697   2.030  -0.003  0.00  0.00     0.070 A 
ATOM      2  N1  <0> d           2.154   0.800  -0.014  0.00  0.00    -0.258 NA
ATOM      3  C3  <0> d           1.340  -0.235  -0.012  0.00  0.00     0.009 A 
ATOM      4  C4  <0> d           0.002  -0.004   0.002  0.00  0.00    -0.026 A 
ATOM      5  S1  <0> d          -0.022   1.783   0.012  0.00  0.00    -0.086 SA
ATOM      6  H4  <0> d           1.727  -1.243  -0.021  0.00  0.00     0.115 H 
ATOM      7  H5  <0> d          -0.819  -0.705   0.006  0.00  0.00     0.097 H 
ENDROOT
BRANCH   1   8
ATOM      8  C1  <0> d           2.466   3.326  -0.004  0.00  0.00    -0.029 C 
ATOM      9  H1  <0> d           2.662   3.633   1.024  0.00  0.00     0.036 H 
ATOM     10  H2  <0> d           3.412   3.187  -0.527  0.00  0.00     0.036 H 
ATOM     11  H3  <0> d           1.882   4.096  -0.508  0.00  0.00     0.036 H 
ENDBRANCH   1   8
TORSDOF 1
