REMARK  2 active torsions:
REMARK  status: ('A' for Active; 'I' for Inactive)
REMARK    1  A    between atoms: C1_1  and  C2_2 
REMARK    2  A    between atoms: C5_5  and  N2_9 
ROOT
ATOM      1  C2  <0> d          -0.718   1.572   1.248  0.00  0.00     0.032 A 
ATOM      2  C3  <0> d           0.010   1.802   2.400  0.00  0.00    -0.057 A 
ATOM      3  C4  <0> d          -0.644   2.249   3.537  0.00  0.00    -0.053 A 
ATOM      4  C5  <0> d          -2.020   2.450   3.473  0.00  0.00     0.066 A 
ATOM      5  C6  <0> d          -2.683   2.196   2.277  0.00  0.00     0.152 A 
ATOM      6  N1  <0> d          -2.021   1.776   1.217  0.00  0.00    -0.239 NA
ATOM      7 Cl1  <0> d          -4.399   2.440   2.177  0.00  0.00    -0.060 Cl
ATOM      8  H4  <0> d           1.077   1.637   2.413  0.00  0.00     0.086 H 
ATOM      9  H5  <0> d          -0.100   2.438   4.450  0.00  0.00     0.087 H 
ENDROOT
BRANCH   1  10
ATOM     10  C1  <0> d          -0.013   1.086   0.008  0.00  0.00    -0.035 C 
ATOM     11  H1  <0> d           0.002  -0.004   0.002  0.00  0.00     0.035 H 
ATOM     12  H2  <0> d           1.010   1.463   0.000  0.00  0.00     0.035 H 
ATOM     13  H3  <0> d          -0.540   1.447  -0.875  0.00  0.00     0.035 H 
ENDBRANCH   1  10
BRANCH   4  14
ATOM     14  N2  <0> d          -2.724   2.900   4.593  0.00  0.00    -0.397 N 
ATOM     15  H6  <0> d          -2.254   3.075   5.423  0.00  0.00     0.156 HD
ATOM     16  H7  <0> d          -3.683   3.037   4.540  0.00  0.00     0.156 HD
ENDBRANCH   4  14
TORSDOF 2
