REMARK  3 active torsions:
REMARK  status: ('A' for Active; 'I' for Inactive)
REMARK    1  A    between atoms: C1_1  and  C2_2 
REMARK    2  A    between atoms: C4_4  and  C5_7 
REMARK    3  A    between atoms: C5_7  and  O2_8 
ROOT
ATOM      1  C2  <0> d           1.043   1.924   0.002  0.00  0.00     0.077 A 
ATOM      2  C3  <0> d          -0.013   1.076   0.008  0.00  0.00    -0.025 A 
ATOM      3  C4  <0> d          -1.138   1.931   0.017  0.00  0.00     0.087 A 
ATOM      4  N1  <0> d          -0.675   3.148   0.024  0.00  0.00    -0.131 NA
ATOM      5  O1  <0> d           0.534   3.164   0.013  0.00  0.00    -0.218 OA
ATOM      6  H4  <0> d           0.002  -0.004   0.002  0.00  0.00     0.090 H 
ENDROOT
BRANCH   3   7
ATOM      7  C5  <0> d          -2.587   1.516   0.021  0.00  0.00     0.059 C 
ATOM      8  H5  <0> d          -3.074   1.906   0.915  0.00  0.00     0.083 H 
ATOM      9  H6  <0> d          -3.082   1.915  -0.865  0.00  0.00     0.083 H 
BRANCH   7  10
ATOM     10  O2  <0> d          -2.674   0.090   0.015  0.00  0.00    -0.395 OA
ATOM     11  H7  <0> d          -3.580  -0.248   0.017  0.00  0.00     0.209 HD
ENDBRANCH   7  10
ENDBRANCH   3   7
BRANCH   1  12
ATOM     12  C1  <0> d           2.503   1.549  -0.013  0.00  0.00    -0.029 C 
ATOM     13  H1  <0> d           2.845   1.463  -1.044  0.00  0.00     0.036 H 
ATOM     14  H2  <0> d           3.081   2.317   0.500  0.00  0.00     0.036 H 
ATOM     15  H3  <0> d           2.637   0.594   0.495  0.00  0.00     0.036 H 
ENDBRANCH   1  12
TORSDOF 3
