REMARK  0 active torsions:
REMARK  status: ('A' for Active; 'I' for Inactive)
ROOT
ATOM      1  C1  <0> d           1.535   1.816  -0.003  0.00  0.00    -0.012 C 
ATOM      2  C2  <0> d          -0.019   1.559   0.011  0.00  0.00    -0.008 C 
ATOM      3  C3  <0> d          -0.327   1.909  -1.482  0.00  0.00     0.028 C 
ATOM      4  O1  <0> d           0.833   1.457  -2.209  0.00  0.00    -0.361 OA
ATOM      5  C4  <0> d           1.764   0.890  -1.247  0.00  0.00     0.131 C 
ATOM      6  O2  <0> d           1.144  -0.350  -0.808  0.00  0.00    -0.361 OA
ATOM      7  C5  <0> d           0.002  -0.004   0.002  0.00  0.00     0.028 C 
ATOM      8  H1  <0> d           1.785   2.857  -0.205  0.00  0.00     0.041 H 
ATOM      9  H2  <0> d           2.029   1.441   0.894  0.00  0.00     0.041 H 
ATOM     10  H3  <0> d          -0.609   2.049   0.786  0.00  0.00     0.046 H 
ATOM     11  H4  <0> d          -1.217   1.379  -1.820  0.00  0.00     0.075 H 
ATOM     12  H5  <0> d          -0.455   2.985  -1.602  0.00  0.00     0.075 H 
ATOM     13  H6  <0> d           2.797   0.800  -1.583  0.00  0.00     0.129 H 
ATOM     14  H7  <0> d           0.125  -0.388   1.015  0.00  0.00     0.075 H 
ATOM     15  H8  <0> d          -0.913  -0.394  -0.443  0.00  0.00     0.075 H 
ENDROOT
TORSDOF 0
