REMARK  1 active torsions:
REMARK  status: ('A' for Active; 'I' for Inactive)
REMARK    1  A    between atoms: C8_8  and  N2_11 
ROOT
ATOM      1  C1  <0> d           1.157   2.090   0.002  0.00  0.00    -0.082 A 
ATOM      2  C2  <0> d           2.379   1.419  -0.012  0.00  0.00    -0.081 A 
ATOM      3  C3  <0> d           2.434   0.060  -0.020  0.00  0.00    -0.054 A 
ATOM      4  C4  <0> d           1.244  -0.688  -0.013  0.00  0.00     0.066 A 
ATOM      5  C5  <0> d           0.002  -0.004   0.002  0.00  0.00    -0.005 A 
ATOM      6  C6  <0> d          -0.017   1.401   0.010  0.00  0.00    -0.071 A 
ATOM      7  C7  <0> d          -1.190  -0.751   0.009  0.00  0.00    -0.044 A 
ATOM      8  C8  <0> d          -1.092  -2.129  -0.001  0.00  0.00     0.044 A 
ATOM      9  C9  <0> d           0.171  -2.734  -0.016  0.00  0.00     0.028 A 
ATOM     10  N1  <0> d           1.272  -2.024  -0.022  0.00  0.00    -0.258 NA
ATOM     11  H1  <0> d           1.141   3.169   0.008  0.00  0.00     0.083 H 
ATOM     12  H2  <0> d           3.297   1.988  -0.018  0.00  0.00     0.083 H 
ATOM     13  H3  <0> d           3.390  -0.443  -0.032  0.00  0.00     0.087 H 
ATOM     14  H4  <0> d          -0.958   1.931   0.017  0.00  0.00     0.084 H 
ATOM     15  H5  <0> d          -2.152  -0.261   0.021  0.00  0.00     0.088 H 
ATOM     16  H6  <0> d           0.238  -3.812  -0.023  0.00  0.00     0.118 H 
ENDROOT
BRANCH   8  17
ATOM     17  N2  <0> d          -2.247  -2.915   0.005  0.00  0.00    -0.398 N 
ATOM     18  H7  <0> d          -2.176  -3.882  -0.001  0.00  0.00     0.156 HD
ATOM     19  H8  <0> d          -3.121  -2.493   0.016  0.00  0.00     0.156 HD
ENDBRANCH   8  17
TORSDOF 1
