REMARK  4 active torsions:
REMARK  status: ('A' for Active; 'I' for Inactive)
REMARK    1  A    between atoms: C1_1  and  C2_2 
REMARK    2  A    between atoms: C2_2  and  C3_4 
REMARK    3  A    between atoms: C6_7  and  C7_9 
REMARK    4  A    between atoms: C7_9  and  C8_11 
ROOT
ATOM      1  C3  <0> d          -0.017   1.376   0.010  0.00  0.00     0.121 A 
ATOM      2  C4  <0> d           0.002  -0.004   0.002  0.00  0.00    -0.044 A 
ATOM      3  C5  <0> d           1.346  -0.391  -0.013  0.00  0.00    -0.044 A 
ATOM      4  C6  <0> d           2.095   0.768  -0.014  0.00  0.00     0.121 A 
ATOM      5  O2  <0> d           1.254   1.818  -0.000  0.00  0.00    -0.303 OA
ATOM      6  H4  <0> d          -0.856  -0.659   0.007  0.00  0.00     0.088 H 
ATOM      7  H5  <0> d           1.725  -1.402  -0.022  0.00  0.00     0.088 H 
ENDROOT
BRANCH   1   8
ATOM      8  C2  <0> d          -1.217   2.216   0.020  0.00  0.00     0.179 C 
ATOM      9  O1  <0> d          -2.317   1.704   0.023  0.00  0.00    -0.291 OA
BRANCH   8  10
ATOM     10  C1  <0> d          -1.085   3.718   0.028  0.00  0.00    -0.015 C 
ATOM     11  H1  <0> d          -0.020   3.992   0.024  0.00  0.00     0.038 H 
ATOM     12  H2  <0> d          -1.565   4.123   0.930  0.00  0.00     0.038 H 
ATOM     13  H3  <0> d          -1.574   4.133  -0.866  0.00  0.00     0.038 H 
ENDBRANCH   8  10
ENDBRANCH   1   8
BRANCH   4  14
ATOM     14  C7  <0> d           3.559   0.842  -0.027  0.00  0.00     0.179 C 
ATOM     15  O3  <0> d           4.218  -0.177  -0.038  0.00  0.00    -0.291 OA
BRANCH  14  16
ATOM     16  C8  <0> d           4.245   2.184  -0.026  0.00  0.00    -0.015 C 
ATOM     17  H6  <0> d           5.336   2.038  -0.037  0.00  0.00     0.038 H 
ATOM     18  H7  <0> d           3.959   2.741   0.877  0.00  0.00     0.038 H 
ATOM     19  H8  <0> d           3.943   2.751  -0.919  0.00  0.00     0.038 H 
ENDBRANCH  14  16
ENDBRANCH   4  14
TORSDOF 4
