REMARK  2 active torsions:
REMARK  status: ('A' for Active; 'I' for Inactive)
REMARK    1  A    between atoms: C3_3  and  N3_10 
REMARK    2  A    between atoms: C4_6  and  C5_7 
ROOT
ATOM      1  C1  <0> d          -2.509   1.217   0.021  0.00  0.00    -0.043 A 
ATOM      2  C2  <0> d          -3.690   1.936   0.031  0.00  0.00    -0.035 A 
ATOM      3  C3  <0> d          -3.610   3.329   0.038  0.00  0.00     0.143 A 
ATOM      4  N1  <0> d          -2.422   3.925   0.036  0.00  0.00    -0.132 NA
ATOM      5  N2  <0> d          -1.324   3.260   0.032  0.00  0.00    -0.141 NA
ATOM      6  C4  <0> d          -1.304   1.932   0.019  0.00  0.00     0.155 A 
ATOM      7  H1  <0> d          -2.515   0.137   0.014  0.00  0.00     0.087 H 
ATOM      8  H2  <0> d          -4.646   1.434   0.032  0.00  0.00     0.089 H 
ENDROOT
BRANCH   3   9
ATOM      9  N3  <0> d          -4.767   4.090   0.048  0.00  0.00    -0.383 N 
ATOM     10  H3  <0> d          -4.703   5.188   0.054  0.00  0.00     0.157 HD
ATOM     11  H4  <0> d          -5.750   3.597   0.050  0.00  0.00     0.157 HD
ENDBRANCH   3   9
BRANCH   6  12
ATOM     12  C5  <0> d          -0.014   1.210   0.009  0.00  0.00     0.230 C 
ATOM     13  O1  <0> d           0.002  -0.004   0.002  0.00  0.00    -0.643 OA
ATOM     14  O2  <0> d           1.143   1.900   0.001  0.00  0.00    -0.643 OA
ENDBRANCH   6  12
TORSDOF 2
