REMARK  4 active torsions:
REMARK  status: ('A' for Active; 'I' for Inactive)
REMARK    1  A    between atoms: C1_1  and  C2_2 
REMARK    2  A    between atoms: C2_2  and  C3_3 
REMARK    3  A    between atoms: C3_3  and  C4_5 
REMARK    4  A    between atoms: C7_8  and  C8_10 
ROOT
ATOM      1  C4  <0> d           1.250  -0.619  -0.013  0.00  0.00     0.051 A 
ATOM      2  C5  <0> d           0.002  -0.004   0.002  0.00  0.00    -0.062 A 
ATOM      3  C6  <0> d          -0.017   1.366   0.010  0.00  0.00    -0.069 A 
ATOM      4  C7  <0> d           1.161   2.047   0.002  0.00  0.00    -0.021 A 
ATOM      5  S1  <0> d           2.350   0.785  -0.016  0.00  0.00    -0.092 SA
ATOM      6  H6  <0> d          -0.911  -0.581   0.008  0.00  0.00     0.085 H 
ATOM      7  H7  <0> d          -0.956   1.899   0.017  0.00  0.00     0.085 H 
ENDROOT
BRANCH   1   8
ATOM      8  C3  <0> d           1.564  -1.996  -0.024  0.00  0.00     0.166 C 
ATOM      9  O1  <0> d           0.673  -2.822  -0.020  0.00  0.00    -0.292 OA
BRANCH   8  10
ATOM     10  C2  <0> d           3.004  -2.441  -0.040  0.00  0.00    -0.008 C 
ATOM     11  H4  <0> d           3.454  -2.084  -0.859  0.00  0.00     0.044 H 
ATOM     12  H5  <0> d           3.511  -2.062   0.847  0.00  0.00     0.044 H 
BRANCH  10  13
ATOM     13  C1  <0> d           3.065  -3.969  -0.049  0.00  0.00    -0.070 C 
ATOM     14  H1  <0> d           4.107  -4.291  -0.061  0.00  0.00     0.028 H 
ATOM     15  H2  <0> d           2.575  -4.358   0.843  0.00  0.00     0.028 H 
ATOM     16  H3  <0> d           2.558  -4.348  -0.937  0.00  0.00     0.028 H 
ENDBRANCH  10  13
ENDBRANCH   8  10
ENDBRANCH   1   8
BRANCH   4  17
ATOM     17  C8  <0> d           1.380   3.538   0.007  0.00  0.00    -0.045 C 
ATOM     18  H8  <0> d           1.442   3.893   1.036  0.00  0.00     0.034 H 
ATOM     19  H9  <0> d           2.308   3.771  -0.514  0.00  0.00     0.034 H 
ATOM     20  H10 <0> d           0.547   4.029  -0.496  0.00  0.00     0.034 H 
ENDBRANCH   4  17
TORSDOF 4
