REMARK  0 active torsions:
REMARK  status: ('A' for Active; 'I' for Inactive)
ROOT
ATOM      1  C1  <0> d           2.417   1.209   3.295  0.00  0.00    -0.065 C 
ATOM      2  C2  <0> d           2.900   1.871   2.003  0.00  0.00    -0.065 C 
ATOM      3  C3  <0> d           1.746   2.643   1.363  0.00  0.00    -0.065 C 
ATOM      4  C4  <0> d           1.417   2.032  -0.001  0.00  0.00    -0.059 C 
ATOM      5  C5  <0> d          -0.018   1.503   0.010  0.00  0.00    -0.010 C 
ATOM      6  C6  <0> d           0.002  -0.004   0.002  0.00  0.00     0.127 C 
ATOM      7  O1  <0> d           0.415  -0.597  -0.965  0.00  0.00    -0.298 OA
ATOM      8  C7  <0> d          -0.494  -0.771   1.201  0.00  0.00    -0.010 C 
ATOM      9  C8  <0> d           0.675  -1.517   1.848  0.00  0.00    -0.059 C 
ATOM     10  C9  <0> d           1.020  -0.860   3.186  0.00  0.00    -0.065 C 
ATOM     11  C10 <0> d           2.448  -0.312   3.132  0.00  0.00    -0.065 C 
ATOM     12  H1  <0> d           1.397   1.530   3.509  0.00  0.00     0.033 H 
ATOM     13  H2  <0> d           3.069   1.499   4.119  0.00  0.00     0.033 H 
ATOM     14  H3  <0> d           3.716   2.558   2.230  0.00  0.00     0.033 H 
ATOM     15  H4  <0> d           3.252   1.105   1.313  0.00  0.00     0.033 H 
ATOM     16  H5  <0> d           0.868   2.586   2.008  0.00  0.00     0.033 H 
ATOM     17  H6  <0> d           2.034   3.687   1.234  0.00  0.00     0.033 H 
ATOM     18  H7  <0> d           2.105   1.213  -0.207  0.00  0.00     0.033 H 
ATOM     19  H8  <0> d           1.517   2.794  -0.774  0.00  0.00     0.033 H 
ATOM     20  H9  <0> d          -0.502   1.834  -0.800  0.00  0.00     0.044 H 
ATOM     21  H10 <0> d          -0.528   1.854   0.907  0.00  0.00     0.044 H 
ATOM     22  H11 <0> d          -0.891  -0.135   1.862  0.00  0.00     0.044 H 
ATOM     23  H12 <0> d          -1.252  -1.488   0.885  0.00  0.00     0.044 H 
ATOM     24  H13 <0> d           0.394  -2.557   2.015  0.00  0.00     0.033 H 
ATOM     25  H14 <0> d           1.542  -1.476   1.189  0.00  0.00     0.033 H 
ATOM     26  H15 <0> d           0.325  -0.044   3.381  0.00  0.00     0.033 H 
ATOM     27  H16 <0> d           0.945  -1.599   3.984  0.00  0.00     0.033 H 
ATOM     28  H17 <0> d           3.037  -0.752   3.937  0.00  0.00     0.033 H 
ATOM     29  H18 <0> d           2.898  -0.565   2.172  0.00  0.00     0.033 H 
ENDROOT
TORSDOF 0
