REMARK  4 active torsions:
REMARK  status: ('A' for Active; 'I' for Inactive)
REMARK    1  A    between atoms: C2_2  and  C3_3 
REMARK    2  A    between atoms: C3_3  and  C4_4 
REMARK    3  A    between atoms: C4_4  and  C5_6 
REMARK    4  A    between atoms: C4_4  and  O1_12 
ROOT
ATOM      1  C1  <0> d           0.018  -1.178  -0.004  0.00  0.00    -0.154 C 
ATOM      2  C2  <0> d           0.002  -0.004   0.002  0.00  0.00    -0.115 C 
ATOM      3  H2  <0> d           0.032  -2.228  -0.010  0.00  0.00     0.166 H 
ENDROOT
BRANCH   2   4
ATOM      4  C3  <0> d          -0.018   1.468   0.010  0.00  0.00     0.019 C 
ATOM      5  H3  <0> d          -0.545   1.829  -0.873  0.00  0.00     0.056 H 
ATOM      6  H4  <0> d          -0.528   1.819   0.907  0.00  0.00     0.056 H 
BRANCH   4   7
ATOM      7  C4  <0> d           1.417   1.997  -0.001  0.00  0.00     0.087 C 
ATOM      8  H1  <0> d           1.954   1.575  -0.850  0.00  0.00     0.094 H 
BRANCH   7   9
ATOM      9  C5  <0> d           1.398   3.500  -0.116  0.00  0.00     0.063 A 
ATOM     10  N1  <0> d           0.751   4.068  -1.115  0.00  0.00    -0.263 NA
ATOM     11  C9  <0> d           0.702   5.379  -1.253  0.00  0.00     0.003 A 
ATOM     12  C8  <0> d           1.343   6.209  -0.353  0.00  0.00    -0.066 A 
ATOM     13  H8  <0> d           0.159   5.808  -2.082  0.00  0.00     0.114 H 
ATOM     14  C7  <0> d           2.038   5.647   0.707  0.00  0.00    -0.080 A 
ATOM     15  H7  <0> d           1.303   7.281  -0.474  0.00  0.00     0.085 H 
ATOM     16  C6  <0> d           2.062   4.266   0.823  0.00  0.00    -0.057 A 
ATOM     17  H6  <0> d           2.548   6.271   1.427  0.00  0.00     0.083 H 
ATOM     18  H5  <0> d           2.593   3.795   1.637  0.00  0.00     0.086 H 
ENDBRANCH   7   9
BRANCH   7  19
ATOM     19  O1  <0> d           2.073   1.621   1.212  0.00  0.00    -0.389 OA
ATOM     20  H9  <0> d           1.649   1.964   2.011  0.00  0.00     0.210 HD
ENDBRANCH   7  19
ENDBRANCH   4   7
ENDBRANCH   2   4
TORSDOF 4
