REMARK  4 active torsions:
REMARK  status: ('A' for Active; 'I' for Inactive)
REMARK    1  A    between atoms: C1_1  and  C2_2 
REMARK    2  A    between atoms: C2_2  and  C3_3 
REMARK    3  A    between atoms: C4_4  and  S1_9 
REMARK    4  A    between atoms: S1_9  and  C7_10 
ROOT
ATOM      1  C3  <0> d           2.272   1.421  -0.012  0.00  0.00     0.069 A 
ATOM      2  C4  <0> d           2.295   0.027  -0.020  0.00  0.00     0.117 A 
ATOM      3  N1  <0> d           1.155  -0.652  -0.013  0.00  0.00    -0.251 NA
ATOM      4  C5  <0> d           0.002  -0.004   0.002  0.00  0.00     0.020 A 
ATOM      5  C6  <0> d          -0.017   1.377   0.010  0.00  0.00     0.019 A 
ATOM      6  N2  <0> d           1.117   2.058   0.002  0.00  0.00    -0.261 NA
ATOM      7  H6  <0> d          -0.926  -0.556   0.008  0.00  0.00     0.117 H 
ATOM      8  H7  <0> d          -0.960   1.903   0.017  0.00  0.00     0.117 H 
ENDROOT
BRANCH   1   9
ATOM      9  C2  <0> d           3.563   2.197  -0.020  0.00  0.00    -0.025 C 
ATOM     10  H4  <0> d           3.421   3.144   0.500  0.00  0.00     0.042 H 
ATOM     11  H5  <0> d           4.338   1.619   0.484  0.00  0.00     0.042 H 
BRANCH   9  12
ATOM     12  C1  <0> d           3.987   2.468  -1.465  0.00  0.00    -0.071 C 
ATOM     13  H1  <0> d           4.130   1.521  -1.985  0.00  0.00     0.028 H 
ATOM     14  H2  <0> d           3.212   3.046  -1.968  0.00  0.00     0.028 H 
ATOM     15  H3  <0> d           4.921   3.030  -1.470  0.00  0.00     0.028 H 
ENDBRANCH   9  12
ENDBRANCH   1   9
BRANCH   2  16
ATOM     16  S1  <0> d           3.834  -0.831  -0.039  0.00  0.00    -0.113 SA
BRANCH  16  17
ATOM     17  C7  <0> d           3.361  -2.582  -0.043  0.00  0.00    -0.029 C 
ATOM     18  H8  <0> d           2.778  -2.803   0.851  0.00  0.00     0.042 H 
ATOM     19  H9  <0> d           2.761  -2.794  -0.928  0.00  0.00     0.042 H 
ATOM     20  H10 <0> d           4.258  -3.201  -0.054  0.00  0.00     0.042 H 
ENDBRANCH  16  17
ENDBRANCH   2  16
TORSDOF 4
