REMARK  3 active torsions:
REMARK  status: ('A' for Active; 'I' for Inactive)
REMARK    1  A    between atoms: C1_1  and  C2_2 
REMARK    2  A    between atoms: C2_2  and  C3_3 
REMARK    3  A    between atoms: C2_2  and  N1_4 
ROOT
ATOM      1  C2  <0> d          -0.729   1.579   1.267  0.00  0.00     0.012 C 
ATOM      2  H4  <0> d          -1.752   1.177   1.313  0.00  0.00     0.072 H 
ENDROOT
BRANCH   1   3
ATOM      3  C1  <0> d          -0.013   1.086   0.008  0.00  0.00    -0.057 C 
ATOM      4  H1  <0> d           0.002  -0.014   0.002  0.00  0.00     0.030 H 
ATOM      5  H2  <0> d           1.019   1.467   0.000  0.00  0.00     0.030 H 
ATOM      6  H3  <0> d          -0.545   1.450  -0.883  0.00  0.00     0.030 H 
ENDBRANCH   1   3
BRANCH   1   7
ATOM      7  C3  <0> d          -0.750   3.109   1.275  0.00  0.00    -0.057 C 
ATOM      8  H5  <0> d          -1.264   3.464   2.180  0.00  0.00     0.030 H 
ATOM      9  H6  <0> d          -1.282   3.473   0.384  0.00  0.00     0.030 H 
ATOM     10  H7  <0> d           0.282   3.490   1.267  0.00  0.00     0.030 H 
ENDBRANCH   1   7
BRANCH   1  11
ATOM     11  N1  <0> d          -0.020   1.094   2.454  0.00  0.00    -0.327 N 
ATOM     12  C6  <0> d          -0.528   0.301   3.423  0.00  0.00     0.203 A 
ATOM     13  N2  <0> d           0.401   0.082   4.314  0.00  0.00    -0.231 NA
ATOM     14 Cl1  <0> d          -2.148  -0.322   3.475  0.00  0.00    -0.043 Cl
ATOM     15  C5  <0> d           1.524   0.720   3.949  0.00  0.00     0.020 A 
ATOM     16  C4  <0> d           1.284   1.354   2.786  0.00  0.00    -0.001 A 
ATOM     17  H9  <0> d           2.458   0.721   4.490  0.00  0.00     0.117 H 
ATOM     18  H8  <0> d           1.984   1.954   2.223  0.00  0.00     0.114 H 
ENDBRANCH   1  11
TORSDOF 3
