REMARK  1 active torsions:
REMARK  status: ('A' for Active; 'I' for Inactive)
REMARK    1  A    between atoms: C1_1  and  C2_2 
ROOT
ATOM      1  C2  <0> d           2.372   1.360  -0.013  0.00  0.00    -0.058 A 
ATOM      2  C3  <0> d           1.161   2.038   0.002  0.00  0.00    -0.060 A 
ATOM      3  C4  <0> d          -0.016   1.315   0.009  0.00  0.00     0.004 A 
ATOM      4  N1  <0> d           0.002  -0.004   0.002  0.00  0.00    -0.249 NA
ATOM      5  C5  <0> d           1.134  -0.682  -0.013  0.00  0.00     0.126 A 
ATOM      6  C6  <0> d           2.352  -0.025  -0.021  0.00  0.00    -0.038 A 
ATOM      7 Cl1  <0> d           1.095  -2.418  -0.021  0.00  0.00    -0.062 Cl
ATOM      8  H4  <0> d           1.139   3.118   0.008  0.00  0.00     0.086 H 
ATOM      9  H5  <0> d          -0.962   1.836   0.017  0.00  0.00     0.114 H 
ATOM     10  H6  <0> d           3.275  -0.585  -0.033  0.00  0.00     0.089 H 
ENDROOT
BRANCH   1  11
ATOM     11  C1  <0> d           3.677   2.113  -0.022  0.00  0.00    -0.051 C 
ATOM     12  H1  <0> d           3.981   2.300  -1.052  0.00  0.00     0.033 H 
ATOM     13  H2  <0> d           3.552   3.063   0.498  0.00  0.00     0.033 H 
ATOM     14  H3  <0> d           4.441   1.521   0.481  0.00  0.00     0.033 H 
ENDBRANCH   1  11
TORSDOF 1
