REMARK  3 active torsions:
REMARK  status: ('A' for Active; 'I' for Inactive)
REMARK    1  A    between atoms: C1_1  and  C2_2 
REMARK    2  A    between atoms: C4_4  and  O1_9 
REMARK    3  A    between atoms: O1_9  and  C7_10 
ROOT
ATOM      1  C2  <0> d           0.002  -0.004   0.002  0.00  0.00    -0.042 A 
ATOM      2  C3  <0> d           0.006  -0.699  -1.198  0.00  0.00    -0.041 A 
ATOM      3  C4  <0> d           0.025  -2.088  -1.157  0.00  0.00     0.109 A 
ATOM      4  C5  <0> d           0.039  -2.727   0.076  0.00  0.00     0.159 A 
ATOM      5  N1  <0> d           0.035  -2.028   1.195  0.00  0.00    -0.245 NA
ATOM      6  C6  <0> d           0.023  -0.709   1.190  0.00  0.00     0.010 A 
ATOM      7 Cl1  <0> d           0.063  -4.461   0.146  0.00  0.00    -0.059 Cl
ATOM      8  H4  <0> d          -0.006  -0.173  -2.141  0.00  0.00     0.088 H 
ATOM      9  H5  <0> d           0.025  -0.173   2.127  0.00  0.00     0.115 H 
ENDROOT
BRANCH   3  10
ATOM     10  O1  <0> d           0.029  -2.811  -2.308  0.00  0.00    -0.353 OA
BRANCH  10  11
ATOM     11  C7  <0> d           0.013  -2.079  -3.535  0.00  0.00     0.011 C 
ATOM     12  H6  <0> d          -0.886  -1.463  -3.579  0.00  0.00     0.066 H 
ATOM     13  H7  <0> d           0.894  -1.439  -3.588  0.00  0.00     0.066 H 
ATOM     14  H8  <0> d           0.018  -2.775  -4.374  0.00  0.00     0.066 H 
ENDBRANCH  10  11
ENDBRANCH   3  10
BRANCH   1  15
ATOM     15  C1  <0> d          -0.018   1.503   0.010  0.00  0.00    -0.050 C 
ATOM     16  H1  <0> d           1.004   1.880   0.003  0.00  0.00     0.033 H 
ATOM     17  H2  <0> d          -0.545   1.864  -0.873  0.00  0.00     0.033 H 
ATOM     18  H3  <0> d          -0.529   1.854   0.907  0.00  0.00     0.033 H 
ENDBRANCH   1  15
TORSDOF 3
