REMARK  3 active torsions:
REMARK  status: ('A' for Active; 'I' for Inactive)
REMARK    1  A    between atoms: C2_2  and  C3_3 
REMARK    2  A    between atoms: C7_8  and  C8_10 
REMARK    3  A    between atoms: C8_10  and  C9_11 
ROOT
ATOM      1  C3  <0> d          -1.176   3.222   0.025  0.00  0.00    -0.035 C 
ATOM      2  H1  <0> d          -0.157   3.609   0.021  0.00  0.00     0.046 H 
ATOM      3  C4  <0> d          -1.946   3.747  -1.205  0.00  0.00    -0.058 C 
ATOM      4  C5  <0> d          -2.705   4.989  -0.676  0.00  0.00    -0.064 C 
ATOM      5  C6  <0> d          -3.131   4.549   0.746  0.00  0.00    -0.061 C 
ATOM      6  C7  <0> d          -1.930   3.732   1.266  0.00  0.00    -0.038 C 
ATOM      7  H2  <0> d          -1.277   4.367   1.864  0.00  0.00     0.041 H 
ATOM      8  H6  <0> d          -1.252   4.032  -1.996  0.00  0.00     0.034 H 
ATOM      9  H7  <0> d          -2.648   2.995  -1.565  0.00  0.00     0.034 H 
ATOM     10  H8  <0> d          -2.045   5.855  -0.631  0.00  0.00     0.033 H 
ATOM     11  H9  <0> d          -3.576   5.202  -1.295  0.00  0.00     0.033 H 
ATOM     12  H10 <0> d          -3.303   5.420   1.379  0.00  0.00     0.033 H 
ATOM     13  H11 <0> d          -4.027   3.929   0.702  0.00  0.00     0.033 H 
ENDROOT
BRANCH   6  14
ATOM     14  C8  <0> d          -2.423   2.550   2.102  0.00  0.00     0.020 C 
ATOM     15  H12 <0> d          -3.162   1.985   1.534  0.00  0.00     0.049 H 
ATOM     16  H13 <0> d          -1.581   1.903   2.348  0.00  0.00     0.049 H 
BRANCH  14  17
ATOM     17  C9  <0> d          -3.051   3.061   3.373  0.00  0.00     0.172 C 
ATOM     18  O1  <0> d          -3.099   4.249   3.588  0.00  0.00    -0.648 OA
ATOM     19  O2  <0> d          -3.556   2.196   4.267  0.00  0.00    -0.648 OA
ENDBRANCH  14  17
ENDBRANCH   6  14
BRANCH   1  20
ATOM     20  C2  <0> d          -1.156   1.715   0.017  0.00  0.00    -0.108 C 
ATOM     21  C1  <0> d          -0.013   1.076   0.008  0.00  0.00    -0.124 C 
ATOM     22  H3  <0> d           0.002  -0.004   0.002  0.00  0.00     0.066 H 
ATOM     23  H4  <0> d           0.915   1.629   0.002  0.00  0.00     0.066 H 
ATOM     24  H5  <0> d          -2.084   1.163   0.018  0.00  0.00     0.076 H 
ENDBRANCH   1  20
TORSDOF 3
