REMARK  2 active torsions:
REMARK  status: ('A' for Active; 'I' for Inactive)
REMARK    1  A    between atoms: C1_1  and  C2_2 
REMARK    2  A    between atoms: C4_4  and  C6_9 
ROOT
ATOM      1  C2  <0> d           2.282   1.436  -0.012  0.00  0.00     0.047 A 
ATOM      2  C3  <0> d           2.341   0.047  -0.020  0.00  0.00     0.153 A 
ATOM      3  C4  <0> d           1.147  -0.666  -0.013  0.00  0.00     0.073 A 
ATOM      4  N1  <0> d           0.002  -0.004   0.002  0.00  0.00    -0.209 NA
ATOM      5  C5  <0> d          -0.016   1.318   0.010  0.00  0.00     0.278 A 
ATOM      6  N2  <0> d           1.099   2.029   0.004  0.00  0.00    -0.320 N 
ATOM      7  O1  <0> d          -1.209   1.962   0.020  0.00  0.00    -0.149 OA
ATOM      8  O2  <0> d           3.538  -0.599  -0.035  0.00  0.00    -0.188 OA
ATOM      9  H7  <0> d           1.036   3.127   0.011  0.00  0.00     0.169 HD
ENDROOT
BRANCH   1  10
ATOM     10  C1  <0> d           3.547   2.254  -0.019  0.00  0.00    -0.035 C 
ATOM     11  H1  <0> d           3.292   3.324  -0.011  0.00  0.00     0.035 H 
ATOM     12  H2  <0> d           4.128   2.023  -0.925  0.00  0.00     0.035 H 
ATOM     13  H3  <0> d           4.145   2.012   0.872  0.00  0.00     0.035 H 
ENDBRANCH   1  10
BRANCH   3  14
ATOM     14  C6  <0> d           1.158  -2.173  -0.021  0.00  0.00    -0.033 C 
ATOM     15  H4  <0> d           2.198  -2.532  -0.033  0.00  0.00     0.035 H 
ATOM     16  H5  <0> d           0.634  -2.539  -0.916  0.00  0.00     0.035 H 
ATOM     17  H6  <0> d           0.651  -2.548   0.880  0.00  0.00     0.035 H 
ENDBRANCH   3  14
TORSDOF 2
