REMARK  5 active torsions:
REMARK  status: ('A' for Active; 'I' for Inactive)
REMARK    1  A    between atoms: C1_1  and  N1_2 
REMARK    2  A    between atoms: C2_3  and  C5_7 
REMARK    3  A    between atoms: C5_7  and  C6_9 
REMARK    4  A    between atoms: C6_9  and  O2_10 
REMARK    5  A    between atoms: O2_10  and  C7_11 
ROOT
ATOM      1  N1  <0> d          -0.650   3.185   0.025  0.00  0.00    -0.271 N 
ATOM      2  C2  <0> d          -1.128   1.903   0.017  0.00  0.00     0.101 A 
ATOM      3  C3  <0> d          -0.013   1.076   0.008  0.00  0.00    -0.033 A 
ATOM      4  C4  <0> d           1.085   1.937   0.002  0.00  0.00     0.024 A 
ATOM      5  N2  <0> d           0.634   3.166   0.013  0.00  0.00    -0.185 NA
ATOM      6  H4  <0> d           0.002  -0.004   0.002  0.00  0.00     0.089 H 
ATOM      7  H5  <0> d           2.124   1.642  -0.009  0.00  0.00     0.117 H 
ENDROOT
BRANCH   2   8
ATOM      8  C5  <0> d          -2.530   1.487   0.020  0.00  0.00     0.200 C 
ATOM      9  O1  <0> d          -3.411   2.322   0.028  0.00  0.00    -0.288 OA
BRANCH   8  10
ATOM     10  C6  <0> d          -2.882   0.021   0.014  0.00  0.00     0.080 C 
ATOM     11  H6  <0> d          -2.505  -0.408  -0.806  0.00  0.00     0.086 H 
ATOM     12  H7  <0> d          -2.464  -0.456   0.900  0.00  0.00     0.086 H 
BRANCH  10  13
ATOM     13  O2  <0> d          -4.303  -0.127   0.018  0.00  0.00    -0.388 OA
BRANCH  13  14
ATOM     14  C7  <0> d          -4.745  -1.486   0.013  0.00  0.00     0.004 C 
ATOM     15  H8  <0> d          -4.372  -1.986  -0.881  0.00  0.00     0.066 H 
ATOM     16  H9  <0> d          -4.366  -1.995   0.899  0.00  0.00     0.066 H 
ATOM     17  H10 <0> d          -5.835  -1.514   0.017  0.00  0.00     0.066 H 
ENDBRANCH  13  14
ENDBRANCH  10  13
ENDBRANCH   8  10
ENDBRANCH   2   8
BRANCH   1  18
ATOM     18  C1  <0> d          -1.477   4.394   0.038  0.00  0.00     0.003 C 
ATOM     19  H1  <0> d          -1.691   4.699  -0.986  0.00  0.00     0.059 H 
ATOM     20  H2  <0> d          -2.412   4.189   0.559  0.00  0.00     0.059 H 
ATOM     21  H3  <0> d          -0.943   5.194   0.551  0.00  0.00     0.059 H 
ENDBRANCH   1  18
TORSDOF 5
