REMARK  1 active torsions:
REMARK  status: ('A' for Active; 'I' for Inactive)
REMARK    1  A    between atoms: C2_5  and  S1_7 
ROOT
ATOM      1  C1  <0> d           0.864   5.367  -0.708  0.00  0.00     0.109 A 
ATOM      2  N1  <0> d           0.860   5.414   0.636  0.00  0.00    -0.166 NA
ATOM      3  H1  <0> d           1.079   3.875   2.155  0.00  0.00     0.191 HD
ATOM      4  N2  <0> d           1.043   4.094   1.078  0.00  0.00    -0.248 N 
ATOM      5  C2  <0> d           1.138   3.347   0.009  0.00  0.00     0.264 A 
ATOM      6  N3  <0> d           1.032   4.121  -1.070  0.00  0.00    -0.208 NA
ATOM      7  H2  <0> d           0.750   6.208  -1.238  0.00  0.00     0.149 H 
ENDROOT
BRANCH   5   8
ATOM      8  S1  <0> d           1.371   1.601  -0.002  0.00  0.00     0.175 S 
ATOM      9  O1  <0> d           1.982   1.264   1.235  0.00  0.00    -0.589 OA
ATOM     10  O2  <0> d           1.958   1.278  -1.255  0.00  0.00    -0.589 OA
ATOM     11  O3  <0> d          -0.011   0.963   0.007  0.00  0.00    -0.589 OA
ENDBRANCH   5   8
TORSDOF 1
