REMARK  1 active torsions:
REMARK  status: ('A' for Active; 'I' for Inactive)
REMARK    1  A    between atoms: C2_2  and  C5_8 
ROOT
ATOM      1  C1  <0> d          -1.029  -2.299  -0.001  0.00  0.00     0.023 C 
ATOM      2  C2  <0> d          -1.293  -0.775   0.010  0.00  0.00     0.054 C 
ATOM      3  H1  <0> d          -1.924  -0.483  -0.829  0.00  0.00     0.059 H 
ATOM      4  C3  <0> d          -2.036  -0.594   1.352  0.00  0.00     0.008 C 
ATOM      5  N1  <0> d          -2.660  -1.892   1.633  0.00  0.00    -0.360 N 
ATOM      6  C4  <0> d          -2.111  -2.869   0.891  0.00  0.00     0.218 C 
ATOM      7  O1  <0> d          -2.434  -4.037   0.931  0.00  0.00    -0.274 OA
ATOM      8  H2  <0> d          -1.121  -2.695  -1.012  0.00  0.00     0.048 H 
ATOM      9  H3  <0> d          -0.043  -2.518   0.408  0.00  0.00     0.048 H 
ATOM     10  H4  <0> d          -1.331  -0.336   2.142  0.00  0.00     0.065 H 
ATOM     11  H5  <0> d          -2.799   0.180   1.259  0.00  0.00     0.065 H 
ATOM     12  H6  <0> d          -3.378  -2.027   2.272  0.00  0.00     0.162 HD
ENDROOT
BRANCH   2  13
ATOM     13  C5  <0> d           0.002  -0.004   0.002  0.00  0.00     0.179 C 
ATOM     14  O2  <0> d           1.056  -0.594  -0.011  0.00  0.00    -0.648 OA
ATOM     15  O3  <0> d          -0.016   1.338   0.009  0.00  0.00    -0.648 OA
ENDBRANCH   2  13
TORSDOF 1
