REMARK  7 active torsions:
REMARK  status: ('A' for Active; 'I' for Inactive)
REMARK    1  A    between atoms: C1_1  and  C2_2 
REMARK    2  A    between atoms: C2_2  and  O1_3 
REMARK    3  A    between atoms: O1_3  and  C3_4 
REMARK    4  A    between atoms: C3_4  and  C4_6 
REMARK    5  A    between atoms: C4_6  and  C6_10 
REMARK    6  A    between atoms: C6_10  and  C7_11 
REMARK    7  A    between atoms: C6_10  and  C8_12 
ROOT
ATOM      1  C4  <0> d          -0.729   1.579   1.267  0.00  0.00     0.117 C 
ATOM      2  H1  <0> d          -0.744   2.669   1.273  0.00  0.00     0.079 H 
ATOM      3  C5  <0> d          -0.017   1.092   2.459  0.00  0.00     0.074 C 
ATOM      4  N1  <0> d           0.532   0.715   3.380  0.00  0.00    -0.196 NA
ENDROOT
BRANCH   1   5
ATOM      5  C3  <0> d          -2.143   1.058   1.278  0.00  0.00     0.277 C 
ATOM      6  O2  <0> d          -2.537   0.362   0.371  0.00  0.00    -0.264 OA
BRANCH   5   7
ATOM      7  O1  <0> d          -2.964   1.365   2.294  0.00  0.00    -0.321 OA
BRANCH   7   8
ATOM      8  C2  <0> d          -4.312   0.828   2.238  0.00  0.00     0.025 C 
ATOM      9  H5  <0> d          -4.810   1.190   1.339  0.00  0.00     0.074 H 
ATOM     10  H6  <0> d          -4.268  -0.261   2.216  0.00  0.00     0.074 H 
BRANCH   8  11
ATOM     11  C1  <0> d          -5.093   1.282   3.472  0.00  0.00    -0.056 C 
ATOM     12  H2  <0> d          -6.105   0.879   3.430  0.00  0.00     0.030 H 
ATOM     13  H3  <0> d          -4.595   0.920   4.372  0.00  0.00     0.030 H 
ATOM     14  H4  <0> d          -5.137   2.371   3.494  0.00  0.00     0.030 H 
ENDBRANCH   8  11
ENDBRANCH   7   8
ENDBRANCH   5   7
ENDBRANCH   1   5
BRANCH   1  15
ATOM     15  C6  <0> d          -0.013   1.086   0.008  0.00  0.00    -0.037 C 
ATOM     16  H7  <0> d           0.002  -0.004   0.002  0.00  0.00     0.041 H 
BRANCH  15  17
ATOM     17  C7  <0> d           1.423   1.615  -0.003  0.00  0.00    -0.072 C 
ATOM     18  H8  <0> d           1.408   2.705   0.003  0.00  0.00     0.028 H 
ATOM     19  H9  <0> d           1.950   1.254   0.880  0.00  0.00     0.028 H 
ATOM     20  H10 <0> d           1.933   1.264  -0.900  0.00  0.00     0.028 H 
ENDBRANCH  15  17
BRANCH  15  21
ATOM     21  C8  <0> d          -0.753   1.593  -1.232  0.00  0.00    -0.072 C 
ATOM     22  H11 <0> d          -0.767   2.683  -1.226  0.00  0.00     0.028 H 
ATOM     23  H12 <0> d          -0.242   1.241  -2.128  0.00  0.00     0.028 H 
ATOM     24  H13 <0> d          -1.775   1.215  -1.224  0.00  0.00     0.028 H 
ENDBRANCH  15  21
ENDBRANCH   1  15
TORSDOF 7
