REMARK  6 active torsions:
REMARK  status: ('A' for Active; 'I' for Inactive)
REMARK    1  A    between atoms: C1_1  and  C2_2 
REMARK    2  A    between atoms: C2_2  and  C3_3 
REMARK    3  A    between atoms: C3_3  and  C4_5 
REMARK    4  A    between atoms: C3_3  and  C5_6 
REMARK    5  A    between atoms: C5_6  and  S1_7 
REMARK    6  A    between atoms: S1_7  and  N1_10 
ROOT
ATOM      1  C3  <0> d           0.742  -0.511   1.242  0.00  0.00    -0.044 C 
ATOM      2  H1  <0> d           0.285  -0.087   2.136  0.00  0.00     0.041 H 
ENDROOT
BRANCH   1   3
ATOM      3  C2  <0> d           0.002  -0.004   0.002  0.00  0.00    -0.065 C 
ATOM      4  H5  <0> d          -1.020  -0.381   0.010  0.00  0.00     0.033 H 
ATOM      5  H6  <0> d           0.512  -0.356  -0.895  0.00  0.00     0.033 H 
BRANCH   3   6
ATOM      6  C1  <0> d          -0.019   1.526   0.010  0.00  0.00    -0.076 C 
ATOM      7  H2  <0> d           1.004   1.903   0.003  0.00  0.00     0.027 H 
ATOM      8  H3  <0> d          -0.546   1.887  -0.873  0.00  0.00     0.027 H 
ATOM      9  H4  <0> d          -0.529   1.877   0.907  0.00  0.00     0.027 H 
ENDBRANCH   3   6
ENDBRANCH   1   3
BRANCH   1  10
ATOM     10  C4  <0> d           2.210  -0.086   1.169  0.00  0.00    -0.072 C 
ATOM     11  H7  <0> d           2.737  -0.447   2.052  0.00  0.00     0.028 H 
ATOM     12  H8  <0> d           2.667  -0.509   0.274  0.00  0.00     0.028 H 
ATOM     13  H9  <0> d           2.272   1.002   1.128  0.00  0.00     0.028 H 
ENDBRANCH   1  10
BRANCH   1  14
ATOM     14  C5  <0> d           0.655  -2.037   1.299  0.00  0.00     0.049 C 
ATOM     15  H10 <0> d          -0.390  -2.344   1.261  0.00  0.00     0.059 H 
ATOM     16  H11 <0> d           1.190  -2.464   0.450  0.00  0.00     0.059 H 
BRANCH  14  17
ATOM     17  S1  <0> d           1.403  -2.628   2.842  0.00  0.00     0.224 S 
ATOM     18  O1  <0> d           2.805  -2.394   2.828  0.00  0.00    -0.206 OA
ATOM     19  O2  <0> d           0.614  -2.228   3.953  0.00  0.00    -0.206 OA
BRANCH  17  20
ATOM     20  N1  <0> d           1.250  -4.276   2.786  0.00  0.00    -0.328 N 
ATOM     21  H12 <0> d           0.825  -4.698   2.022  0.00  0.00     0.168 HD
ATOM     22  H13 <0> d           1.584  -4.819   3.517  0.00  0.00     0.168 HD
ENDBRANCH  17  20
ENDBRANCH  14  17
ENDBRANCH   1  14
TORSDOF 6
