REMARK  4 active torsions:
REMARK  status: ('A' for Active; 'I' for Inactive)
REMARK    1  A    between atoms: C1_1  and  C2_2 
REMARK    2  A    between atoms: C3_3  and  C6_9 
REMARK    3  A    between atoms: C5_6  and  N3_8 
REMARK    4  A    between atoms: C6_9  and  O1_10 
ROOT
ATOM      1  C2  <0> d           1.192   2.061   0.002  0.00  0.00     0.059 A 
ATOM      2  C3  <0> d          -0.017   1.382   0.010  0.00  0.00     0.008 A 
ATOM      3  C4  <0> d           0.002  -0.004   0.002  0.00  0.00     0.031 A 
ATOM      4  N1  <0> d           1.165  -0.634  -0.013  0.00  0.00    -0.075 NA
ATOM      5  C5  <0> d           2.303   0.045  -0.020  0.00  0.00     0.720 A 
ATOM      6  N2  <0> d           2.320   1.371  -0.013  0.00  0.00    -0.068 NA
ATOM      7  H4  <0> d          -0.922  -0.563   0.007  0.00  0.00     0.116 H 
ENDROOT
BRANCH   2   8
ATOM      8  C6  <0> d          -1.323   2.134   0.020  0.00  0.00     0.044 C 
ATOM      9  H7  <0> d          -1.377   2.761   0.922  0.00  0.00     0.081 H 
ATOM     10  H8  <0> d          -1.386   2.771  -0.875  0.00  0.00     0.081 H 
BRANCH   8  11
ATOM     11  O1  <0> d          -2.408   1.204   0.020  0.00  0.00    -0.396 OA
ATOM     12  H9  <0> d          -3.445   1.570   0.027  0.00  0.00     0.209 HD
ENDBRANCH   8  11
ENDBRANCH   2   8
BRANCH   1  13
ATOM     13  C1  <0> d           1.220   3.568   0.009  0.00  0.00    -0.034 C 
ATOM     14  H1  <0> d           0.190   3.953   0.021  0.00  0.00     0.035 H 
ATOM     15  H2  <0> d           1.736   3.929  -0.892  0.00  0.00     0.035 H 
ATOM     16  H3  <0> d           1.754   3.920   0.904  0.00  0.00     0.035 H 
ENDBRANCH   1  13
BRANCH   5  17
ATOM     17  N3  <0> d           3.502  -0.645  -0.035  0.00  0.00    -0.231 N 
ATOM     18  H5  <0> d           4.454  -0.094  -0.041  0.00  0.00     0.174 HD
ATOM     19  H6  <0> d           3.503  -1.745  -0.041  0.00  0.00     0.174 HD
ENDBRANCH   5  17
TORSDOF 4
