REMARK  7 active torsions:
REMARK  status: ('A' for Active; 'I' for Inactive)
REMARK    1  A    between atoms: C1_1  and  C2_2 
REMARK    2  A    between atoms: C2_2  and  C3_3 
REMARK    3  A    between atoms: C3_3  and  C4_5 
REMARK    4  A    between atoms: C3_3  and  O3_9 
REMARK    5  A    between atoms: C4_5  and  O2_7 
REMARK    6  A    between atoms: O2_7  and  C5_8 
REMARK    7  A    between atoms: O3_9  and  C6_10 
ROOT
ATOM      1  C3  <0> d           0.724  -2.075  -0.738  0.00  0.00     0.121 C 
ATOM      2  H1  <0> d           1.035  -2.694   0.116  0.00  0.00     0.099 H 
ENDROOT
BRANCH   1   3
ATOM      3  C2  <0> d          -0.773  -2.216  -1.023  0.00  0.00    -0.035 C 
ATOM      4  H5  <0> d          -1.018  -1.695  -1.961  0.00  0.00     0.036 H 
ATOM      5  H6  <0> d          -1.347  -1.772  -0.197  0.00  0.00     0.036 H 
BRANCH   3   6
ATOM      6  C1  <0> d          -1.130  -3.697  -1.154  0.00  0.00    -0.074 C 
ATOM      7  H2  <0> d          -2.206  -3.798  -1.359  0.00  0.00     0.027 H 
ATOM      8  H3  <0> d          -0.885  -4.218  -0.217  0.00  0.00     0.027 H 
ATOM      9  H4  <0> d          -0.556  -4.141  -1.981  0.00  0.00     0.027 H 
ENDBRANCH   3   6
ENDBRANCH   1   3
BRANCH   1  10
ATOM     10  C4  <0> d           1.053  -0.626  -0.486  0.00  0.00     0.287 C 
ATOM     11  O1  <0> d           1.775  -0.029  -1.249  0.00  0.00    -0.262 OA
BRANCH  10  12
ATOM     12  O2  <0> d           0.545   0.000   0.587  0.00  0.00    -0.324 OA
BRANCH  12  13
ATOM     13  C5  <0> d           0.905   1.395   0.767  0.00  0.00     0.013 C 
ATOM     14  H7  <0> d           0.425   1.783   1.678  0.00  0.00     0.067 H 
ATOM     15  H8  <0> d           0.566   1.977  -0.102  0.00  0.00     0.067 H 
ATOM     16  H9  <0> d           1.998   1.483   0.864  0.00  0.00     0.067 H 
ENDBRANCH  12  13
ENDBRANCH  10  12
ENDBRANCH   1  10
BRANCH   1  17
ATOM     17  O3  <0> d           1.469  -2.544  -1.864  0.00  0.00    -0.381 OA
BRANCH  17  18
ATOM     18  C6  <0> d           1.998  -3.862  -1.702  0.00  0.00     0.005 C 
ATOM     19  H10 <0> d           2.555  -4.146  -2.607  0.00  0.00     0.066 H 
ATOM     20  H11 <0> d           1.173  -4.571  -1.541  0.00  0.00     0.066 H 
ATOM     21  H12 <0> d           2.674  -3.882  -0.834  0.00  0.00     0.066 H 
ENDBRANCH  17  18
ENDBRANCH   1  17
TORSDOF 7
