REMARK  3 active torsions:
REMARK  status: ('A' for Active; 'I' for Inactive)
REMARK    1  A    between atoms: C1_1  and  O1_2 
REMARK    2  A    between atoms: O1_2  and  C2_3 
REMARK    3  A    between atoms: C2_3  and  C3_5 
ROOT
ATOM      1  C3  <0> d          -1.301   1.930   0.019  0.00  0.00     0.177 A 
ATOM      2  C4  <0> d          -2.553   1.377   0.016  0.00  0.00    -0.023 A 
ATOM      3  C5  <0> d          -3.416   2.495   0.031  0.00  0.00     0.032 A 
ATOM      4  N1  <0> d          -2.656   3.552   0.033  0.00  0.00    -0.140 NA
ATOM      5  O3  <0> d          -1.482   3.265   0.026  0.00  0.00    -0.207 OA
ATOM      6  H4  <0> d          -2.819   0.331   0.007  0.00  0.00     0.090 H 
ATOM      7  H5  <0> d          -4.496   2.477   0.035  0.00  0.00     0.118 H 
ENDROOT
BRANCH   1   8
ATOM      8  C2  <0> d          -0.014   1.211   0.009  0.00  0.00     0.319 C 
ATOM      9  O2  <0> d           0.002  -0.004   0.002  0.00  0.00    -0.257 OA
BRANCH   8  10
ATOM     10  O1  <0> d           1.143   1.901   0.001  0.00  0.00    -0.321 OA
BRANCH  10  11
ATOM     11  C1  <0> d           2.372   1.126  -0.015  0.00  0.00     0.013 C 
ATOM     12  H1  <0> d           2.397   0.503  -0.908  0.00  0.00     0.067 H 
ATOM     13  H2  <0> d           3.227   1.802  -0.019  0.00  0.00     0.067 H 
ATOM     14  H3  <0> d           2.414   0.493   0.872  0.00  0.00     0.067 H 
ENDBRANCH  10  11
ENDBRANCH   8  10
ENDBRANCH   1   8
TORSDOF 3
