REMARK  0 active torsions:
REMARK  status: ('A' for Active; 'I' for Inactive)
ROOT
ATOM      1  C1  <0> d          -0.017   1.404   0.010  0.00  0.00    -0.080 A 
ATOM      2  C2  <0> d           0.002  -0.004   0.002  0.00  0.00    -0.068 A 
ATOM      3  C3  <0> d           1.170  -0.674  -0.013  0.00  0.00    -0.014 A 
ATOM      4  N1  <0> d           2.362   0.003  -0.021  0.00  0.00    -0.315 N 
ATOM      5  C4  <0> d           3.651  -0.398  -0.035  0.00  0.00     0.070 A 
ATOM      6  N2  <0> d           4.433   0.652  -0.037  0.00  0.00    -0.253 NA
ATOM      7  C5  <0> d           3.697   1.765  -0.024  0.00  0.00     0.029 A 
ATOM      8  C6  <0> d           2.370   1.384  -0.013  0.00  0.00     0.057 A 
ATOM      9  C7  <0> d           1.153   2.095   0.002  0.00  0.00    -0.055 A 
ATOM     10  H1  <0> d          -0.959   1.933   0.017  0.00  0.00     0.083 H 
ATOM     11  H2  <0> d          -0.929  -0.552   0.008  0.00  0.00     0.085 H 
ATOM     12  H3  <0> d           1.168  -1.754  -0.019  0.00  0.00     0.112 H 
ATOM     13  H4  <0> d           3.986  -1.425  -0.043  0.00  0.00     0.144 H 
ATOM     14  H5  <0> d           4.071   2.778  -0.022  0.00  0.00     0.118 H 
ATOM     15  H6  <0> d           1.151   3.175   0.008  0.00  0.00     0.087 H 
ENDROOT
TORSDOF 0
