REMARK  2 active torsions:
REMARK  status: ('A' for Active; 'I' for Inactive)
REMARK    1  A    between atoms: C3_3  and  N1_10 
REMARK    2  A    between atoms: C6_6  and  C7_7 
ROOT
ATOM      1  C1  <0> d          -0.379   4.161  -0.701  0.00  0.00    -0.074 A 
ATOM      2  C2  <0> d          -0.083   5.353  -1.333  0.00  0.00    -0.057 A 
ATOM      3  C3  <0> d          -0.254   5.470  -2.706  0.00  0.00     0.025 A 
ATOM      4  C4  <0> d          -0.717   4.386  -3.440  0.00  0.00    -0.057 A 
ATOM      5  C5  <0> d          -1.006   3.195  -2.803  0.00  0.00    -0.074 A 
ATOM      6  C6  <0> d          -0.834   3.082  -1.435  0.00  0.00    -0.054 A 
ATOM      7  H1  <0> d          -0.250   4.071   0.368  0.00  0.00     0.084 H 
ATOM      8  H2  <0> d           0.277   6.194  -0.759  0.00  0.00     0.086 H 
ATOM      9  H3  <0> d          -0.851   4.473  -4.508  0.00  0.00     0.086 H 
ATOM     10  H4  <0> d          -1.366   2.351  -3.373  0.00  0.00     0.084 H 
ENDROOT
BRANCH   6  11
ATOM     11  C7  <0> d          -1.150   1.781  -0.743  0.00  0.00    -0.029 A 
ATOM     12  C9  <0> d          -1.136   1.773   0.788  0.00  0.00    -0.057 A 
ATOM     13  C8  <0> d          -0.013   1.086   0.008  0.00  0.00    -0.057 A 
ATOM     14  H8  <0> d          -1.859   1.135   1.295  0.00  0.00     0.034 H 
ATOM     15  H9  <0> d          -0.897   2.708   1.294  0.00  0.00     0.034 H 
ATOM     16  H6  <0> d           0.002  -0.004   0.002  0.00  0.00     0.034 H 
ATOM     17  H7  <0> d           0.964   1.569   0.001  0.00  0.00     0.034 H 
ATOM     18  H5  <0> d          -1.884   1.149  -1.243  0.00  0.00     0.047 H 
ENDBRANCH   6  11
BRANCH   3  19
ATOM     19  N1  <0> d           0.038   6.676  -3.348  0.00  0.00    -0.399 N 
ATOM     20  H10 <0> d          -0.082   6.757  -4.307  0.00  0.00     0.156 HD
ATOM     21  H11 <0> d           0.362   7.433  -2.834  0.00  0.00     0.156 HD
ENDBRANCH   3  19
TORSDOF 2
