REMARK  2 active torsions:
REMARK  status: ('A' for Active; 'I' for Inactive)
REMARK    1  A    between atoms: C1_1  and  N1_2 
REMARK    2  A    between atoms: C2_3  and  N3_7 
ROOT
ATOM      1  N1  <0> d          -0.682   3.169   0.025  0.00  0.00    -0.259 N 
ATOM      2  C2  <0> d           0.670   3.199   0.012  0.00  0.00     0.118 A 
ATOM      3  C3  <0> d           1.109   1.909   0.002  0.00  0.00    -0.021 A 
ATOM      4  C4  <0> d          -0.013   1.076   0.008  0.00  0.00     0.025 A 
ATOM      5  N2  <0> d          -1.083   1.827   0.017  0.00  0.00    -0.184 NA
ATOM      6  H4  <0> d           2.140   1.589  -0.010  0.00  0.00     0.091 H 
ATOM      7  H5  <0> d           0.002  -0.004   0.002  0.00  0.00     0.117 H 
ENDROOT
BRANCH   1   8
ATOM      8  C1  <0> d          -1.569   4.335   0.039  0.00  0.00     0.004 C 
ATOM      9  H1  <0> d          -1.799   4.629  -0.985  0.00  0.00     0.059 H 
ATOM     10  H2  <0> d          -2.493   4.082   0.560  0.00  0.00     0.059 H 
ATOM     11  H3  <0> d          -1.076   5.160   0.552  0.00  0.00     0.059 H 
ENDBRANCH   1   8
BRANCH   2  12
ATOM     12  N3  <0> d           1.468   4.339   0.010  0.00  0.00    -0.384 N 
ATOM     13  H6  <0> d           2.435   4.255   0.000  0.00  0.00     0.157 HD
ATOM     14  H7  <0> d           1.058   5.218   0.018  0.00  0.00     0.157 HD
ENDBRANCH   2  12
TORSDOF 2
