REMARK  1 active torsions:
REMARK  status: ('A' for Active; 'I' for Inactive)
REMARK    1  A    between atoms: C1_1  and  N1_2 
ROOT
ATOM      1  N1  <0> d           2.086   0.761  -0.014  0.00  0.00    -0.329 N 
ATOM      2  C2  <0> d           1.205   1.801   0.000  0.00  0.00     0.068 A 
ATOM      3  N2  <0> d          -0.016   1.351   0.009  0.00  0.00    -0.235 NA
ATOM      4  C3  <0> d           0.002  -0.004   0.002  0.00  0.00     0.162 A 
ATOM      5  C4  <0> d           1.353  -0.399  -0.013  0.00  0.00     0.165 A 
ATOM      6  N3  <0> d           1.646  -1.693  -0.023  0.00  0.00    -0.222 NA
ATOM      7  C5  <0> d           0.688  -2.596  -0.019  0.00  0.00     0.092 A 
ATOM      8  N4  <0> d          -0.592  -2.269  -0.005  0.00  0.00    -0.211 NA
ATOM      9  C6  <0> d          -0.978  -1.002   0.006  0.00  0.00     0.243 A 
ATOM     10  F1  <0> d          -2.290  -0.681   0.020  0.00  0.00    -0.181 F 
ATOM     11  H4  <0> d           1.480   2.845   0.003  0.00  0.00     0.143 H 
ATOM     12  H5  <0> d           0.958  -3.641  -0.028  0.00  0.00     0.146 H 
ENDROOT
BRANCH   1  13
ATOM     13  C1  <0> d           3.547   0.864  -0.027  0.00  0.00    -0.012 C 
ATOM     14  H1  <0> d           3.900   0.895  -1.058  0.00  0.00     0.057 H 
ATOM     15  H2  <0> d           3.852   1.775   0.489  0.00  0.00     0.057 H 
ATOM     16  H3  <0> d           3.977  -0.001   0.479  0.00  0.00     0.057 H 
ENDBRANCH   1  13
TORSDOF 1
