REMARK  1 active torsions:
REMARK  status: ('A' for Active; 'I' for Inactive)
REMARK    1  A    between atoms: C1_1  and  C2_2 
ROOT
ATOM      1  C2  <0> d           1.160   2.039   0.002  0.00  0.00    -0.043 A 
ATOM      2  C3  <0> d           2.372   1.363  -0.013  0.00  0.00    -0.050 A 
ATOM      3  C4  <0> d           2.354  -0.023  -0.021  0.00  0.00     0.092 A 
ATOM      4  C5  <0> d           1.135  -0.682  -0.012  0.00  0.00     0.231 A 
ATOM      5  N1  <0> d           0.002  -0.004   0.002  0.00  0.00    -0.231 NA
ATOM      6  C6  <0> d          -0.016   1.315   0.009  0.00  0.00     0.011 A 
ATOM      7  F1  <0> d           1.105  -2.033  -0.019  0.00  0.00    -0.182 F 
ATOM      8 Cl1  <0> d           3.840  -0.921  -0.039  0.00  0.00    -0.079 Cl
ATOM      9  H4  <0> d           3.307   1.904  -0.019  0.00  0.00     0.087 H 
ATOM     10  H5  <0> d          -0.962   1.836   0.017  0.00  0.00     0.115 H 
ENDROOT
BRANCH   1  11
ATOM     11  C1  <0> d           1.128   3.546   0.010  0.00  0.00    -0.050 C 
ATOM     12  H1  <0> d           1.130   3.904   1.039  0.00  0.00     0.033 H 
ATOM     13  H2  <0> d           2.005   3.930  -0.510  0.00  0.00     0.033 H 
ATOM     14  H3  <0> d           0.226   3.892  -0.494  0.00  0.00     0.033 H 
ENDBRANCH   1  11
TORSDOF 1
