REMARK  4 active torsions:
REMARK  status: ('A' for Active; 'I' for Inactive)
REMARK    1  A    between atoms: C1_1  and  C2_2 
REMARK    2  A    between atoms: C2_2  and  C3_4 
REMARK    3  A    between atoms: C2_2  and  N1_7 
REMARK    4  A    between atoms: C3_4  and  C4_6 
ROOT
ATOM      1  C2  <0> d           1.872  -1.761  -0.025  0.00  0.00     0.089 C 
ATOM      2  H1  <0> d           1.196  -2.378   0.377  0.00  0.00     0.087 H 
ENDROOT
BRANCH   1   3
ATOM      3  C1  <0> d           3.166  -1.822   0.790  0.00  0.00    -0.049 C 
ATOM      4  H2  <0> d           2.962  -1.519   1.818  0.00  0.00     0.030 H 
ATOM      5  H3  <0> d           3.553  -2.841   0.782  0.00  0.00     0.030 H 
ATOM      6  H4  <0> d           3.903  -1.149   0.353  0.00  0.00     0.030 H 
ENDBRANCH   1   3
BRANCH   1   7
ATOM      7  C3  <0> d           2.153  -2.179  -1.445  0.00  0.00     0.147 C 
ATOM      8  O1  <0> d           2.472  -1.353  -2.266  0.00  0.00    -0.296 OA
BRANCH   7   9
ATOM      9  C4  <0> d           2.037  -3.629  -1.840  0.00  0.00    -0.019 C 
ATOM     10  H5  <0> d           1.766  -4.171  -1.044  0.00  0.00     0.037 H 
ATOM     11  H6  <0> d           1.286  -3.733  -2.623  0.00  0.00     0.037 H 
ATOM     12  H7  <0> d           2.999  -3.983  -2.210  0.00  0.00     0.037 H 
ENDBRANCH   7   9
ENDBRANCH   1   7
BRANCH   1  13
ATOM     13  N1  <0> d           1.352  -0.392  -0.013  0.00  0.00    -0.251 N 
ATOM     14  N3  <0> d           0.002  -0.004   0.002  0.00  0.00    -0.164 NA
ATOM     15  C6  <0> d          -0.016   1.303   0.009  0.00  0.00     0.107 A 
ATOM     16  N2  <0> d           1.238   1.753  -0.000  0.00  0.00    -0.234 NA
ATOM     17  H9  <0> d          -0.903   1.919   0.017  0.00  0.00     0.149 H 
ATOM     18  C5  <0> d           2.072   0.744  -0.014  0.00  0.00     0.085 A 
ATOM     19  H8  <0> d           3.149   0.812  -0.024  0.00  0.00     0.146 H 
ENDBRANCH   1  13
TORSDOF 4
