REMARK  1 active torsions:
REMARK  status: ('A' for Active; 'I' for Inactive)
REMARK    1  A    between atoms: C1_1  and  N1_2 
ROOT
ATOM      1  N1  <0> d           1.879   1.717   1.286  0.00  0.00    -0.313 N 
ATOM      2  C2  <0> d           1.176   1.832   0.001  0.00  0.00     0.121 A 
ATOM      3  H1  <0> d           1.827   1.648  -0.854  0.00  0.00     0.113 H 
ATOM      4  C3  <0> d           0.585   3.265   0.014  0.00  0.00     0.120 A 
ATOM      5  H2  <0> d           0.920   3.871  -0.827  0.00  0.00     0.113 H 
ATOM      6  N2  <0> d          -0.868   3.041   0.027  0.00  0.00    -0.318 N 
ATOM      7  C4  <0> d          -1.114   1.725   0.016  0.00  0.00     0.319 A 
ATOM      8  O1  <0> d          -2.238   1.261   0.018  0.00  0.00    -0.247 OA
ATOM      9  N3  <0> d          -0.011   0.966   0.007  0.00  0.00    -0.318 N 
ATOM     10  N4  <0> d           1.023   3.792   1.333  0.00  0.00    -0.318 N 
ATOM     11  C5  <0> d           1.743   2.860   1.970  0.00  0.00     0.321 A 
ATOM     12  O2  <0> d           2.229   3.036   3.071  0.00  0.00    -0.247 OA
ATOM     13  H6  <0> d          -1.542   3.738   0.037  0.00  0.00     0.166 HD
ATOM     14  H7  <0> d           0.002  -0.004   0.002  0.00  0.00     0.166 HD
ATOM     15  H8  <0> d           0.822   4.677   1.675  0.00  0.00     0.166 HD
ENDROOT
BRANCH   1  16
ATOM     16  C1  <0> d           2.615   0.537   1.747  0.00  0.00    -0.012 C 
ATOM     17  H3  <0> d           3.654   0.608   1.425  0.00  0.00     0.056 H 
ATOM     18  H4  <0> d           2.574   0.485   2.835  0.00  0.00     0.056 H 
ATOM     19  H5  <0> d           2.164  -0.361   1.323  0.00  0.00     0.056 H 
ENDBRANCH   1  16
TORSDOF 1
