REMARK  5 active torsions:
REMARK  status: ('A' for Active; 'I' for Inactive)
REMARK    1  A    between atoms: C1_1  and  C2_2 
REMARK    2  A    between atoms: C2_2  and  C3_3 
REMARK    3  A    between atoms: C3_3  and  C4_4 
REMARK    4  A    between atoms: C4_4  and  C5_5 
REMARK    5  A    between atoms: C5_5  and  C6_6 
ROOT
ATOM      1  C4  <0> d          -2.479   0.930   0.019  0.00  0.00    -0.043 C 
ATOM      2  H4  <0> d          -2.417   0.309  -0.875  0.00  0.00     0.035 H 
ATOM      3  H5  <0> d          -2.408   0.299   0.905  0.00  0.00     0.035 H 
ENDROOT
BRANCH   1   4
ATOM      4  C3  <0> d          -3.794   1.665   0.029  0.00  0.00     0.007 C 
ATOM      5  H3  <0> d          -4.000   2.393   0.800  0.00  0.00     0.060 H 
BRANCH   4   6
ATOM      6  C2  <0> d          -4.686   1.423  -0.895  0.00  0.00    -0.176 C 
BRANCH   6   7
ATOM      7  C1  <0> d          -5.577   1.180  -1.819  0.00  0.00    -0.011 C 
ATOM      8  H1  <0> d          -5.574   1.752  -2.736  0.00  0.00     0.051 H 
ATOM      9  H2  <0> d          -6.317   0.409  -1.667  0.00  0.00     0.051 H 
ENDBRANCH   6   7
ENDBRANCH   4   6
ENDBRANCH   1   4
BRANCH   1  10
ATOM     10  C5  <0> d          -1.329   1.940   0.019  0.00  0.00     0.017 C 
ATOM     11  H6  <0> d          -1.391   2.561   0.913  0.00  0.00     0.049 H 
ATOM     12  H7  <0> d          -1.400   2.570  -0.867  0.00  0.00     0.049 H 
BRANCH  10  13
ATOM     13  C6  <0> d          -0.014   1.204   0.009  0.00  0.00     0.172 C 
ATOM     14  O1  <0> d           0.002  -0.004   0.002  0.00  0.00    -0.648 OA
ATOM     15  O2  <0> d           1.139   1.891   0.001  0.00  0.00    -0.648 OA
ENDBRANCH  10  13
ENDBRANCH   1  10
TORSDOF 5
