REMARK  3 active torsions:
REMARK  status: ('A' for Active; 'I' for Inactive)
REMARK    1  A    between atoms: C1_1  and  N1_2 
REMARK       I    between atoms: N1_2  and  C2_3 
REMARK    2  A    between atoms: C2_3  and  C3_5 
REMARK    3  A    between atoms: C4_6  and  N4_11 
ROOT
ATOM      1  C3  <0> d          -0.726   3.124   0.026  0.00  0.00     0.169 A 
ATOM      2  C4  <0> d           0.661   3.172   0.013  0.00  0.00     0.134 A 
ATOM      3  N2  <0> d           1.091   1.878   0.002  0.00  0.00    -0.335 N 
ATOM      4  H1  <0> d           2.168   1.656  -0.010  0.00  0.00     0.168 HD
ATOM      5  C5  <0> d          -0.013   1.076   0.008  0.00  0.00     0.066 A 
ATOM      6  N3  <0> d          -1.084   1.811   0.017  0.00  0.00    -0.235 NA
ATOM      7  H6  <0> d           0.002  -0.004   0.002  0.00  0.00     0.143 H 
ENDROOT
BRANCH   1   8
ATOM      8  C2  <0> d          -1.635   4.272   0.040  0.00  0.00     0.273 C 
ATOM      9  N1  <0> d          -2.968   4.076   0.052  0.00  0.00    -0.360 N 
ATOM     10  H5  <0> d          -3.374   3.054   0.051  0.00  0.00     0.162 HD
ATOM     11  O1  <0> d          -1.186   5.404   0.041  0.00  0.00    -0.266 OA
BRANCH   9  12
ATOM     12  C1  <0> d          -3.878   5.225   0.066  0.00  0.00    -0.018 C 
ATOM     13  H2  <0> d          -4.918   4.868   0.074  0.00  0.00     0.056 H 
ATOM     14  H3  <0> d          -3.707   5.838  -0.831  0.00  0.00     0.056 H 
ATOM     15  H4  <0> d          -3.690   5.830   0.965  0.00  0.00     0.056 H 
ENDBRANCH   9  12
ENDBRANCH   1   8
BRANCH   2  16
ATOM     16  N4  <0> d           1.449   4.306   0.012  0.00  0.00    -0.383 N 
ATOM     17  H7  <0> d           2.545   4.213   0.001  0.00  0.00     0.157 HD
ATOM     18  H8  <0> d           0.981   5.301   0.022  0.00  0.00     0.157 HD
ENDBRANCH   2  16
TORSDOF 3
