REMARK  4 active torsions:
REMARK  status: ('A' for Active; 'I' for Inactive)
REMARK    1  A    between atoms: C1_1  and  C2_2 
REMARK    2  A    between atoms: C2_2  and  C3_3 
REMARK    3  A    between atoms: C2_2  and  C4_4 
REMARK    4  A    between atoms: C2_2  and  N1_5 
ROOT
ATOM      1  C2  <0> d          -1.207   2.200   0.020  0.00  0.00     0.028 C 
ENDROOT
BRANCH   1   2
ATOM      2  C1  <0> d          -0.781   3.670   0.025  0.00  0.00    -0.053 C 
ATOM      3  H1  <0> d          -0.176   3.873   0.921  0.00  0.00     0.030 H 
ATOM      4  H2  <0> d          -1.675   4.311   0.033  0.00  0.00     0.030 H 
ATOM      5  H3  <0> d          -0.186   3.882  -0.875  0.00  0.00     0.030 H 
ENDBRANCH   1   2
BRANCH   1   6
ATOM      6  C3  <0> d          -2.048   1.917  -1.226  0.00  0.00    -0.053 C 
ATOM      7  H4  <0> d          -2.354   0.861  -1.230  0.00  0.00     0.030 H 
ATOM      8  H5  <0> d          -1.453   2.130  -2.127  0.00  0.00     0.030 H 
ATOM      9  H6  <0> d          -2.942   2.558  -1.218  0.00  0.00     0.030 H 
ENDBRANCH   1   6
BRANCH   1  10
ATOM     10  C4  <0> d          -2.035   1.905   1.272  0.00  0.00    -0.053 C 
ATOM     11  H7  <0> d          -2.341   0.848   1.268  0.00  0.00     0.030 H 
ATOM     12  H8  <0> d          -2.929   2.546   1.280  0.00  0.00     0.030 H 
ATOM     13  H9  <0> d          -1.430   2.108   2.168  0.00  0.00     0.030 H 
ENDBRANCH   1  10
BRANCH   1  14
ATOM     14  N1  <0> d          -0.016   1.347   0.009  0.00  0.00    -0.322 N 
ATOM     15  C7  <0> d           0.002  -0.004   0.002  0.00  0.00     0.203 A 
ATOM     16  N2  <0> d           1.245  -0.405  -0.012  0.00  0.00    -0.231 NA
ATOM     17 Cl1  <0> d          -1.394  -1.035   0.010  0.00  0.00    -0.043 Cl
ATOM     18  C6  <0> d           2.055   0.664  -0.014  0.00  0.00     0.020 A 
ATOM     19  C5  <0> d           1.287   1.770  -0.001  0.00  0.00    -0.000 A 
ATOM     20  H11 <0> d           3.135   0.642  -0.025  0.00  0.00     0.117 H 
ATOM     21  H10 <0> d           1.632   2.793   0.001  0.00  0.00     0.114 H 
ENDBRANCH   1  14
TORSDOF 4
