REMARK  8 active torsions:
REMARK  status: ('A' for Active; 'I' for Inactive)
REMARK    1  A    between atoms: C1_1  and  C2_2 
REMARK    2  A    between atoms: C2_2  and  C3_3 
REMARK    3  A    between atoms: C2_2  and  C4_4 
REMARK    4  A    between atoms: C4_4  and  C5_5 
REMARK    5  A    between atoms: C5_5  and  C6_7 
REMARK    6  A    between atoms: C5_5  and  N1_11 
REMARK    7  A    between atoms: C6_7  and  O2_9 
REMARK    8  A    between atoms: O2_9  and  C7_10 
ROOT
ATOM      1  C4  <0> d           0.683  -0.621   1.226  0.00  0.00    -0.025 C 
ATOM      2  H9  <0> d           0.836  -1.695   1.122  0.00  0.00     0.037 H 
ATOM      3  H10 <0> d           1.648  -0.123   1.322  0.00  0.00     0.037 H 
ENDROOT
BRANCH   1   4
ATOM      4  C2  <0> d          -0.044  -0.088  -0.011  0.00  0.00    -0.059 C 
ATOM      5  H5  <0> d          -0.285   0.965   0.135  0.00  0.00     0.038 H 
BRANCH   4   6
ATOM      6  C1  <0> d           0.858  -0.239  -1.237  0.00  0.00    -0.073 C 
ATOM      7  H2  <0> d           1.170  -1.279  -1.333  0.00  0.00     0.028 H 
ATOM      8  H3  <0> d           0.309   0.059  -2.131  0.00  0.00     0.028 H 
ATOM      9  H4  <0> d           1.737   0.395  -1.122  0.00  0.00     0.028 H 
ENDBRANCH   4   6
BRANCH   4  10
ATOM     10  C3  <0> d          -1.334  -0.881  -0.226  0.00  0.00    -0.073 C 
ATOM     11  H6  <0> d          -1.093  -1.934  -0.372  0.00  0.00     0.028 H 
ATOM     12  H7  <0> d          -1.977  -0.774   0.648  0.00  0.00     0.028 H 
ATOM     13  H8  <0> d          -1.852  -0.502  -1.106  0.00  0.00     0.028 H 
ENDBRANCH   4  10
ENDBRANCH   1   4
BRANCH   1  14
ATOM     14  C5  <0> d          -0.161  -0.344   2.472  0.00  0.00     0.213 C 
ATOM     15  H1  <0> d          -1.150  -0.784   2.346  0.00  0.00     0.104 H 
BRANCH  14  16
ATOM     16  C6  <0> d           0.510  -0.951   3.677  0.00  0.00     0.291 C 
ATOM     17  O1  <0> d           1.161  -0.256   4.421  0.00  0.00    -0.263 OA
BRANCH  16  18
ATOM     18  O2  <0> d           0.384  -2.264   3.925  0.00  0.00    -0.325 OA
BRANCH  18  19
ATOM     19  C7  <0> d           1.046  -2.772   5.085  0.00  0.00     0.013 C 
ATOM     20  H11 <0> d           2.117  -2.592   5.000  0.00  0.00     0.067 H 
ATOM     21  H12 <0> d           0.662  -2.269   5.972  0.00  0.00     0.067 H 
ATOM     22  H13 <0> d           0.863  -3.844   5.167  0.00  0.00     0.067 H 
ENDBRANCH  18  19
ENDBRANCH  16  18
ENDBRANCH  14  16
BRANCH  14  23
ATOM     23  N1  <0> d          -0.290   1.107   2.663  0.00  0.00     0.092 N 
ATOM     24  H14 <0> d          -0.896   1.316   3.442  0.00  0.00     0.313 HD
ATOM     25  H15 <0> d           0.614   1.538   2.782  0.00  0.00     0.313 HD
ENDBRANCH  14  23
ENDBRANCH   1  14
TORSDOF 8
