REMARK  1 active torsions:
REMARK  status: ('A' for Active; 'I' for Inactive)
REMARK    1  A    between atoms: C2_2  and  C3_3 
ROOT
ATOM      1  C1  <0> d           0.018  -1.178  -0.004  0.00  0.00    -0.149 C 
ATOM      2  C2  <0> d           0.002  -0.004   0.002  0.00  0.00    -0.076 C 
ATOM      3  H1  <0> d           0.032  -2.228  -0.010  0.00  0.00     0.166 H 
ENDROOT
BRANCH   2   4
ATOM      4  C3  <0> d          -0.017   1.428   0.010  0.00  0.00     0.037 A 
ATOM      5  C9  <0> d           1.181   2.150   0.002  0.00  0.00     0.021 A 
ATOM      6  N1  <0> d           1.178   3.464   0.004  0.00  0.00    -0.257 NA
ATOM      7  H5  <0> d           2.122   1.620  -0.009  0.00  0.00     0.117 H 
ATOM      8  C6  <0> d           0.044   4.157   0.024  0.00  0.00     0.092 A 
ATOM      9  C5  <0> d          -1.202   3.503   0.038  0.00  0.00     0.105 A 
ATOM     10  C7  <0> d          -0.271   5.590   0.037  0.00  0.00    -0.031 A 
ATOM     11  C4  <0> d          -1.233   2.117   0.031  0.00  0.00    -0.029 A 
ATOM     12  O1  <0> d          -2.157   4.454   0.057  0.00  0.00    -0.320 OA
ATOM     13  H2  <0> d          -2.172   1.583   0.041  0.00  0.00     0.090 H 
ATOM     14  C8  <0> d          -1.610   5.681   0.057  0.00  0.00     0.022 A 
ATOM     15  H4  <0> d          -2.166   6.606   0.070  0.00  0.00     0.123 H 
ATOM     16  H3  <0> d           0.433   6.408   0.032  0.00  0.00     0.090 H 
ENDBRANCH   2   4
TORSDOF 1
