REMARK  1 active torsions:
REMARK  status: ('A' for Active; 'I' for Inactive)
REMARK    1  A    between atoms: C5_5  and  N1_8 
ROOT
ATOM      1  C1  <0> d          -0.017   1.383   0.010  0.00  0.00    -0.065 A 
ATOM      2  C2  <0> d           1.192   2.061   0.002  0.00  0.00    -0.063 A 
ATOM      3  C3  <0> d           2.353   1.317  -0.013  0.00  0.00     0.035 A 
ATOM      4  C4  <0> d           2.330  -0.096  -0.021  0.00  0.00     0.100 A 
ATOM      5  C5  <0> d           3.645  -0.722  -0.037  0.00  0.00     0.062 A 
ATOM      6  C6  <0> d           4.743   0.055  -0.044  0.00  0.00    -0.017 A 
ATOM      7  S1  <0> d           4.082   1.711  -0.028  0.00  0.00    -0.097 SA
ATOM      8  N2  <0> d           1.118  -0.687  -0.012  0.00  0.00    -0.257 NA
ATOM      9  C7  <0> d           0.002  -0.004   0.002  0.00  0.00     0.003 A 
ATOM     10  H1  <0> d          -0.952   1.922   0.026  0.00  0.00     0.085 H 
ATOM     11  H2  <0> d           1.224   3.141   0.007  0.00  0.00     0.085 H 
ATOM     12  H3  <0> d           5.778  -0.251  -0.055  0.00  0.00     0.098 H 
ATOM     13  H6  <0> d          -0.936  -0.538   0.009  0.00  0.00     0.114 H 
ENDROOT
BRANCH   5  14
ATOM     14  N1  <0> d           3.765  -2.125  -0.045  0.00  0.00    -0.397 N 
ATOM     15  H4  <0> d           2.970  -2.680  -0.040  0.00  0.00     0.156 HD
ATOM     16  H5  <0> d           4.644  -2.536  -0.056  0.00  0.00     0.156 HD
ENDBRANCH   5  14
TORSDOF 1
