REMARK  2 active torsions:
REMARK  status: ('A' for Active; 'I' for Inactive)
REMARK    1  A    between atoms: C5_5  and  C7_7 
REMARK    2  A    between atoms: C7_7  and  C8_8 
ROOT
ATOM      1  C8  <0> d          -0.013   1.086   0.008  0.00  0.00     0.018 C 
ATOM      2  C9  <0> d          -0.725   1.573  -1.185  0.00  0.00     0.059 C 
ATOM      3  N1  <0> d          -1.274   1.950  -2.105  0.00  0.00    -0.197 NA
ATOM      4  H7  <0> d           1.019   1.466   0.000  0.00  0.00     0.055 H 
ATOM      5  H8  <0> d           0.002  -0.014   0.002  0.00  0.00     0.055 H 
ENDROOT
BRANCH   1   6
ATOM      6  C7  <0> d          -0.729   1.579   1.267  0.00  0.00    -0.027 C 
ATOM      7  H5  <0> d          -1.761   1.198   1.275  0.00  0.00     0.041 H 
ATOM      8  H6  <0> d          -0.744   2.679   1.273  0.00  0.00     0.041 H 
BRANCH   6   9
ATOM      9  C5  <0> d           0.000   1.080   2.488  0.00  0.00    -0.019 A 
ATOM     10  C4  <0> d           1.081   1.787   2.986  0.00  0.00     0.122 A 
ATOM     11  C3  <0> d           1.750   1.327   4.108  0.00  0.00    -0.045 A 
ATOM     12  F1  <0> d           1.482   2.925   2.379  0.00  0.00    -0.206 F 
ATOM     13  C2  <0> d           1.338   0.163   4.729  0.00  0.00    -0.080 A 
ATOM     14  H3  <0> d           2.593   1.878   4.498  0.00  0.00     0.088 H 
ATOM     15  C1  <0> d           0.258  -0.542   4.230  0.00  0.00    -0.082 A 
ATOM     16  H2  <0> d           1.859  -0.196   5.604  0.00  0.00     0.083 H 
ATOM     17  C6  <0> d          -0.414  -0.081   3.114  0.00  0.00    -0.074 A 
ATOM     18  H1  <0> d          -0.063  -1.452   4.716  0.00  0.00     0.083 H 
ATOM     19  H4  <0> d          -1.260  -0.630   2.727  0.00  0.00     0.084 H 
ENDBRANCH   6   9
ENDBRANCH   1   6
TORSDOF 2
