REMARK  3 active torsions:
REMARK  status: ('A' for Active; 'I' for Inactive)
REMARK    1  A    between atoms: C1_1  and  C2_2 
REMARK    2  A    between atoms: C4_5  and  C10_14 
REMARK    3  A    between atoms: C6_7  and  C9_13 
ROOT
ATOM      1  C2  <0> d           1.420   2.003  -0.001  0.00  0.00    -0.038 C 
ATOM      2  H1  <0> d           1.911   1.753   0.940  0.00  0.00     0.042 H 
ATOM      3  C3  <0> d           1.369   3.523  -0.172  0.00  0.00    -0.041 C 
ATOM      4  C4  <0> d           0.401   4.121   0.806  0.00  0.00    -0.087 C 
ATOM      5  C5  <0> d          -0.507   3.445   1.434  0.00  0.00    -0.096 C 
ATOM      6  C6  <0> d          -0.710   1.966   1.281  0.00  0.00    -0.025 C 
ATOM      7  H2  <0> d          -0.291   1.452   2.146  0.00  0.00     0.047 H 
ATOM      8  C7  <0> d          -0.018   1.468   0.010  0.00  0.00     0.040 C 
ATOM      9  H3  <0> d          -0.551   1.832  -0.868  0.00  0.00     0.064 H 
ATOM     10  C8  <0> d           0.002  -0.004   0.002  0.00  0.00     0.065 C 
ATOM     11  N1  <0> d           0.018  -1.140  -0.004  0.00  0.00    -0.197 NA
ATOM     12  H7  <0> d           2.361   3.939   0.001  0.00  0.00     0.040 H 
ATOM     13  H8  <0> d           1.051   3.762  -1.187  0.00  0.00     0.040 H 
ATOM     14  H9  <0> d          -1.157   3.978   2.112  0.00  0.00     0.077 H 
ENDROOT
BRANCH   1  15
ATOM     15  C1  <0> d           2.192   1.380  -1.165  0.00  0.00    -0.071 C 
ATOM     16  H4  <0> d           1.703   1.637  -2.105  0.00  0.00     0.028 H 
ATOM     17  H5  <0> d           3.212   1.762  -1.170  0.00  0.00     0.028 H 
ATOM     18  H6  <0> d           2.210   0.296  -1.050  0.00  0.00     0.028 H 
ENDBRANCH   1  15
BRANCH   6  19
ATOM     19  C9  <0> d          -2.208   1.667   1.193  0.00  0.00    -0.068 C 
ATOM     20  H10 <0> d          -2.358   0.592   1.093  0.00  0.00     0.028 H 
ATOM     21  H11 <0> d          -2.703   2.021   2.097  0.00  0.00     0.028 H 
ATOM     22  H12 <0> d          -2.630   2.174   0.325  0.00  0.00     0.028 H 
ENDBRANCH   6  19
BRANCH   4  23
ATOM     23  C10 <0> d           0.490   5.601   1.073  0.00  0.00    -0.055 C 
ATOM     24  H13 <0> d          -0.151   6.137   0.372  0.00  0.00     0.033 H 
ATOM     25  H14 <0> d           0.165   5.807   2.093  0.00  0.00     0.033 H 
ATOM     26  H15 <0> d           1.521   5.932   0.947  0.00  0.00     0.033 H 
ENDBRANCH   4  23
TORSDOF 3
