REMARK  1 active torsions:
REMARK  status: ('A' for Active; 'I' for Inactive)
REMARK    1  A    between atoms: C3_4  and  C4_6 
ROOT
ATOM      1  C1  <0> d          -0.973   1.702  -1.027  0.00  0.00    -0.011 C 
ATOM      2  C2  <0> d          -2.024   1.674   0.099  0.00  0.00     0.024 C 
ATOM      3  O1  <0> d          -0.893   1.652   1.000  0.00  0.00    -0.375 OA
ATOM      4  C3  <0> d          -0.013   1.086   0.008  0.00  0.00     0.123 C 
ATOM      5  H1  <0> d           0.002  -0.004   0.002  0.00  0.00     0.100 H 
ATOM      6  H2  <0> d          -0.694   2.707  -1.343  0.00  0.00     0.040 H 
ATOM      7  H3  <0> d          -1.203   1.040  -1.862  0.00  0.00     0.040 H 
ATOM      8  H4  <0> d          -2.623   2.583   0.166  0.00  0.00     0.074 H 
ATOM      9  H5  <0> d          -2.623   0.764   0.121  0.00  0.00     0.074 H 
ENDROOT
BRANCH   4  10
ATOM     10  C4  <0> d           1.366   1.694  -0.002  0.00  0.00     0.203 C 
ATOM     11  O2  <0> d           1.747   2.343   0.944  0.00  0.00    -0.646 OA
ATOM     12  O3  <0> d           2.171   1.516  -1.061  0.00  0.00    -0.646 OA
ENDBRANCH   4  10
TORSDOF 1
