REMARK  2 active torsions:
REMARK  status: ('A' for Active; 'I' for Inactive)
REMARK    1  A    between atoms: C1_1  and  C2_2 
REMARK    2  A    between atoms: C4_4  and  C5_7 
ROOT
ATOM      1  C2  <0> d           1.194   1.712  -0.000  0.00  0.00    -0.013 A 
ATOM      2  C3  <0> d          -0.013   1.076   0.008  0.00  0.00    -0.057 A 
ATOM      3  C4  <0> d          -1.236   1.679   0.017  0.00  0.00    -0.013 A 
ATOM      4  S1  <0> d          -1.014   3.401   0.029  0.00  0.00    -0.058 SA
ATOM      5  S2  <0> d           0.925   3.427   0.011  0.00  0.00    -0.058 SA
ATOM      6  H4  <0> d           0.002  -0.004   0.002  0.00  0.00     0.086 H 
ENDROOT
BRANCH   1   7
ATOM      7  C1  <0> d           2.541   1.037  -0.015  0.00  0.00    -0.045 C 
ATOM      8  H1  <0> d           2.857   0.879  -1.047  0.00  0.00     0.034 H 
ATOM      9  H2  <0> d           3.270   1.667   0.495  0.00  0.00     0.034 H 
ATOM     10  H3  <0> d           2.472   0.076   0.495  0.00  0.00     0.034 H 
ENDBRANCH   1   7
BRANCH   3  11
ATOM     11  C5  <0> d          -2.564   0.968   0.020  0.00  0.00    -0.045 C 
ATOM     12  H5  <0> d          -2.854   0.805   0.963  0.00  0.00     0.034 H 
ATOM     13  H6  <0> d          -3.308   1.583  -0.487  0.00  0.00     0.034 H 
ATOM     14  H7  <0> d          -2.467   0.014  -0.500  0.00  0.00     0.034 H 
ENDBRANCH   3  11
TORSDOF 2
