REMARK  2 active torsions:
REMARK  status: ('A' for Active; 'I' for Inactive)
REMARK    1  A    between atoms: C9_10  and  C10_11 
REMARK    2  A    between atoms: C10_11  and  O1_12 
ROOT
ATOM      1  C1  <0> d          -0.016   1.357   0.009  0.00  0.00    -0.082 A 
ATOM      2  C2  <0> d           1.167   2.093   0.002  0.00  0.00    -0.082 A 
ATOM      3  C3  <0> d           2.380   1.473  -0.013  0.00  0.00    -0.071 A 
ATOM      4  C4  <0> d           2.438   0.072  -0.021  0.00  0.00    -0.015 A 
ATOM      5  C5  <0> d           1.233  -0.679  -0.013  0.00  0.00    -0.008 A 
ATOM      6  C6  <0> d           0.002  -0.004   0.002  0.00  0.00    -0.071 A 
ATOM      7  C7  <0> d           1.315  -2.080  -0.021  0.00  0.00     0.013 A 
ATOM      8  N1  <0> d           2.489  -2.667  -0.036  0.00  0.00    -0.272 NA
ATOM      9  C8  <0> d           3.629  -1.990  -0.043  0.00  0.00     0.011 A 
ATOM     10  C9  <0> d           3.658  -0.629  -0.037  0.00  0.00    -0.006 A 
ATOM     11  H1  <0> d          -0.964   1.876   0.026  0.00  0.00     0.083 H 
ATOM     12  H2  <0> d           1.123   3.172   0.008  0.00  0.00     0.083 H 
ATOM     13  H3  <0> d           3.289   2.055  -0.019  0.00  0.00     0.084 H 
ATOM     14  H4  <0> d          -0.923  -0.561   0.008  0.00  0.00     0.084 H 
ATOM     15  H5  <0> d           0.413  -2.675  -0.015  0.00  0.00     0.116 H 
ATOM     16  H6  <0> d           4.562  -2.534  -0.055  0.00  0.00     0.115 H 
ENDROOT
BRANCH  10  17
ATOM     17  C10 <0> d           4.969   0.113  -0.045  0.00  0.00     0.043 C 
ATOM     18  H7  <0> d           5.024   0.744  -0.932  0.00  0.00     0.081 H 
ATOM     19  H8  <0> d           5.041   0.734   0.847  0.00  0.00     0.081 H 
BRANCH  17  20
ATOM     20  O1  <0> d           6.047  -0.826  -0.061  0.00  0.00    -0.396 OA
ATOM     21  H9  <0> d           6.924  -0.418  -0.067  0.00  0.00     0.209 HD
ENDBRANCH  17  20
ENDBRANCH  10  17
TORSDOF 2
