REMARK  4 active torsions:
REMARK  status: ('A' for Active; 'I' for Inactive)
REMARK    1  A    between atoms: C1_1  and  C2_2 
REMARK    2  A    between atoms: C7_7  and  N1_8 
REMARK    3  A    between atoms: N1_8  and  C8_9 
REMARK    4  A    between atoms: N1_8  and  C9_10 
ROOT
ATOM      1  C2  <0> d           0.002  -0.004   0.002  0.00  0.00    -0.041 A 
ATOM      2  C3  <0> d           1.208  -0.677  -0.013  0.00  0.00    -0.075 A 
ATOM      3  C4  <0> d           2.396   0.031  -0.021  0.00  0.00    -0.082 A 
ATOM      4  C5  <0> d           2.381   1.414  -0.013  0.00  0.00    -0.081 A 
ATOM      5  C6  <0> d           1.179   2.092   0.002  0.00  0.00    -0.062 A 
ATOM      6  C7  <0> d          -0.017   1.385   0.010  0.00  0.00     0.015 A 
ATOM      7  H4  <0> d           1.224  -1.757  -0.019  0.00  0.00     0.084 H 
ATOM      8  H5  <0> d           3.338  -0.498  -0.033  0.00  0.00     0.083 H 
ATOM      9  H6  <0> d           3.311   1.963  -0.019  0.00  0.00     0.083 H 
ATOM     10  H7  <0> d           1.168   3.172   0.008  0.00  0.00     0.086 H 
ENDROOT
BRANCH   6  11
ATOM     11  N1  <0> d          -1.235   2.068   0.019  0.00  0.00    -0.291 NA
BRANCH  11  12
ATOM     12  C8  <0> d          -1.353   2.917   1.212  0.00  0.00    -0.029 C 
ATOM     13  H8  <0> d          -0.543   3.647   1.220  0.00  0.00     0.048 H 
ATOM     14  H9  <0> d          -2.310   3.438   1.194  0.00  0.00     0.048 H 
ATOM     15  H10 <0> d          -1.293   2.297   2.107  0.00  0.00     0.048 H 
ENDBRANCH  11  12
BRANCH  11  16
ATOM     16  C9  <0> d          -1.405   2.858  -1.208  0.00  0.00    -0.029 C 
ATOM     17  H11 <0> d          -1.383   2.194  -2.073  0.00  0.00     0.048 H 
ATOM     18  H12 <0> d          -2.361   3.380  -1.174  0.00  0.00     0.048 H 
ATOM     19  H13 <0> d          -0.597   3.585  -1.287  0.00  0.00     0.048 H 
ENDBRANCH  11  16
ENDBRANCH   6  11
BRANCH   1  20
ATOM     20  C1  <0> d          -1.292  -0.776   0.010  0.00  0.00    -0.050 C 
ATOM     21  H1  <0> d          -1.614  -0.957  -1.016  0.00  0.00     0.033 H 
ATOM     22  H2  <0> d          -1.144  -1.729   0.517  0.00  0.00     0.033 H 
ATOM     23  H3  <0> d          -2.055  -0.201   0.534  0.00  0.00     0.033 H 
ENDBRANCH   1  20
TORSDOF 4
