REMARK  0 active torsions:
REMARK  status: ('A' for Active; 'I' for Inactive)
ROOT
ATOM      1  C1  <0> d          -0.016   1.344   0.009  0.00  0.00    -0.065 A 
ATOM      2  C2  <0> d           1.322   1.784  -0.001  0.00  0.00    -0.044 A 
ATOM      3  C3  <0> d           2.109   0.688  -0.014  0.00  0.00     0.103 A 
ATOM      4  N1  <0> d           1.304  -0.413  -0.013  0.00  0.00    -0.357 N 
ATOM      5  H1  <0> d           1.607  -1.335  -0.021  0.00  0.00     0.166 HD
ATOM      6  C4  <0> d           0.002  -0.004   0.002  0.00  0.00    -0.022 A 
ATOM      7 Cl1  <0> d           3.845   0.679  -0.032  0.00  0.00    -0.065 Cl
ATOM      8  H2  <0> d          -0.895   1.971   0.025  0.00  0.00     0.085 H 
ATOM      9  H3  <0> d           1.658   2.811   0.001  0.00  0.00     0.088 H 
ATOM     10  H4  <0> d          -0.864  -0.649   0.007  0.00  0.00     0.111 H 
ENDROOT
TORSDOF 0
