REMARK  3 active torsions:
REMARK  status: ('A' for Active; 'I' for Inactive)
REMARK    1  A    between atoms: C4_4  and  C7_7 
REMARK    2  A    between atoms: C7_7  and  C8_9 
REMARK    3  A    between atoms: C8_9  and  C9_10 
ROOT
ATOM      1  C1  <0> d          -0.017   1.378   0.010  0.00  0.00    -0.083 A 
ATOM      2  C2  <0> d           1.171   2.086   0.002  0.00  0.00    -0.082 A 
ATOM      3  C3  <0> d           2.377   1.411  -0.013  0.00  0.00    -0.074 A 
ATOM      4  C4  <0> d           2.396   0.029  -0.020  0.00  0.00    -0.025 A 
ATOM      5  C5  <0> d           1.208  -0.679  -0.012  0.00  0.00    -0.074 A 
ATOM      6  C6  <0> d           0.002  -0.004   0.002  0.00  0.00    -0.082 A 
ATOM      7  H2  <0> d          -0.959   1.905   0.026  0.00  0.00     0.083 H 
ATOM      8  H3  <0> d           1.156   3.165   0.008  0.00  0.00     0.083 H 
ATOM      9  H4  <0> d           3.305   1.963  -0.020  0.00  0.00     0.084 H 
ATOM     10  H5  <0> d           1.223  -1.759  -0.018  0.00  0.00     0.084 H 
ATOM     11  H6  <0> d          -0.926  -0.557   0.008  0.00  0.00     0.083 H 
ENDROOT
BRANCH   4  12
ATOM     12  C7  <0> d           3.711  -0.707  -0.038  0.00  0.00     0.106 C 
ATOM     13  H1  <0> d           4.529   0.009   0.047  0.00  0.00     0.099 H 
ATOM     14  F2  <0> d           3.760  -1.600   1.038  0.00  0.00    -0.244 F 
BRANCH  12  15
ATOM     15  C8  <0> d           3.845  -1.482  -1.350  0.00  0.00    -0.008 C 
ATOM     16  H7  <0> d           3.080  -2.257  -1.394  0.00  0.00     0.041 H 
ATOM     17  H8  <0> d           3.718  -0.798  -2.190  0.00  0.00     0.041 H 
BRANCH  15  18
ATOM     18  C9  <0> d           5.230  -2.127  -1.423  0.00  0.00     0.061 C 
ATOM     19  F1  <0> d           5.353  -2.835  -2.623  0.00  0.00    -0.255 F 
ATOM     20  H9  <0> d           5.995  -1.351  -1.379  0.00  0.00     0.082 H 
ATOM     21  H10 <0> d           5.357  -2.810  -0.583  0.00  0.00     0.082 H 
ENDBRANCH  15  18
ENDBRANCH  12  15
ENDBRANCH   4  12
TORSDOF 3
