REMARK  5 active torsions:
REMARK  status: ('A' for Active; 'I' for Inactive)
REMARK    1  A    between atoms: C1_1  and  O1_2 
REMARK    2  A    between atoms: O1_2  and  C2_3 
REMARK    3  A    between atoms: C5_6  and  C8_10 
REMARK    4  A    between atoms: C7_8  and  O2_9 
REMARK    5  A    between atoms: C8_10  and  O3_11 
ROOT
ATOM      1  C2  <0> d          -2.011   2.470   3.526  0.00  0.00     0.101 A 
ATOM      2  C3  <0> d          -1.006   3.232   2.952  0.00  0.00    -0.047 A 
ATOM      3  C4  <0> d          -0.359   2.779   1.817  0.00  0.00    -0.072 A 
ATOM      4  C5  <0> d          -0.718   1.572   1.248  0.00  0.00    -0.032 A 
ATOM      5  C6  <0> d          -1.719   0.807   1.817  0.00  0.00    -0.040 A 
ATOM      6  C7  <0> d          -2.369   1.252   2.957  0.00  0.00     0.099 A 
ATOM      7  H4  <0> d          -0.727   4.178   3.392  0.00  0.00     0.087 H 
ATOM      8  H5  <0> d           0.427   3.372   1.373  0.00  0.00     0.084 H 
ATOM      9  H6  <0> d          -1.995  -0.138   1.372  0.00  0.00     0.088 H 
ENDROOT
BRANCH   1  10
ATOM     10  O1  <0> d          -2.646   2.912   4.645  0.00  0.00    -0.353 OA
BRANCH  10  11
ATOM     11  C1  <0> d          -2.226   4.171   5.175  0.00  0.00     0.010 C 
ATOM     12  H1  <0> d          -1.170   4.120   5.439  0.00  0.00     0.066 H 
ATOM     13  H2  <0> d          -2.377   4.948   4.426  0.00  0.00     0.066 H 
ATOM     14  H3  <0> d          -2.812   4.404   6.064  0.00  0.00     0.066 H 
ENDBRANCH  10  11
ENDBRANCH   1  10
BRANCH   6  15
ATOM     15  O2  <0> d          -3.354   0.501   3.517  0.00  0.00    -0.358 OA
ATOM     16  H7  <0> d          -3.040  -0.128   4.181  0.00  0.00     0.217 HD
ENDBRANCH   6  15
BRANCH   4  17
ATOM     17  C8  <0> d          -0.013   1.086   0.008  0.00  0.00     0.041 C 
ATOM     18  H8  <0> d           0.002  -0.004   0.002  0.00  0.00     0.081 H 
ATOM     19  H9  <0> d           1.010   1.463   0.000  0.00  0.00     0.081 H 
BRANCH  17  20
ATOM     20  O3  <0> d          -0.704   1.559  -1.150  0.00  0.00    -0.396 OA
ATOM     21  H10 <0> d          -0.304   1.284  -1.986  0.00  0.00     0.209 HD
ENDBRANCH  17  20
ENDBRANCH   4  17
TORSDOF 5
