REMARK  3 active torsions:
REMARK  status: ('A' for Active; 'I' for Inactive)
REMARK    1  A    between atoms: C1_1  and  C2_2 
REMARK    2  A    between atoms: C2_2  and  C3_3 
REMARK    3  A    between atoms: C2_2  and  C4_4 
ROOT
ATOM      1  C4  <0> d          -1.412  -0.526   0.013  0.00  0.00     0.058 A 
ATOM      2  C5  <0> d          -1.646  -1.907  -0.093  0.00  0.00    -0.052 A 
ATOM      3  C6  <0> d          -2.939  -2.347  -0.080  0.00  0.00    -0.014 A 
ATOM      4  C7  <0> d          -3.963  -1.382   0.040  0.00  0.00     0.261 A 
ATOM      5  O1  <0> d          -5.134  -1.724   0.057  0.00  0.00    -0.267 OA
ATOM      6  N1  <0> d          -3.632  -0.080   0.135  0.00  0.00    -0.243 N 
ATOM      7  H1  <0> d          -4.337   0.582   0.217  0.00  0.00     0.192 HD
ATOM      8  N2  <0> d          -2.409   0.308   0.125  0.00  0.00    -0.176 NA
ATOM      9  H9  <0> d          -0.825  -2.603  -0.183  0.00  0.00     0.086 H 
ATOM     10  H10 <0> d          -3.171  -3.399  -0.158  0.00  0.00     0.092 H 
ENDROOT
BRANCH   1  11
ATOM     11  C2  <0> d           0.002  -0.004   0.002  0.00  0.00    -0.017 C 
ATOM     12  H5  <0> d           0.512  -0.356  -0.895  0.00  0.00     0.048 H 
BRANCH  11  13
ATOM     13  C1  <0> d          -0.019   1.526   0.010  0.00  0.00    -0.068 C 
ATOM     14  H2  <0> d           1.004   1.903   0.003  0.00  0.00     0.028 H 
ATOM     15  H3  <0> d          -0.546   1.887  -0.873  0.00  0.00     0.028 H 
ATOM     16  H4  <0> d          -0.529   1.877   0.907  0.00  0.00     0.028 H 
ENDBRANCH  11  13
BRANCH  11  17
ATOM     17  C3  <0> d           0.742  -0.511   1.242  0.00  0.00    -0.068 C 
ATOM     18  H6  <0> d           0.757  -1.601   1.236  0.00  0.00     0.028 H 
ATOM     19  H7  <0> d           1.765  -0.134   1.234  0.00  0.00     0.028 H 
ATOM     20  H8  <0> d           0.232  -0.159   2.138  0.00  0.00     0.028 H 
ENDBRANCH  11  17
ENDBRANCH   1  11
TORSDOF 3
