REMARK  3 active torsions:
REMARK  status: ('A' for Active; 'I' for Inactive)
REMARK    1  A    between atoms: C6_6  and  C7_7 
REMARK    2  A    between atoms: C7_7  and  C8_9 
REMARK    3  A    between atoms: C8_9  and  N1_10 
ROOT
ATOM      1  C1  <0> d          -0.017   1.395   0.010  0.00  0.00    -0.067 A 
ATOM      2  C2  <0> d           1.168   2.097   0.002  0.00  0.00    -0.045 A 
ATOM      3  C3  <0> d           2.379   1.420  -0.013  0.00  0.00     0.116 A 
ATOM      4  C4  <0> d           2.405   0.033  -0.021  0.00  0.00    -0.045 A 
ATOM      5  C5  <0> d           1.227  -0.681  -0.014  0.00  0.00    -0.067 A 
ATOM      6  C6  <0> d           0.002  -0.004   0.002  0.00  0.00     0.012 A 
ATOM      7  F1  <0> d           3.538   2.114  -0.020  0.00  0.00    -0.206 F 
ATOM      8  H1  <0> d          -0.959   1.924   0.026  0.00  0.00     0.085 H 
ATOM      9  H2  <0> d           1.155   3.177   0.008  0.00  0.00     0.088 H 
ATOM     10  H3  <0> d           3.351  -0.488  -0.033  0.00  0.00     0.088 H 
ATOM     11  H4  <0> d           1.248  -1.761  -0.021  0.00  0.00     0.085 H 
ENDROOT
BRANCH   6  12
ATOM     12  C7  <0> d          -1.259  -0.760   0.011  0.00  0.00     0.187 C 
ATOM     13  O1  <0> d          -2.319  -0.170   0.024  0.00  0.00    -0.290 OA
BRANCH  12  14
ATOM     14  C8  <0> d          -1.235  -2.266   0.002  0.00  0.00     0.167 C 
ATOM     15  H5  <0> d          -0.724  -2.617  -0.895  0.00  0.00     0.091 H 
ATOM     16  H6  <0> d          -0.706  -2.626   0.885  0.00  0.00     0.091 H 
BRANCH  14  17
ATOM     17  N1  <0> d          -2.612  -2.778   0.013  0.00  0.00     0.085 N 
ATOM     18  H7  <0> d          -3.142  -2.407  -0.761  0.00  0.00     0.313 HD
ATOM     19  H8  <0> d          -2.622  -3.787   0.008  0.00  0.00     0.313 HD
ENDBRANCH  14  17
ENDBRANCH  12  14
ENDBRANCH   6  12
TORSDOF 3
