REMARK  3 active torsions:
REMARK  status: ('A' for Active; 'I' for Inactive)
REMARK    1  A    between atoms: C1_1  and  C2_2 
REMARK    2  A    between atoms: C3_3  and  O1_8 
REMARK    3  A    between atoms: O1_8  and  C7_9 
ROOT
ATOM      1  C2  <0> d           0.040   3.799   0.022  0.00  0.00     0.063 A 
ATOM      2  C3  <0> d          -1.187   3.151   0.031  0.00  0.00     0.092 A 
ATOM      3  C4  <0> d          -1.217   1.760   0.017  0.00  0.00    -0.047 A 
ATOM      4  C5  <0> d          -0.013   1.076   0.008  0.00  0.00    -0.063 A 
ATOM      5  C6  <0> d           1.170   1.791   0.001  0.00  0.00     0.003 A 
ATOM      6  N1  <0> d           1.164   3.110   0.007  0.00  0.00    -0.263 NA
ATOM      7  H4  <0> d          -2.157   1.227   0.018  0.00  0.00     0.087 H 
ATOM      8  H5  <0> d           0.002  -0.004   0.002  0.00  0.00     0.085 H 
ATOM      9  H6  <0> d           2.112   1.263  -0.011  0.00  0.00     0.114 H 
ENDROOT
BRANCH   2  10
ATOM     10  O1  <0> d          -2.343   3.865   0.047  0.00  0.00    -0.354 OA
BRANCH  10  11
ATOM     11  C7  <0> d          -3.564   3.123   0.055  0.00  0.00     0.010 C 
ATOM     12  H7  <0> d          -4.416   3.819   0.068  0.00  0.00     0.066 H 
ATOM     13  H8  <0> d          -3.599   2.485   0.950  0.00  0.00     0.066 H 
ATOM     14  H9  <0> d          -3.618   2.494  -0.846  0.00  0.00     0.066 H 
ENDBRANCH  10  11
ENDBRANCH   2  10
BRANCH   1  15
ATOM     15  C1  <0> d           0.088   5.305   0.029  0.00  0.00    -0.033 C 
ATOM     16  H1  <0> d          -0.936   5.705   0.041  0.00  0.00     0.035 H 
ATOM     17  H2  <0> d           0.610   5.659  -0.873  0.00  0.00     0.035 H 
ATOM     18  H3  <0> d           0.627   5.650   0.924  0.00  0.00     0.035 H 
ENDBRANCH   1  15
TORSDOF 3
