REMARK  4 active torsions:
REMARK  status: ('A' for Active; 'I' for Inactive)
REMARK    1  A    between atoms: C1_1  and  C2_2 
REMARK    2  A    between atoms: C2_2  and  C3_3 
REMARK    3  A    between atoms: C4_5  and  O3_13 
REMARK    4  A    between atoms: C5_7  and  O2_12 
ROOT
ATOM      1  C3  <0> d           0.718  -0.497  -1.257  0.00  0.00     0.071 C 
ATOM      2  H1  <0> d           0.247  -0.067  -2.140  0.00  0.00     0.088 H 
ATOM      3  C4  <0> d           0.646  -2.029  -1.327  0.00  0.00     0.089 C 
ATOM      4  H2  <0> d          -0.396  -2.349  -1.327  0.00  0.00     0.091 H 
ATOM      5  C5  <0> d           1.326  -2.481  -2.624  0.00  0.00     0.081 C 
ATOM      6  H3  <0> d           0.685  -2.242  -3.472  0.00  0.00     0.093 H 
ATOM      7  C6  <0> d           2.643  -1.768  -2.773  0.00  0.00    -0.052 C 
ATOM      8  C7  <0> d           2.936  -0.687  -2.100  0.00  0.00     0.012 C 
ATOM      9  O1  <0> d           2.096  -0.115  -1.209  0.00  0.00    -0.355 OA
ATOM     10  H9  <0> d           3.373  -2.166  -3.462  0.00  0.00     0.083 H 
ATOM     11  H10 <0> d           3.898  -0.226  -2.265  0.00  0.00     0.122 H 
ENDROOT
BRANCH   1  12
ATOM     12  C2  <0> d           0.002  -0.004   0.002  0.00  0.00    -0.041 C 
ATOM     13  H7  <0> d           0.529  -0.365   0.885  0.00  0.00     0.036 H 
ATOM     14  H8  <0> d          -1.020  -0.381   0.010  0.00  0.00     0.036 H 
BRANCH  12  15
ATOM     15  C1  <0> d          -0.019   1.526   0.010  0.00  0.00    -0.074 C 
ATOM     16  H4  <0> d           1.004   1.903   0.003  0.00  0.00     0.027 H 
ATOM     17  H5  <0> d          -0.546   1.887  -0.873  0.00  0.00     0.027 H 
ATOM     18  H6  <0> d          -0.529   1.877   0.907  0.00  0.00     0.027 H 
ENDBRANCH  12  15
ENDBRANCH   1  12
BRANCH   3  19
ATOM     19  O3  <0> d           1.323  -2.596  -0.203  0.00  0.00    -0.390 OA
ATOM     20  H12 <0> d           1.315  -3.563  -0.186  0.00  0.00     0.210 HD
ENDBRANCH   3  19
BRANCH   5  21
ATOM     21  O2  <0> d           1.550  -3.891  -2.578  0.00  0.00    -0.389 OA
ATOM     22  H11 <0> d           1.979  -4.247  -3.369  0.00  0.00     0.210 HD
ENDBRANCH   5  21
TORSDOF 4
