REMARK  1 active torsions:
REMARK  status: ('A' for Active; 'I' for Inactive)
REMARK    1  A    between atoms: C2_2  and  C4_8 
ROOT
ATOM      1  C1  <0> d           1.656   2.417   1.428  0.00  0.00     0.025 A 
ATOM      2  C2  <0> d           1.280   1.975   0.000  0.00  0.00     0.113 A 
ATOM      3  H1  <0> d           1.206   2.839  -0.660  0.00  0.00     0.092 H 
ATOM      4  N1  <0> d           2.395   1.108  -0.408  0.00  0.00    -0.327 N 
ATOM      5  C3  <0> d           3.284   1.036   0.596  0.00  0.00     0.316 A 
ATOM      6  O1  <0> d           4.307   0.383   0.528  0.00  0.00    -0.247 OA
ATOM      7  N2  <0> d           2.943   1.750   1.676  0.00  0.00    -0.341 N 
ATOM      8  H2  <0> d           1.770   3.500   1.476  0.00  0.00     0.068 H 
ATOM      9  H3  <0> d           0.905   2.081   2.143  0.00  0.00     0.068 H 
ATOM     10  H4  <0> d           2.474   0.660  -1.265  0.00  0.00     0.165 HD
ATOM     11  H5  <0> d           3.463   1.818   2.492  0.00  0.00     0.164 HD
ENDROOT
BRANCH   2  12
ATOM     12  C4  <0> d          -0.014   1.204   0.009  0.00  0.00     0.198 C 
ATOM     13  O2  <0> d           0.002  -0.004   0.002  0.00  0.00    -0.646 OA
ATOM     14  O3  <0> d          -1.186   1.859   0.018  0.00  0.00    -0.646 OA
ENDBRANCH   2  12
TORSDOF 1
