REMARK  2 active torsions:
REMARK  status: ('A' for Active; 'I' for Inactive)
REMARK    1  A    between atoms: C1_1  and  O1_2 
REMARK    2  A    between atoms: O1_2  and  C2_3 
ROOT
ATOM      1  C2  <0> d           3.727  -0.548   1.677  0.00  0.00     0.071 A 
ATOM      2  C3  <0> d           2.884  -1.649   1.679  0.00  0.00    -0.048 A 
ATOM      3  C4  <0> d           1.616  -1.553   1.136  0.00  0.00    -0.045 A 
ATOM      4  C5  <0> d           1.184  -0.356   0.589  0.00  0.00     0.105 A 
ATOM      5  C6  <0> d           2.029   0.752   0.587  0.00  0.00     0.107 A 
ATOM      6  C7  <0> d           3.299   0.652   1.131  0.00  0.00    -0.016 A 
ATOM      7  O2  <0> d           1.376   1.797  -0.001  0.00  0.00    -0.323 OA
ATOM      8  C8  <0> d          -0.018   1.436   0.010  0.00  0.00     0.115 C 
ATOM      9  O3  <0> d           0.002  -0.004   0.002  0.00  0.00    -0.323 OA
ATOM     10  H4  <0> d           3.218  -2.584   2.105  0.00  0.00     0.087 H 
ATOM     11  H5  <0> d           0.962  -2.412   1.139  0.00  0.00     0.088 H 
ATOM     12  H6  <0> d           3.955   1.510   1.130  0.00  0.00     0.092 H 
ATOM     13  H7  <0> d          -0.519   1.817  -0.880  0.00  0.00     0.118 H 
ATOM     14  H8  <0> d          -0.502   1.807   0.913  0.00  0.00     0.118 H 
ENDROOT
BRANCH   1  15
ATOM     15  O1  <0> d           4.973  -0.645   2.212  0.00  0.00    -0.356 OA
BRANCH  15  16
ATOM     16  C1  <0> d           5.348  -1.912   2.758  0.00  0.00     0.010 C 
ATOM     17  H1  <0> d           5.304  -2.671   1.977  0.00  0.00     0.066 H 
ATOM     18  H2  <0> d           6.363  -1.852   3.150  0.00  0.00     0.066 H 
ATOM     19  H3  <0> d           4.662  -2.178   3.563  0.00  0.00     0.066 H 
ENDBRANCH  15  16
ENDBRANCH   1  15
TORSDOF 2
