REMARK  3 active torsions:
REMARK  status: ('A' for Active; 'I' for Inactive)
REMARK    1  A    between atoms: C1_1  and  C2_2 
REMARK    2  A    between atoms: C2_2  and  C3_3 
REMARK    3  A    between atoms: C3_3  and  C4_4 
REMARK       I    between atoms: C4_4  and  N1_6 
ROOT
ATOM      1  C3  <0> d          -0.013   1.086   0.008  0.00  0.00     0.010 C 
ATOM      2  H6  <0> d           0.002  -0.004   0.002  0.00  0.00     0.047 H 
ATOM      3  H7  <0> d           1.010   1.463   0.000  0.00  0.00     0.047 H 
ENDROOT
BRANCH   1   4
ATOM      4  C2  <0> d          -0.753   1.593  -1.232  0.00  0.00    -0.060 C 
ATOM      5  H4  <0> d          -1.775   1.215  -1.224  0.00  0.00     0.033 H 
ATOM      6  H5  <0> d          -0.767   2.683  -1.226  0.00  0.00     0.033 H 
BRANCH   4   7
ATOM      7  C1  <0> d          -0.037   1.099  -2.490  0.00  0.00    -0.076 C 
ATOM      8  H1  <0> d          -0.564   1.460  -3.373  0.00  0.00     0.027 H 
ATOM      9  H2  <0> d           0.986   1.476  -2.498  0.00  0.00     0.027 H 
ATOM     10  H3  <0> d          -0.022   0.009  -2.496  0.00  0.00     0.027 H 
ENDBRANCH   4   7
ENDBRANCH   1   4
BRANCH   1  11
ATOM     11  C4  <0> d          -0.718   1.572   1.248  0.00  0.00     0.228 C 
ATOM     12  O1  <0> d          -1.711   2.254   1.150  0.00  0.00    -0.273 OA
ATOM     13  N1  <0> d          -0.242   1.246   2.466  0.00  0.00    -0.286 N 
ATOM     14  C7  <0> d           0.862   0.489   2.731  0.00  0.00     0.072 A 
ATOM     15  C5  <0> d          -0.772   1.618   3.679  0.00  0.00     0.006 A 
ATOM     16  N2  <0> d           0.999   0.396   4.023  0.00  0.00    -0.254 NA
ATOM     17  H10 <0> d           1.512   0.041   1.993  0.00  0.00     0.144 H 
ATOM     18  C6  <0> d           0.011   1.075   4.628  0.00  0.00     0.019 A 
ATOM     19  H9  <0> d          -0.129   1.172   5.695  0.00  0.00     0.117 H 
ATOM     20  H8  <0> d          -1.649   2.228   3.840  0.00  0.00     0.114 H 
ENDBRANCH   1  11
TORSDOF 3
