REMARK  0 active torsions:
REMARK  status: ('A' for Active; 'I' for Inactive)
ROOT
ATOM      1  C1  <0> d          -0.019   1.534   0.011  0.00  0.00    -0.063 C 
ATOM      2  C2  <0> d           1.519   1.479  -0.004  0.00  0.00    -0.050 C 
ATOM      3  C3  <0> d           1.394   0.092   0.640  0.00  0.00     0.041 C 
ATOM      4  C4  <0> d           0.002  -0.004   0.002  0.00  0.00    -0.050 C 
ATOM      5  C5  <0> d           2.388  -0.928   0.086  0.00  0.00    -0.048 C 
ATOM      6  C6  <0> d           2.214  -2.236   0.871  0.00  0.00    -0.049 C 
ATOM      7  C7  <0> d           2.614  -1.997   2.326  0.00  0.00    -0.005 C 
ATOM      8  N1  <0> d           1.910  -0.849   2.883  0.00  0.00    -0.360 N 
ATOM      9  C8  <0> d           1.369   0.123   2.141  0.00  0.00     0.226 C 
ATOM     10  O1  <0> d           0.841   1.062   2.699  0.00  0.00    -0.273 OA
ATOM     11  H1  <0> d          -0.431   1.960   0.925  0.00  0.00     0.033 H 
ATOM     12  H2  <0> d          -0.449   1.970  -0.891  0.00  0.00     0.033 H 
ATOM     13  H3  <0> d           1.945   1.457  -1.007  0.00  0.00     0.034 H 
ATOM     14  H4  <0> d           1.989   2.220   0.641  0.00  0.00     0.034 H 
ATOM     15  H5  <0> d          -0.747  -0.455   0.653  0.00  0.00     0.034 H 
ATOM     16  H6  <0> d           0.009  -0.435  -0.999  0.00  0.00     0.034 H 
ATOM     17  H7  <0> d           2.186  -1.104  -0.971  0.00  0.00     0.034 H 
ATOM     18  H8  <0> d           3.405  -0.557   0.211  0.00  0.00     0.034 H 
ATOM     19  H9  <0> d           1.172  -2.552   0.826  0.00  0.00     0.035 H 
ATOM     20  H10 <0> d           2.850  -3.008   0.440  0.00  0.00     0.035 H 
ATOM     21  H11 <0> d           2.373  -2.883   2.914  0.00  0.00     0.064 H 
ATOM     22  H12 <0> d           3.688  -1.817   2.377  0.00  0.00     0.064 H 
ATOM     23  H13 <0> d           1.829  -0.787   3.847  0.00  0.00     0.162 HD
ENDROOT
TORSDOF 0
