REMARK  5 active torsions:
REMARK  status: ('A' for Active; 'I' for Inactive)
REMARK    1  A    between atoms: C1_1  and  C2_2 
REMARK    2  A    between atoms: C2_2  and  C3_4 
REMARK    3  A    between atoms: C2_2  and  C5_9 
REMARK    4  A    between atoms: C3_4  and  C4_5 
REMARK    5  A    between atoms: C5_9  and  O1_10 
ROOT
ATOM      1  C2  <0> d           1.185   3.172  -0.044  0.00  0.00    -0.029 C 
ATOM      2  H1  <0> d           0.654   3.362  -0.977  0.00  0.00     0.043 H 
ENDROOT
BRANCH   1   3
ATOM      3  C1  <0> d           0.457   3.867   1.108  0.00  0.00    -0.071 C 
ATOM      4  H2  <0> d           0.330   4.923   0.873  0.00  0.00     0.028 H 
ATOM      5  H3  <0> d          -0.520   3.406   1.251  0.00  0.00     0.028 H 
ATOM      6  H4  <0> d           1.044   3.766   2.021  0.00  0.00     0.028 H 
ENDBRANCH   1   3
BRANCH   1   7
ATOM      7  C3  <0> d           2.611   3.716  -0.149  0.00  0.00     0.031 C 
ATOM      8  H5  <0> d           3.106   3.625   0.818  0.00  0.00     0.046 H 
ATOM      9  H6  <0> d           3.164   3.144  -0.895  0.00  0.00     0.046 H 
BRANCH   7  10
ATOM     10  C4  <0> d           2.566   5.188  -0.564  0.00  0.00     0.388 C 
ATOM     11  F1  <0> d           1.980   5.942   0.458  0.00  0.00    -0.171 F 
ATOM     12  F2  <0> d           3.867   5.647  -0.795  0.00  0.00    -0.171 F 
ATOM     13  F3  <0> d           1.810   5.320  -1.734  0.00  0.00    -0.171 F 
ENDBRANCH   7  10
ENDBRANCH   1   7
BRANCH   1  14
ATOM     14  C5  <0> d           1.232   1.665   0.217  0.00  0.00     0.020 C 
ATOM     15  H7  <0> d           1.683   1.479   1.191  0.00  0.00     0.074 H 
ATOM     16  H8  <0> d           1.826   1.180  -0.558  0.00  0.00     0.074 H 
BRANCH  14  17
ATOM     17  O1  <0> d          -0.096   1.137   0.199  0.00  0.00    -0.400 OA
ATOM     18  H9  <0> d          -0.143   0.184   0.358  0.00  0.00     0.209 HD
ENDBRANCH  14  17
ENDBRANCH   1  14
TORSDOF 5
