REMARK  2 active torsions:
REMARK  status: ('A' for Active; 'I' for Inactive)
REMARK    1  A    between atoms: C1_1  and  C2_2 
REMARK    2  A    between atoms: C2_2  and  C3_3 
ROOT
ATOM      1  C3  <0> d          -0.759   1.596  -1.226  0.00  0.00     0.032 C 
ATOM      2  H1  <0> d          -0.611   2.672  -1.321  0.00  0.00     0.075 H 
ATOM      3  C4  <0> d          -0.013   1.086   0.008  0.00  0.00     0.039 C 
ATOM      4  O1  <0> d          -0.689   1.551   1.182  0.00  0.00    -0.380 OA
ATOM      5  C5  <0> d          -1.976   0.947   1.358  0.00  0.00     0.093 C 
ATOM      6  C6  <0> d          -2.762   1.033   0.079  0.00  0.00     0.241 C 
ATOM      7  O2  <0> d          -3.959   0.842   0.114  0.00  0.00    -0.271 OA
ATOM      8  N1  <0> d          -2.187   1.313  -1.097  0.00  0.00    -0.353 N 
ATOM      9  H7  <0> d           0.002  -0.004   0.002  0.00  0.00     0.077 H 
ATOM     10  H8  <0> d           1.009   1.465   0.000  0.00  0.00     0.077 H 
ATOM     11  H9  <0> d          -2.515   1.466   2.150  0.00  0.00     0.089 H 
ATOM     12  H10 <0> d          -1.847  -0.100   1.634  0.00  0.00     0.089 H 
ATOM     13  H11 <0> d          -2.739   1.328  -1.894  0.00  0.00     0.163 HD
ENDROOT
BRANCH   1  14
ATOM     14  C2  <0> d          -0.214   0.898  -2.474  0.00  0.00    -0.048 C 
ATOM     15  H5  <0> d           0.865   1.042  -2.528  0.00  0.00     0.035 H 
ATOM     16  H6  <0> d          -0.437  -0.167  -2.422  0.00  0.00     0.035 H 
BRANCH  14  17
ATOM     17  C1  <0> d          -0.871   1.496  -3.720  0.00  0.00    -0.075 C 
ATOM     18  H2  <0> d          -1.950   1.353  -3.667  0.00  0.00     0.027 H 
ATOM     19  H3  <0> d          -0.648   2.562  -3.773  0.00  0.00     0.027 H 
ATOM     20  H4  <0> d          -0.482   0.999  -4.609  0.00  0.00     0.027 H 
ENDBRANCH  14  17
ENDBRANCH   1  14
TORSDOF 2
