REMARK  1 active torsions:
REMARK  status: ('A' for Active; 'I' for Inactive)
REMARK    1  A    between atoms: C4_5  and  N3_7 
ROOT
ATOM      1  C1  <0> d          -3.513   1.606   0.028  0.00  0.00     0.043 A 
ATOM      2  C2  <0> d          -3.532   3.002   0.036  0.00  0.00     0.153 A 
ATOM      3  N1  <0> d          -2.386   3.683   0.034  0.00  0.00    -0.245 NA
ATOM      4  C3  <0> d          -1.239   3.039   0.030  0.00  0.00     0.047 A 
ATOM      5  C4  <0> d          -1.220   1.642   0.017  0.00  0.00     0.138 A 
ATOM      6  N2  <0> d          -2.361   0.962   0.018  0.00  0.00    -0.239 NA
ATOM      7  C5  <0> d          -4.782   3.701   0.047  0.00  0.00     0.121 C 
ATOM      8  N4  <0> d          -5.773   4.256   0.055  0.00  0.00    -0.190 NA
ATOM      9  H1  <0> d          -4.441   1.053   0.030  0.00  0.00     0.119 H 
ATOM     10  H2  <0> d          -0.310   3.591   0.033  0.00  0.00     0.120 H 
ENDROOT
BRANCH   5  11
ATOM     11  N3  <0> d          -0.011   0.966   0.007  0.00  0.00    -0.383 N 
ATOM     12  H3  <0> d           0.002  -0.004   0.002  0.00  0.00     0.157 HD
ATOM     13  H4  <0> d           0.822   1.462   0.002  0.00  0.00     0.157 HD
ENDBRANCH   5  11
TORSDOF 1
