REMARK  1 active torsions:
REMARK  status: ('A' for Active; 'I' for Inactive)
REMARK    1  A    between atoms: C2_2  and  N4_7 
ROOT
ATOM      1  C1  <0> d           1.302  -0.411  -0.012  0.00  0.00     0.068 A 
ATOM      2  C2  <0> d           2.049   0.724  -0.014  0.00  0.00     0.162 A 
ATOM      3  N1  <0> d           1.184   1.747   0.000  0.00  0.00    -0.138 NA
ATOM      4  N2  <0> d          -0.015   1.283   0.009  0.00  0.00    -0.195 N 
ATOM      5  N3  <0> d           0.002  -0.004   0.002  0.00  0.00    -0.166 NA
ATOM      6  H1  <0> d          -0.872   1.973   0.021  0.00  0.00     0.213 HD
ATOM      7  H2  <0> d           1.521  -1.387  -0.020  0.00  0.00     0.123 H 
ENDROOT
BRANCH   2   8
ATOM      8  N4  <0> d           3.451   0.808  -0.027  0.00  0.00    -0.381 N 
ATOM      9  H3  <0> d           4.057  -0.109  -0.037  0.00  0.00     0.157 HD
ATOM     10  H4  <0> d           3.943   1.792  -0.026  0.00  0.00     0.157 HD
ENDBRANCH   2   8
TORSDOF 1
