REMARK  0 active torsions:
REMARK  status: ('A' for Active; 'I' for Inactive)
ROOT
ATOM      1  C1  <0> d           3.402  -0.841  -0.035  0.00  0.00    -0.032 A 
ATOM      2  C2  <0> d           2.859  -2.118  -0.036  0.00  0.00     0.025 A 
ATOM      3  N1  <0> d           1.546  -2.026  -0.023  0.00  0.00    -0.179 NA
ATOM      4  N2  <0> d           1.190  -0.676  -0.013  0.00  0.00    -0.222 N 
ATOM      5  C3  <0> d           2.354   0.059  -0.020  0.00  0.00     0.118 A 
ATOM      6  C4  <0> d           2.252   1.468  -0.011  0.00  0.00     0.249 A 
ATOM      7  N3  <0> d           1.051   2.014   0.003  0.00  0.00    -0.118 NA
ATOM      8  N4  <0> d          -0.016   1.300   0.009  0.00  0.00    -0.141 NA
ATOM      9  C5  <0> d           0.002  -0.004   0.002  0.00  0.00     0.110 A 
ATOM     10  O1  <0> d           3.364   2.243  -0.018  0.00  0.00    -0.166 OA
ATOM     11  H1  <0> d           4.454  -0.596  -0.043  0.00  0.00     0.089 H 
ATOM     12  H2  <0> d           3.423  -3.039  -0.046  0.00  0.00     0.117 H 
ATOM     13  H3  <0> d          -0.927  -0.554   0.008  0.00  0.00     0.149 H 
ENDROOT
TORSDOF 0
