REMARK  7 active torsions:
REMARK  status: ('A' for Active; 'I' for Inactive)
REMARK    1  A    between atoms: C1_1  and  C2_2 
REMARK    2  A    between atoms: C2_2  and  C3_3 
REMARK    3  A    between atoms: C3_3  and  C4_4 
REMARK    4  A    between atoms: C4_4  and  C5_5 
REMARK    5  A    between atoms: C5_5  and  C6_6 
REMARK    6  A    between atoms: C6_6  and  N1_7 
REMARK       I    between atoms: N1_7  and  C7_8 
REMARK    7  A    between atoms: C7_8  and  C8_10 
ROOT
ATOM      1  C5  <0> d           3.571   2.193  -0.020  0.00  0.00    -0.050 C 
ATOM      2  H10 <0> d           3.497   2.824  -0.906  0.00  0.00     0.035 H 
ATOM      3  H11 <0> d           3.514   2.814   0.874  0.00  0.00     0.035 H 
ENDROOT
BRANCH   1   4
ATOM      4  C4  <0> d           4.907   1.446  -0.037  0.00  0.00    -0.064 C 
ATOM      5  H8  <0> d           4.981   0.816   0.849  0.00  0.00     0.033 H 
ATOM      6  H9  <0> d           4.964   0.825  -0.931  0.00  0.00     0.033 H 
BRANCH   4   7
ATOM      7  C3  <0> d           6.056   2.456  -0.043  0.00  0.00    -0.065 C 
ATOM      8  H6  <0> d           5.981   3.087  -0.928  0.00  0.00     0.033 H 
ATOM      9  H7  <0> d           5.998   3.077   0.851  0.00  0.00     0.033 H 
BRANCH   7  10
ATOM     10  C2  <0> d           7.391   1.709  -0.059  0.00  0.00    -0.069 C 
ATOM     11  H4  <0> d           7.466   1.079   0.827  0.00  0.00     0.032 H 
ATOM     12  H5  <0> d           7.449   1.088  -0.953  0.00  0.00     0.032 H 
BRANCH  10  13
ATOM     13  C1  <0> d           8.540   2.719  -0.065  0.00  0.00    -0.077 C 
ATOM     14  H1  <0> d           8.466   3.350  -0.951  0.00  0.00     0.027 H 
ATOM     15  H2  <0> d           8.482   3.340   0.829  0.00  0.00     0.027 H 
ATOM     16  H3  <0> d           9.492   2.187  -0.077  0.00  0.00     0.027 H 
ENDBRANCH  10  13
ENDBRANCH   7  10
ENDBRANCH   4   7
ENDBRANCH   1   4
BRANCH   1  17
ATOM     17  C6  <0> d           2.422   1.183  -0.015  0.00  0.00    -0.005 C 
ATOM     18  H12 <0> d           2.497   0.553   0.871  0.00  0.00     0.064 H 
ATOM     19  H13 <0> d           2.480   0.562  -0.909  0.00  0.00     0.064 H 
BRANCH  17  20
ATOM     20  N1  <0> d           1.143   1.898   0.001  0.00  0.00    -0.361 N 
ATOM     21  C7  <0> d          -0.014   1.209   0.009  0.00  0.00     0.213 C 
ATOM     22  O1  <0> d           0.002  -0.004   0.002  0.00  0.00    -0.274 OA
ATOM     23  H14 <0> d           1.130   2.868   0.007  0.00  0.00     0.162 HD
BRANCH  21  24
ATOM     24  C8  <0> d          -1.330   1.944   0.019  0.00  0.00    -0.003 C 
ATOM     25  H15 <0> d          -1.642   2.116   1.049  0.00  0.00     0.040 H 
ATOM     26  H16 <0> d          -1.215   2.901  -0.490  0.00  0.00     0.040 H 
ATOM     27  H17 <0> d          -2.084   1.348  -0.495  0.00  0.00     0.040 H 
ENDBRANCH  21  24
ENDBRANCH  17  20
ENDBRANCH   1  17
TORSDOF 7
