REMARK  3 active torsions:
REMARK  status: ('A' for Active; 'I' for Inactive)
REMARK    1  A    between atoms: C1_1  and  O1_2 
REMARK    2  A    between atoms: O1_2  and  C2_3 
REMARK    3  A    between atoms: C2_3  and  C3_5 
ROOT
ATOM      1  C3  <0> d          -2.217   1.266   1.143  0.00  0.00     0.034 C 
ATOM      2  H1  <0> d          -2.352   0.213   0.895  0.00  0.00     0.056 H 
ATOM      3  C4  <0> d          -0.723   1.577   1.271  0.00  0.00    -0.050 C 
ATOM      4  C5  <0> d          -0.013   1.086   0.008  0.00  0.00    -0.049 C 
ATOM      5  C6  <0> d          -0.733   1.580  -1.212  0.00  0.00    -0.106 C 
ATOM      6  C7  <0> d          -1.946   2.033  -1.205  0.00  0.00    -0.106 C 
ATOM      7  C8  <0> d          -2.797   2.136   0.027  0.00  0.00    -0.038 C 
ATOM      8  H5  <0> d          -0.318   1.062   2.143  0.00  0.00     0.034 H 
ATOM      9  H6  <0> d          -0.581   2.652   1.378  0.00  0.00     0.034 H 
ATOM     10  H7  <0> d           0.002  -0.004   0.002  0.00  0.00     0.038 H 
ATOM     11  H8  <0> d           1.011   1.461   0.000  0.00  0.00     0.038 H 
ATOM     12  H9  <0> d          -0.207   1.557  -2.155  0.00  0.00     0.076 H 
ATOM     13  H10 <0> d          -2.372   2.356  -2.143  0.00  0.00     0.076 H 
ATOM     14  H11 <0> d          -2.830   3.174   0.357  0.00  0.00     0.040 H 
ATOM     15  H12 <0> d          -3.808   1.798  -0.203  0.00  0.00     0.040 H 
ENDROOT
BRANCH   1  16
ATOM     16  C2  <0> d          -2.917   1.574   2.442  0.00  0.00     0.262 C 
ATOM     17  O2  <0> d          -2.285   1.984   3.386  0.00  0.00    -0.265 OA
BRANCH  16  18
ATOM     18  O1  <0> d          -4.243   1.392   2.549  0.00  0.00    -0.326 OA
BRANCH  18  19
ATOM     19  C1  <0> d          -4.850   1.710   3.829  0.00  0.00     0.013 C 
ATOM     20  H2  <0> d          -5.922   1.519   3.780  0.00  0.00     0.067 H 
ATOM     21  H3  <0> d          -4.406   1.088   4.606  0.00  0.00     0.067 H 
ATOM     22  H4  <0> d          -4.678   2.760   4.062  0.00  0.00     0.067 H 
ENDBRANCH  18  19
ENDBRANCH  16  18
ENDBRANCH   1  16
TORSDOF 3
