REMARK  4 active torsions:
REMARK  status: ('A' for Active; 'I' for Inactive)
REMARK    1  A    between atoms: C1_1  and  C2_2 
REMARK    2  A    between atoms: C4_4  and  C7_8 
REMARK    3  A    between atoms: C5_5  and  C6_7 
REMARK    4  A    between atoms: C7_8  and  O1_9 
ROOT
ATOM      1  C2  <0> d           0.002  -0.004   0.002  0.00  0.00    -0.020 A 
ATOM      2  C3  <0> d          -1.039  -0.872   0.002  0.00  0.00    -0.061 A 
ATOM      3  C4  <0> d          -0.780  -2.230  -0.007  0.00  0.00    -0.021 A 
ATOM      4  C5  <0> d           0.507  -2.653  -0.016  0.00  0.00    -0.013 A 
ATOM      5  S1  <0> d           1.404  -1.109  -0.018  0.00  0.00    -0.100 SA
ATOM      6  H4  <0> d          -2.056  -0.508   0.009  0.00  0.00     0.086 H 
ENDROOT
BRANCH   3   7
ATOM      7  C7  <0> d          -1.912  -3.224  -0.008  0.00  0.00     0.041 C 
ATOM      8  H8  <0> d          -1.851  -3.845  -0.901  0.00  0.00     0.081 H 
ATOM      9  H9  <0> d          -1.842  -3.855   0.878  0.00  0.00     0.081 H 
BRANCH   7  10
ATOM     10  O1  <0> d          -3.159  -2.526   0.002  0.00  0.00    -0.396 OA
ATOM     11  H10 <0> d          -3.934  -3.105   0.003  0.00  0.00     0.209 HD
ENDBRANCH   7  10
ENDBRANCH   3   7
BRANCH   4  12
ATOM     12  C6  <0> d           1.043  -4.062  -0.027  0.00  0.00    -0.045 C 
ATOM     13  H5  <0> d           1.167  -4.395  -1.057  0.00  0.00     0.034 H 
ATOM     14  H6  <0> d           2.006  -4.088   0.482  0.00  0.00     0.034 H 
ATOM     15  H7  <0> d           0.343  -4.721   0.486  0.00  0.00     0.034 H 
ENDBRANCH   4  12
BRANCH   1  16
ATOM     16  C1  <0> d          -0.018   1.503   0.010  0.00  0.00    -0.045 C 
ATOM     17  H1  <0> d           1.004   1.880   0.003  0.00  0.00     0.034 H 
ATOM     18  H2  <0> d          -0.545   1.864  -0.873  0.00  0.00     0.034 H 
ATOM     19  H3  <0> d          -0.529   1.854   0.907  0.00  0.00     0.034 H 
ENDBRANCH   1  16
TORSDOF 4
