REMARK  4 active torsions:
REMARK  status: ('A' for Active; 'I' for Inactive)
REMARK    1  A    between atoms: C1_1  and  C2_2 
REMARK    2  A    between atoms: C2_2  and  C3_3 
REMARK    3  A    between atoms: C3_3  and  C4_4 
REMARK    4  A    between atoms: C4_4  and  C5_6 
ROOT
ATOM      1  C4  <0> d           0.002  -0.004   0.002  0.00  0.00     0.159 C 
ATOM      2  O1  <0> d           1.060  -0.596  -0.011  0.00  0.00    -0.292 OA
ENDROOT
BRANCH   1   3
ATOM      3  C3  <0> d          -1.293  -0.775   0.010  0.00  0.00    -0.005 C 
ATOM      4  H6  <0> d          -1.812  -0.545   0.833  0.00  0.00     0.044 H 
ATOM      5  H7  <0> d          -1.876  -0.515  -0.873  0.00  0.00     0.044 H 
BRANCH   3   6
ATOM      6  C2  <0> d          -0.993  -2.276  -0.001  0.00  0.00    -0.062 C 
ATOM      7  H4  <0> d          -0.426  -2.526  -0.897  0.00  0.00     0.033 H 
ATOM      8  H5  <0> d          -0.409  -2.536   0.882  0.00  0.00     0.033 H 
BRANCH   6   9
ATOM      9  C1  <0> d          -2.307  -3.058   0.008  0.00  0.00    -0.076 C 
ATOM     10  H1  <0> d          -2.891  -2.798  -0.875  0.00  0.00     0.027 H 
ATOM     11  H2  <0> d          -2.094  -4.127  -0.000  0.00  0.00     0.027 H 
ATOM     12  H3  <0> d          -2.874  -2.808   0.904  0.00  0.00     0.027 H 
ENDBRANCH   6   9
ENDBRANCH   3   6
ENDBRANCH   1   3
BRANCH   1  13
ATOM     13  C5  <0> d          -0.018   1.467   0.010  0.00  0.00     0.010 A 
ATOM     14  C10 <0> d           1.181   2.187   0.003  0.00  0.00    -0.070 A 
ATOM     15  C9  <0> d           1.154   3.565   0.010  0.00  0.00    -0.082 A 
ATOM     16  H12 <0> d           2.126   1.664  -0.010  0.00  0.00     0.085 H 
ATOM     17  C8  <0> d          -0.055   4.237   0.026  0.00  0.00    -0.083 A 
ATOM     18  H11 <0> d           2.080   4.122   0.004  0.00  0.00     0.083 H 
ATOM     19  C7  <0> d          -1.247   3.533   0.033  0.00  0.00    -0.082 A 
ATOM     20  H10 <0> d          -0.070   5.317   0.032  0.00  0.00     0.083 H 
ATOM     21  C6  <0> d          -1.236   2.154   0.020  0.00  0.00    -0.070 A 
ATOM     22  H9  <0> d          -2.187   4.064   0.045  0.00  0.00     0.083 H 
ATOM     23  H8  <0> d          -2.167   1.605   0.021  0.00  0.00     0.085 H 
ENDBRANCH   1  13
TORSDOF 4
