REMARK  5 active torsions:
REMARK  status: ('A' for Active; 'I' for Inactive)
REMARK    1  A    between atoms: C1_1  and  C2_2 
REMARK    2  A    between atoms: C2_2  and  C3_3 
REMARK    3  A    between atoms: C3_3  and  C4_5 
REMARK    4  A    between atoms: C3_3  and  O1_8 
REMARK    5  A    between atoms: C5_6  and  C6_7 
ROOT
ATOM      1  C3  <0> d          -1.328   1.812   0.018  0.00  0.00     0.051 C 
ATOM      2  H1  <0> d          -1.143   2.886   0.023  0.00  0.00     0.089 H 
ENDROOT
BRANCH   1   3
ATOM      3  C2  <0> d          -2.131   1.438  -1.229  0.00  0.00    -0.041 C 
ATOM      4  H5  <0> d          -1.532   1.631  -2.119  0.00  0.00     0.036 H 
ATOM      5  H6  <0> d          -2.392   0.380  -1.190  0.00  0.00     0.036 H 
BRANCH   3   6
ATOM      6  C1  <0> d          -3.409   2.277  -1.283  0.00  0.00    -0.074 C 
ATOM      7  H2  <0> d          -4.009   2.083  -0.394  0.00  0.00     0.027 H 
ATOM      8  H3  <0> d          -3.148   3.334  -1.322  0.00  0.00     0.027 H 
ATOM      9  H4  <0> d          -3.981   2.010  -2.172  0.00  0.00     0.027 H 
ENDBRANCH   3   6
ENDBRANCH   1   3
BRANCH   1  10
ATOM     10  C4  <0> d          -0.013   1.076   0.008  0.00  0.00    -0.080 C 
ATOM     11  C5  <0> d           1.113   1.746   0.001  0.00  0.00    -0.108 C 
ATOM     12  H8  <0> d           1.098   2.826   0.007  0.00  0.00     0.075 H 
ATOM     13  H7  <0> d           0.002  -0.004   0.002  0.00  0.00     0.080 H 
BRANCH  11  14
ATOM     14  C6  <0> d           2.428   1.010  -0.016  0.00  0.00    -0.060 C 
ATOM     15  H9  <0> d           3.247   1.730  -0.020  0.00  0.00     0.032 H 
ATOM     16  H10 <0> d           2.503   0.380   0.870  0.00  0.00     0.032 H 
ATOM     17  H11 <0> d           2.486   0.390  -0.910  0.00  0.00     0.032 H 
ENDBRANCH  11  14
ENDBRANCH   1  10
BRANCH   1  18
ATOM     18  O1  <0> d          -2.067   1.450   1.187  0.00  0.00    -0.392 OA
ATOM     19  H12 <0> d          -2.267   0.506   1.248  0.00  0.00     0.210 HD
ENDBRANCH   1  18
TORSDOF 5
