REMARK  1 active torsions:
REMARK  status: ('A' for Active; 'I' for Inactive)
REMARK    1  A    between atoms: C3_3  and  C6_8 
ROOT
ATOM      1  C1  <0> d          -0.017   1.379   0.010  0.00  0.00    -0.065 A 
ATOM      2  C2  <0> d           1.180   2.074   0.002  0.00  0.00    -0.062 A 
ATOM      3  C3  <0> d           2.373   1.340  -0.013  0.00  0.00     0.081 A 
ATOM      4  C4  <0> d           2.307  -0.057  -0.020  0.00  0.00     0.142 A 
ATOM      5  N1  <0> d           1.141  -0.671  -0.013  0.00  0.00    -0.248 NA
ATOM      6  C5  <0> d           0.002  -0.004   0.002  0.00  0.00     0.004 A 
ATOM      7 Cl1  <0> d           3.771  -0.990  -0.039  0.00  0.00    -0.061 Cl
ATOM      8  H1  <0> d          -0.956   1.912   0.026  0.00  0.00     0.085 H 
ATOM      9  H2  <0> d           1.193   3.154   0.007  0.00  0.00     0.085 H 
ATOM     10  H3  <0> d          -0.931  -0.547   0.008  0.00  0.00     0.114 H 
ENDROOT
BRANCH   3  11
ATOM     11  C6  <0> d           3.677   2.029  -0.023  0.00  0.00     0.212 C 
ATOM     12  O1  <0> d           3.723   3.251  -0.017  0.00  0.00    -0.644 OA
ATOM     13  O2  <0> d           4.713   1.378  -0.036  0.00  0.00    -0.644 OA
ENDBRANCH   3  11
TORSDOF 1
