REMARK  4 active torsions:
REMARK  status: ('A' for Active; 'I' for Inactive)
REMARK    1  A    between atoms: C1_1  and  C2_2 
REMARK    2  A    between atoms: C4_7  and  C5_9 
REMARK    3  A    between atoms: C5_9  and  C6_11 
REMARK    4  A    between atoms: C5_9  and  N2_12 
ROOT
ATOM      1  C2  <0> d           0.002  -0.004   0.002  0.00  0.00     0.115 A 
ATOM      2  H1  <0> d           0.520  -0.376  -0.882  0.00  0.00     0.091 H 
ATOM      3  C3  <0> d          -1.409  -0.560   0.070  0.00  0.00     0.289 A 
ATOM      4  O1  <0> d          -2.305  -0.404  -0.725  0.00  0.00    -0.262 OA
ATOM      5  O2  <0> d          -1.437  -1.266   1.217  0.00  0.00    -0.260 OA
ATOM      6  C4  <0> d          -0.252  -1.214   1.843  0.00  0.00     0.178 A 
ATOM      7  N1  <0> d           0.631  -0.522   1.229  0.00  0.00    -0.253 NA
ENDROOT
BRANCH   6   8
ATOM      8  C5  <0> d           0.016  -1.911   3.152  0.00  0.00     0.189 C 
ATOM      9  H2  <0> d          -0.049  -2.990   3.010  0.00  0.00     0.100 H 
BRANCH   8  10
ATOM     10  C6  <0> d          -1.021  -1.470   4.187  0.00  0.00    -0.040 C 
ATOM     11  H6  <0> d          -2.019  -1.730   3.835  0.00  0.00     0.030 H 
ATOM     12  H7  <0> d          -0.827  -1.974   5.134  0.00  0.00     0.030 H 
ATOM     13  H8  <0> d          -0.956  -0.391   4.330  0.00  0.00     0.030 H 
ENDBRANCH   8  10
BRANCH   8  14
ATOM     14  N2  <0> d           1.361  -1.561   3.627  0.00  0.00     0.090 N 
ATOM     15  H9  <0> d           1.448  -0.565   3.767  0.00  0.00     0.313 HD
ATOM     16  H10 <0> d           1.590  -2.065   4.470  0.00  0.00     0.313 HD
ENDBRANCH   8  14
ENDBRANCH   6   8
BRANCH   1  17
ATOM     17  C1  <0> d          -0.019   1.526   0.010  0.00  0.00    -0.047 C 
ATOM     18  H3  <0> d           1.004   1.903   0.003  0.00  0.00     0.031 H 
ATOM     19  H4  <0> d          -0.546   1.887  -0.873  0.00  0.00     0.031 H 
ATOM     20  H5  <0> d          -0.529   1.877   0.907  0.00  0.00     0.031 H 
ENDBRANCH   1  17
TORSDOF 4
