REMARK  0 active torsions:
REMARK  status: ('A' for Active; 'I' for Inactive)
ROOT
ATOM      1  C1  <0> d           2.167   0.026   1.254  0.00  0.00    -0.065 C 
ATOM      2  C2  <0> d           0.733  -0.507   1.249  0.00  0.00    -0.063 C 
ATOM      3  C3  <0> d           0.002  -0.004   0.002  0.00  0.00    -0.040 C 
ATOM      4  C4  <0> d          -0.019   1.525   0.010  0.00  0.00     0.051 C 
ATOM      5  H1  <0> d          -0.528   1.877   0.907  0.00  0.00     0.084 H 
ATOM      6  C5  <0> d           1.420   2.050  -0.001  0.00  0.00    -0.028 C 
ATOM      7  H2  <0> d           1.934   1.683  -0.888  0.00  0.00     0.043 H 
ATOM      8  C6  <0> d           2.147   1.557   1.251  0.00  0.00    -0.059 C 
ATOM      9  C7  <0> d           1.398   3.581  -0.020  0.00  0.00    -0.051 C 
ATOM     10  C8  <0> d           0.665   4.049  -1.284  0.00  0.00     0.016 C 
ATOM     11  C9  <0> d          -0.677   3.354  -1.347  0.00  0.00     0.259 C 
ATOM     12  O1  <0> d          -1.690   3.979  -1.552  0.00  0.00    -0.265 OA
ATOM     13  O2  <0> d          -0.713   2.016  -1.170  0.00  0.00    -0.316 OA
ATOM     14  H3  <0> d           2.683  -0.328   2.146  0.00  0.00     0.033 H 
ATOM     15  H4  <0> d           2.690  -0.331   0.367  0.00  0.00     0.033 H 
ATOM     16  H5  <0> d           0.213  -0.156   2.141  0.00  0.00     0.033 H 
ATOM     17  H6  <0> d           0.752  -1.596   1.244  0.00  0.00     0.033 H 
ATOM     18  H7  <0> d          -1.020  -0.382   0.003  0.00  0.00     0.036 H 
ATOM     19  H8  <0> d           0.519  -0.356  -0.890  0.00  0.00     0.036 H 
ATOM     20  H9  <0> d           1.627   1.915   2.139  0.00  0.00     0.033 H 
ATOM     21  H10 <0> d           3.170   1.934   1.251  0.00  0.00     0.033 H 
ATOM     22  H11 <0> d           0.876   3.950   0.863  0.00  0.00     0.034 H 
ATOM     23  H12 <0> d           2.419   3.961  -0.028  0.00  0.00     0.034 H 
ATOM     24  H13 <0> d           0.516   5.128  -1.243  0.00  0.00     0.048 H 
ATOM     25  H14 <0> d           1.254   3.794  -2.165  0.00  0.00     0.048 H 
ENDROOT
TORSDOF 0
