REMARK  1 active torsions:
REMARK  status: ('A' for Active; 'I' for Inactive)
REMARK    1  A    between atoms: C1_1  and  C2_2 
ROOT
ATOM      1  C2  <0> d          -0.018   1.503   0.010  0.00  0.00    -0.006 A 
ATOM      2  C3  <0> d           1.163   2.219   0.003  0.00  0.00     0.010 A 
ATOM      3  N1  <0> d           1.153   3.538   0.011  0.00  0.00    -0.272 NA
ATOM      4  C4  <0> d           0.027   4.224   0.025  0.00  0.00     0.005 A 
ATOM      5  C5  <0> d          -1.194   3.579   0.033  0.00  0.00    -0.028 A 
ATOM      6  C6  <0> d          -1.226   2.190   0.020  0.00  0.00     0.125 A 
ATOM      7  F1  <0> d          -2.401   1.524   0.021  0.00  0.00    -0.205 F 
ATOM      8  H4  <0> d           2.106   1.692  -0.009  0.00  0.00     0.115 H 
ATOM      9  H5  <0> d           0.060   5.304   0.031  0.00  0.00     0.114 H 
ATOM     10  H6  <0> d          -2.113   4.147   0.045  0.00  0.00     0.090 H 
ENDROOT
BRANCH   1  11
ATOM     11  C1  <0> d           0.002  -0.004   0.002  0.00  0.00    -0.047 C 
ATOM     12  H1  <0> d           0.017  -0.373   1.028  0.00  0.00     0.033 H 
ATOM     13  H2  <0> d          -0.888  -0.377  -0.505  0.00  0.00     0.033 H 
ATOM     14  H3  <0> d           0.892  -0.352  -0.522  0.00  0.00     0.033 H 
ENDBRANCH   1  11
TORSDOF 1
