REMARK  2 active torsions:
REMARK  status: ('A' for Active; 'I' for Inactive)
REMARK    1  A    between atoms: C1_1  and  C2_2 
REMARK    2  A    between atoms: C6_6  and  C8_8 
ROOT
ATOM      1  C2  <0> d           0.002  -0.004   0.002  0.00  0.00    -0.061 A 
ATOM      2  C3  <0> d           0.006  -0.687  -1.201  0.00  0.00    -0.074 A 
ATOM      3  C4  <0> d           0.024  -2.070  -1.219  0.00  0.00    -0.044 A 
ATOM      4  C5  <0> d           0.040  -2.778  -0.032  0.00  0.00     0.126 A 
ATOM      5  C6  <0> d           0.036  -2.093   1.186  0.00  0.00     0.002 A 
ATOM      6  C7  <0> d           0.023  -0.698   1.194  0.00  0.00    -0.064 A 
ATOM      7  F1  <0> d           0.057  -4.129  -0.050  0.00  0.00    -0.205 F 
ATOM      8  H4  <0> d          -0.006  -0.138  -2.131  0.00  0.00     0.084 H 
ATOM      9  H5  <0> d           0.027  -2.597  -2.162  0.00  0.00     0.088 H 
ATOM     10  H6  <0> d           0.025  -0.163   2.132  0.00  0.00     0.085 H 
ENDROOT
BRANCH   5  11
ATOM     11  C8  <0> d           0.052  -2.843   2.459  0.00  0.00    -0.079 C 
ATOM     12  C9  <0> d           0.048  -2.190   3.613  0.00  0.00    -0.120 C 
ATOM     13  H8  <0> d           0.034  -1.110   3.622  0.00  0.00     0.066 H 
ATOM     14  H9  <0> d           0.060  -2.738   4.544  0.00  0.00     0.066 H 
ATOM     15  H7  <0> d           0.066  -3.923   2.450  0.00  0.00     0.083 H 
ENDBRANCH   5  11
BRANCH   1  16
ATOM     16  C1  <0> d          -0.018   1.503   0.010  0.00  0.00    -0.051 C 
ATOM     17  H1  <0> d           1.004   1.880   0.003  0.00  0.00     0.033 H 
ATOM     18  H2  <0> d          -0.545   1.864  -0.873  0.00  0.00     0.033 H 
ATOM     19  H3  <0> d          -0.529   1.854   0.907  0.00  0.00     0.033 H 
ENDBRANCH   1  16
TORSDOF 2
