REMARK  4 active torsions:
REMARK  status: ('A' for Active; 'I' for Inactive)
REMARK    1  A    between atoms: C1_1  and  C2_2 
REMARK    2  A    between atoms: C2_2  and  C3_4 
REMARK    3  A    between atoms: C2_2  and  O1_11 
REMARK    4  A    between atoms: C7_9  and  N2_10 
ROOT
ATOM      1  C3  <0> d           2.382   0.085  -0.020  0.00  0.00     0.015 A 
ATOM      2  C4  <0> d           1.222  -0.668  -0.013  0.00  0.00    -0.069 A 
ATOM      3  C5  <0> d           0.002  -0.004   0.002  0.00  0.00    -0.065 A 
ATOM      4  C6  <0> d          -0.017   1.376   0.010  0.00  0.00     0.004 A 
ATOM      5  N1  <0> d           1.107   2.068   0.003  0.00  0.00    -0.243 NA
ATOM      6  C7  <0> d           2.289   1.473  -0.012  0.00  0.00     0.129 A 
ATOM      7  H5  <0> d           1.263  -1.747  -0.019  0.00  0.00     0.084 H 
ATOM      8  H6  <0> d          -0.922  -0.562   0.007  0.00  0.00     0.085 H 
ATOM      9  H7  <0> d          -0.963   1.897   0.017  0.00  0.00     0.114 H 
ENDROOT
BRANCH   1  10
ATOM     10  C2  <0> d           3.730  -0.590  -0.037  0.00  0.00     0.061 C 
ATOM     11  H1  <0> d           4.429  -0.036  -0.681  0.00  0.00     0.090 H 
BRANCH  10  12
ATOM     12  C1  <0> d           4.256  -0.714   1.394  0.00  0.00    -0.049 C 
ATOM     13  H2  <0> d           5.240  -1.207   1.382  0.00  0.00     0.031 H 
ATOM     14  H3  <0> d           3.554  -1.313   1.992  0.00  0.00     0.031 H 
ATOM     15  H4  <0> d           4.354   0.288   1.837  0.00  0.00     0.031 H 
ENDBRANCH  10  12
BRANCH  10  16
ATOM     16  O1  <0> d           3.603  -1.892  -0.613  0.00  0.00    -0.391 OA
ATOM     17  H10 <0> d           3.237  -2.004  -1.644  0.00  0.00     0.210 HD
ENDBRANCH  10  16
ENDBRANCH   1  10
BRANCH   6  18
ATOM     18  N2  <0> d           3.448   2.241  -0.019  0.00  0.00    -0.384 N 
ATOM     19  H8  <0> d           3.380   3.339  -0.012  0.00  0.00     0.157 HD
ATOM     20  H9  <0> d           4.433   1.751  -0.031  0.00  0.00     0.157 HD
ENDBRANCH   6  18
TORSDOF 4
