REMARK  4 active torsions:
REMARK  status: ('A' for Active; 'I' for Inactive)
REMARK    1  A    between atoms: C1_1  and  C2_2 
REMARK    2  A    between atoms: C2_2  and  C3_3 
REMARK    3  A    between atoms: C2_2  and  C4_4 
REMARK    4  A    between atoms: C4_4  and  C5_5 
ROOT
ATOM      1  C4  <0> d          -2.515   0.980   0.020  0.00  0.00    -0.021 C 
ATOM      2  H8  <0> d          -2.301  -0.095   0.104  0.00  0.00     0.043 H 
ATOM      3  H9  <0> d          -3.059   1.174  -0.916  0.00  0.00     0.043 H 
ENDROOT
BRANCH   1   4
ATOM      4  C2  <0> d          -3.371   1.424   1.208  0.00  0.00    -0.056 C 
ATOM      5  H4  <0> d          -3.510   2.515   1.172  0.00  0.00     0.039 H 
BRANCH   4   6
ATOM      6  C1  <0> d          -4.734   0.734   1.141  0.00  0.00    -0.073 C 
ATOM      7  H1  <0> d          -5.239   1.009   0.202  0.00  0.00     0.028 H 
ATOM      8  H2  <0> d          -5.350   1.053   1.995  0.00  0.00     0.028 H 
ATOM      9  H3  <0> d          -4.595  -0.357   1.176  0.00  0.00     0.028 H 
ENDBRANCH   4   6
BRANCH   4  10
ATOM     10  C3  <0> d          -2.669   1.042   2.513  0.00  0.00    -0.073 C 
ATOM     11  H5  <0> d          -1.689   1.538   2.561  0.00  0.00     0.028 H 
ATOM     12  H6  <0> d          -2.530  -0.049   2.548  0.00  0.00     0.028 H 
ATOM     13  H7  <0> d          -3.285   1.361   3.367  0.00  0.00     0.028 H 
ENDBRANCH   4  10
ENDBRANCH   1   4
BRANCH   1  14
ATOM     14  C5  <0> d          -1.220   1.751   0.017  0.00  0.00     0.052 A 
ATOM     15  N2  <0> d          -1.238   3.072   0.029  0.00  0.00    -0.263 NA
ATOM     16  C8  <0> d          -0.103   3.749   0.022  0.00  0.00     0.019 A 
ATOM     17  C7  <0> d           1.105   3.073   0.008  0.00  0.00     0.019 A 
ATOM     18  H12 <0> d          -0.117   4.829   0.027  0.00  0.00     0.117 H 
ATOM     19  N1  <0> d           1.123   1.752   0.001  0.00  0.00    -0.270 NA
ATOM     20  H11 <0> d           2.032   3.626   0.002  0.00  0.00     0.117 H 
ATOM     21  C6  <0> d          -0.013   1.076   0.008  0.00  0.00     0.025 A 
ATOM     22  H10 <0> d           0.002  -0.004   0.002  0.00  0.00     0.117 H 
ENDBRANCH   1  14
TORSDOF 4
