REMARK  8 active torsions:
REMARK  status: ('A' for Active; 'I' for Inactive)
REMARK    1  A    between atoms: C1_1  and  C2_2 
REMARK    2  A    between atoms: C2_2  and  C3_4 
REMARK    3  A    between atoms: C2_2  and  O3_11 
REMARK    4  A    between atoms: C3_4  and  O2_6 
REMARK    5  A    between atoms: O2_6  and  C4_7 
REMARK    6  A    between atoms: C4_7  and  C5_8 
REMARK    7  A    between atoms: C4_7  and  C6_9 
REMARK    8  A    between atoms: C4_7  and  C7_10 
ROOT
ATOM      1  C4  <0> d           3.598   1.762  -0.913  0.00  0.00     0.060 C 
ENDROOT
BRANCH   1   2
ATOM      2  O2  <0> d           2.252   1.219  -0.965  0.00  0.00    -0.309 OA
BRANCH   2   3
ATOM      3  C3  <0> d           1.401   1.607  -0.003  0.00  0.00     0.288 C 
ATOM      4  O1  <0> d           1.768   2.375   0.855  0.00  0.00    -0.262 OA
BRANCH   3   5
ATOM      5  C2  <0> d          -0.013   1.086   0.008  0.00  0.00     0.115 C 
ATOM      6  H1  <0> d           0.002  -0.004   0.002  0.00  0.00     0.098 H 
BRANCH   5   7
ATOM      7  C1  <0> d          -0.753   1.593  -1.232  0.00  0.00    -0.044 C 
ATOM      8  H2  <0> d          -0.242   1.241  -2.128  0.00  0.00     0.031 H 
ATOM      9  H3  <0> d          -1.775   1.215  -1.224  0.00  0.00     0.031 H 
ATOM     10  H4  <0> d          -0.767   2.683  -1.226  0.00  0.00     0.031 H 
ENDBRANCH   5   7
BRANCH   5  11
ATOM     11  O3  <0> d          -0.682   1.547   1.184  0.00  0.00    -0.386 OA
ATOM     12  H14 <0> d          -0.732   2.510   1.256  0.00  0.00     0.210 HD
ENDBRANCH   5  11
ENDBRANCH   3   5
ENDBRANCH   2   3
ENDBRANCH   1   2
BRANCH   1  13
ATOM     13  C5  <0> d           4.259   1.360   0.407  0.00  0.00    -0.048 C 
ATOM     14  H5  <0> d           4.303   0.273   0.475  0.00  0.00     0.031 H 
ATOM     15  H6  <0> d           5.269   1.767   0.446  0.00  0.00     0.031 H 
ATOM     16  H7  <0> d           3.676   1.753   1.240  0.00  0.00     0.031 H 
ENDBRANCH   1  13
BRANCH   1  17
ATOM     17  C6  <0> d           4.417   1.210  -2.082  0.00  0.00    -0.048 C 
ATOM     18  H8  <0> d           3.946   1.496  -3.022  0.00  0.00     0.031 H 
ATOM     19  H9  <0> d           5.427   1.617  -2.043  0.00  0.00     0.031 H 
ATOM     20  H10 <0> d           4.460   0.123  -2.014  0.00  0.00     0.031 H 
ENDBRANCH   1  17
BRANCH   1  21
ATOM     21  C7  <0> d           3.537   3.288  -1.009  0.00  0.00    -0.048 C 
ATOM     22  H11 <0> d           2.954   3.681  -0.176  0.00  0.00     0.031 H 
ATOM     23  H12 <0> d           4.548   3.695  -0.970  0.00  0.00     0.031 H 
ATOM     24  H13 <0> d           3.066   3.574  -1.949  0.00  0.00     0.031 H 
ENDBRANCH   1  21
TORSDOF 8
