REMARK  0 active torsions:
REMARK  status: ('A' for Active; 'I' for Inactive)
ROOT
ATOM      1  C1  <0> d          -0.017   1.380   0.010  0.00  0.00    -0.008 A 
ATOM      2  C2  <0> d           1.173   2.088   0.002  0.00  0.00     0.120 A 
ATOM      3  C3  <0> d           2.381   1.411  -0.013  0.00  0.00    -0.025 A 
ATOM      4  C4  <0> d           2.399   0.028  -0.021  0.00  0.00     0.039 A 
ATOM      5  C5  <0> d           1.210  -0.680  -0.014  0.00  0.00    -0.025 A 
ATOM      6  C6  <0> d           0.002  -0.004   0.002  0.00  0.00     0.120 A 
ATOM      7  F1  <0> d          -1.159  -0.696   0.010  0.00  0.00    -0.206 F 
ATOM      8 Cl1  <0> d           3.914  -0.820  -0.041  0.00  0.00    -0.084 Cl
ATOM      9  F2  <0> d           1.155   3.439   0.009  0.00  0.00    -0.206 F 
ATOM     10  H1  <0> d          -0.959   1.907   0.026  0.00  0.00     0.092 H 
ATOM     11  H2  <0> d           3.309   1.964  -0.019  0.00  0.00     0.090 H 
ATOM     12  H3  <0> d           1.225  -1.760  -0.021  0.00  0.00     0.090 H 
ENDROOT
TORSDOF 0
