REMARK  3 active torsions:
REMARK  status: ('A' for Active; 'I' for Inactive)
REMARK    1  A    between atoms: C1_1  and  C2_2 
REMARK    2  A    between atoms: C2_2  and  C3_3 
REMARK    3  A    between atoms: C4_4  and  C7_13 
ROOT
ATOM      1  C3  <0> d          -2.143   1.058   1.278  0.00  0.00     0.032 A 
ATOM      2  C4  <0> d          -2.447  -0.080   1.937  0.00  0.00     0.021 A 
ATOM      3  N1  <0> d          -3.737  -0.537   1.941  0.00  0.00    -0.312 N 
ATOM      4  H1  <0> d          -3.964  -1.376   2.437  0.00  0.00     0.170 HD
ATOM      5  C5  <0> d          -4.702   0.131   1.285  0.00  0.00     0.327 A 
ATOM      6  O1  <0> d          -5.841  -0.295   1.297  0.00  0.00    -0.247 OA
ATOM      7  N2  <0> d          -4.426   1.265   0.615  0.00  0.00    -0.275 N 
ATOM      8  H2  <0> d          -5.156   1.750   0.132  0.00  0.00     0.173 HD
ATOM      9  C6  <0> d          -3.168   1.751   0.591  0.00  0.00     0.257 A 
ATOM     10  O2  <0> d          -2.917   2.777  -0.016  0.00  0.00    -0.267 OA
ENDROOT
BRANCH   1  11
ATOM     11  C2  <0> d          -0.729   1.579   1.267  0.00  0.00    -0.037 C 
ATOM     12  H6  <0> d          -0.202   1.218   2.150  0.00  0.00     0.039 H 
ATOM     13  H7  <0> d          -0.744   2.669   1.273  0.00  0.00     0.039 H 
BRANCH  11  14
ATOM     14  C1  <0> d          -0.013   1.086   0.008  0.00  0.00    -0.072 C 
ATOM     15  H3  <0> d           0.002  -0.004   0.002  0.00  0.00     0.028 H 
ATOM     16  H4  <0> d           1.010   1.463   0.000  0.00  0.00     0.028 H 
ATOM     17  H5  <0> d          -0.540   1.447  -0.875  0.00  0.00     0.028 H 
ENDBRANCH  11  14
ENDBRANCH   1  11
BRANCH   2  18
ATOM     18  C7  <0> d          -1.372  -0.841   2.671  0.00  0.00    -0.037 C 
ATOM     19  H8  <0> d          -1.307  -0.480   3.697  0.00  0.00     0.035 H 
ATOM     20  H9  <0> d          -1.617  -1.903   2.674  0.00  0.00     0.035 H 
ATOM     21  H10 <0> d          -0.415  -0.690   2.171  0.00  0.00     0.035 H 
ENDBRANCH   2  18
TORSDOF 3
