REMARK  2 active torsions:
REMARK  status: ('A' for Active; 'I' for Inactive)
REMARK    1  A    between atoms: C1_1  and  C2_2 
REMARK    2  A    between atoms: C4_4  and  O1_9 
ROOT
ATOM      1  C2  <0> d           1.157   3.438   0.009  0.00  0.00    -0.057 A 
ATOM      2  C3  <0> d          -0.047   4.116   0.024  0.00  0.00    -0.045 A 
ATOM      3  C4  <0> d          -1.240   3.409   0.031  0.00  0.00     0.069 A 
ATOM      4  C5  <0> d          -1.224   2.022   0.019  0.00  0.00    -0.014 A 
ATOM      5  C6  <0> d          -0.016   1.347   0.009  0.00  0.00     0.119 A 
ATOM      6  C7  <0> d           1.174   2.056   0.002  0.00  0.00    -0.040 A 
ATOM      7  F1  <0> d           0.002  -0.004   0.002  0.00  0.00    -0.206 F 
ATOM      8  H4  <0> d          -0.058   5.196   0.030  0.00  0.00     0.088 H 
ATOM      9  H5  <0> d          -2.152   1.470   0.021  0.00  0.00     0.092 H 
ATOM     10  H6  <0> d           2.116   1.528  -0.010  0.00  0.00     0.089 H 
ENDROOT
BRANCH   1  11
ATOM     11  C1  <0> d           2.454   4.206   0.001  0.00  0.00    -0.051 C 
ATOM     12  H1  <0> d           2.756   4.397  -1.028  0.00  0.00     0.033 H 
ATOM     13  H2  <0> d           2.317   5.154   0.521  0.00  0.00     0.033 H 
ATOM     14  H3  <0> d           3.225   3.623   0.505  0.00  0.00     0.033 H 
ENDBRANCH   1  11
BRANCH   3  15
ATOM     15  O1  <0> d          -2.425   4.075   0.046  0.00  0.00    -0.361 OA
ATOM     16  H7  <0> d          -2.776   4.273  -0.833  0.00  0.00     0.217 HD
ENDBRANCH   3  15
TORSDOF 2
