REMARK  5 active torsions:
REMARK  status: ('A' for Active; 'I' for Inactive)
REMARK    1  A    between atoms: C1_1  and  O1_2 
REMARK    2  A    between atoms: O1_2  and  C2_3 
REMARK    3  A    between atoms: C2_3  and  C3_5 
REMARK    4  A    between atoms: C3_5  and  C4_6 
REMARK    5  A    between atoms: C4_6  and  C5_7 
REMARK       I    between atoms: C5_7  and  N1_9 
ROOT
ATOM      1  C3  <0> d          -2.657   3.621   0.034  0.00  0.00     0.024 C 
ATOM      2  H4  <0> d          -3.170   3.256  -0.855  0.00  0.00     0.048 H 
ATOM      3  H5  <0> d          -3.162   3.246   0.925  0.00  0.00     0.048 H 
ENDROOT
BRANCH   1   4
ATOM      4  C2  <0> d          -2.678   5.128   0.043  0.00  0.00     0.258 C 
ATOM      5  O2  <0> d          -1.639   5.746   0.041  0.00  0.00    -0.265 OA
BRANCH   4   6
ATOM      6  O1  <0> d          -3.849   5.783   0.052  0.00  0.00    -0.326 OA
BRANCH   6   7
ATOM      7  C1  <0> d          -3.793   7.234   0.059  0.00  0.00     0.013 C 
ATOM      8  H1  <0> d          -4.805   7.637   0.066  0.00  0.00     0.067 H 
ATOM      9  H2  <0> d          -3.261   7.572   0.949  0.00  0.00     0.067 H 
ATOM     10  H3  <0> d          -3.269   7.582  -0.831  0.00  0.00     0.067 H 
ENDBRANCH   6   7
ENDBRANCH   4   6
ENDBRANCH   1   4
BRANCH   1  11
ATOM     11  C4  <0> d          -1.208   3.131   0.025  0.00  0.00     0.017 C 
ATOM     12  H6  <0> d          -0.695   3.496   0.914  0.00  0.00     0.047 H 
ATOM     13  H7  <0> d          -0.703   3.506  -0.866  0.00  0.00     0.047 H 
BRANCH  11  14
ATOM     14  C5  <0> d          -1.187   1.624   0.017  0.00  0.00     0.215 C 
ATOM     15  O3  <0> d          -2.229   1.003   0.018  0.00  0.00    -0.274 OA
ATOM     16  N1  <0> d          -0.011   0.966   0.007  0.00  0.00    -0.370 N 
ATOM     17  H8  <0> d           0.002  -0.004   0.002  0.00  0.00     0.159 HD
ATOM     18  H9  <0> d           0.822   1.462   0.002  0.00  0.00     0.159 HD
ENDBRANCH  11  14
ENDBRANCH   1  11
TORSDOF 5
