REMARK  2 active torsions:
REMARK  status: ('A' for Active; 'I' for Inactive)
REMARK    1  A    between atoms: C1_1  and  C2_2 
REMARK    2  A    between atoms: C3_3  and  C7_9 
ROOT
ATOM      1  C2  <0> d           2.464   3.727   0.103  0.00  0.00     0.050 A 
ATOM      2  C3  <0> d           1.270   3.087  -0.234  0.00  0.00     0.065 A 
ATOM      3  C4  <0> d           0.095   3.846  -0.326  0.00  0.00    -0.060 A 
ATOM      4  C5  <0> d           0.169   5.201  -0.066  0.00  0.00    -0.026 A 
ATOM      5  C6  <0> d           1.394   5.764   0.263  0.00  0.00     0.210 A 
ATOM      6  N1  <0> d           2.486   5.023   0.337  0.00  0.00    -0.225 NA
ATOM      7  F1  <0> d           1.471   7.089   0.512  0.00  0.00    -0.184 F 
ATOM      8  H4  <0> d          -0.844   3.383  -0.589  0.00  0.00     0.085 H 
ATOM      9  H5  <0> d          -0.717   5.817  -0.123  0.00  0.00     0.090 H 
ENDROOT
BRANCH   1  10
ATOM     10  C1  <0> d           3.738   2.929   0.202  0.00  0.00    -0.034 C 
ATOM     11  H1  <0> d           4.172   2.814  -0.792  0.00  0.00     0.035 H 
ATOM     12  H2  <0> d           4.444   3.449   0.849  0.00  0.00     0.035 H 
ATOM     13  H3  <0> d           3.519   1.946   0.618  0.00  0.00     0.035 H 
ENDBRANCH   1  10
BRANCH   2  14
ATOM     14  C7  <0> d           1.246   1.634  -0.495  0.00  0.00     0.211 C 
ATOM     15  O1  <0> d           2.285   1.005  -0.525  0.00  0.00    -0.644 OA
ATOM     16  O2  <0> d           0.072   1.006  -0.701  0.00  0.00    -0.644 OA
ENDBRANCH   2  14
TORSDOF 2
