REMARK  9 active torsions:
REMARK  status: ('A' for Active; 'I' for Inactive)
REMARK    1  A    between atoms: C1_1  and  C2_2 
REMARK    2  A    between atoms: C2_2  and  C3_3 
REMARK    3  A    between atoms: C3_3  and  C4_4 
REMARK    4  A    between atoms: C4_4  and  C5_5 
REMARK    5  A    between atoms: C5_5  and  C6_6 
REMARK    6  A    between atoms: C5_5  and  C7_7 
REMARK    7  A    between atoms: C5_5  and  O1_10 
REMARK    8  A    between atoms: C7_7  and  C8_8 
REMARK    9  A    between atoms: C7_7  and  C9_9 
ROOT
ATOM      1  C5  <0> d           1.286   1.562  -0.002  0.00  0.00     0.057 C 
ENDROOT
BRANCH   1   2
ATOM      2  C4  <0> d           2.040   1.127  -1.261  0.00  0.00    -0.036 C 
ATOM      3  H8  <0> d           3.059   1.512  -1.225  0.00  0.00     0.037 H 
ATOM      4  H9  <0> d           2.063   0.039  -1.313  0.00  0.00     0.037 H 
BRANCH   2   5
ATOM      5  C3  <0> d           1.329   1.682  -2.497  0.00  0.00    -0.063 C 
ATOM      6  H6  <0> d           0.310   1.298  -2.533  0.00  0.00     0.033 H 
ATOM      7  H7  <0> d           1.306   2.770  -2.445  0.00  0.00     0.033 H 
BRANCH   5   8
ATOM      8  C2  <0> d           2.083   1.248  -3.756  0.00  0.00    -0.068 C 
ATOM      9  H4  <0> d           3.102   1.631  -3.720  0.00  0.00     0.032 H 
ATOM     10  H5  <0> d           2.106   0.159  -3.808  0.00  0.00     0.032 H 
BRANCH   8  11
ATOM     11  C1  <0> d           1.372   1.802  -4.992  0.00  0.00    -0.077 C 
ATOM     12  H1  <0> d           0.353   1.418  -5.028  0.00  0.00     0.027 H 
ATOM     13  H2  <0> d           1.349   2.890  -4.940  0.00  0.00     0.027 H 
ATOM     14  H3  <0> d           1.909   1.492  -5.889  0.00  0.00     0.027 H 
ENDBRANCH   8  11
ENDBRANCH   5   8
ENDBRANCH   2   5
ENDBRANCH   1   2
BRANCH   1  15
ATOM     15  C6  <0> d           1.145   3.085   0.008  0.00  0.00    -0.048 C 
ATOM     16  H10 <0> d           0.608   3.395   0.904  0.00  0.00     0.031 H 
ATOM     17  H11 <0> d           2.135   3.542   0.001  0.00  0.00     0.031 H 
ATOM     18  H12 <0> d           0.591   3.404  -0.875  0.00  0.00     0.031 H 
ENDBRANCH   1  15
BRANCH   1  19
ATOM     19  C7  <0> d           2.064   1.114   1.238  0.00  0.00    -0.032 C 
ATOM     20  H13 <0> d           2.164   0.029   1.231  0.00  0.00     0.043 H 
BRANCH  19  21
ATOM     21  C8  <0> d           3.453   1.755   1.228  0.00  0.00    -0.070 C 
ATOM     22  H14 <0> d           3.352   2.841   1.235  0.00  0.00     0.028 H 
ATOM     23  H15 <0> d           4.006   1.436   2.111  0.00  0.00     0.028 H 
ATOM     24  H16 <0> d           3.989   1.446   0.331  0.00  0.00     0.028 H 
ENDBRANCH  19  21
BRANCH  19  25
ATOM     25  C9  <0> d           1.310   1.548   2.497  0.00  0.00    -0.070 C 
ATOM     26  H17 <0> d           0.321   1.091   2.503  0.00  0.00     0.028 H 
ATOM     27  H18 <0> d           1.864   1.229   3.380  0.00  0.00     0.028 H 
ATOM     28  H19 <0> d           1.209   2.634   2.503  0.00  0.00     0.028 H 
ENDBRANCH  19  25
ENDBRANCH   1  19
BRANCH   1  29
ATOM     29  O1  <0> d          -0.011   0.963   0.007  0.00  0.00    -0.390 OA
ATOM     30  H20 <0> d           0.002  -0.004   0.002  0.00  0.00     0.210 HD
ENDBRANCH   1  29
TORSDOF 9
