REMARK  1 active torsions:
REMARK  status: ('A' for Active; 'I' for Inactive)
REMARK    1  A    between atoms: C2_2  and  C3_3 
ROOT
ATOM      1  C3  <0> d           1.317  -0.740  -0.015  0.00  0.00    -0.038 C 
ATOM      2  C4  <0> d           1.422  -1.625   1.229  0.00  0.00    -0.059 C 
ATOM      3  C5  <0> d           2.757  -2.372   1.212  0.00  0.00    -0.064 C 
ATOM      4  C6  <0> d           2.838  -3.243  -0.043  0.00  0.00    -0.065 C 
ATOM      5  C7  <0> d           2.733  -2.358  -1.286  0.00  0.00    -0.064 C 
ATOM      6  C8  <0> d           1.398  -1.611  -1.269  0.00  0.00    -0.059 C 
ATOM      7  H4  <0> d           2.136  -0.020  -0.018  0.00  0.00     0.045 H 
ATOM      8  H5  <0> d           1.364  -1.004   2.123  0.00  0.00     0.033 H 
ATOM      9  H6  <0> d           0.603  -2.344   1.233  0.00  0.00     0.033 H 
ATOM     10  H7  <0> d           3.576  -1.652   1.208  0.00  0.00     0.033 H 
ATOM     11  H8  <0> d           2.832  -3.002   2.098  0.00  0.00     0.033 H 
ATOM     12  H9  <0> d           3.790  -3.776  -0.054  0.00  0.00     0.033 H 
ATOM     13  H10 <0> d           2.020  -3.963  -0.038  0.00  0.00     0.033 H 
ATOM     14  H11 <0> d           3.552  -1.639  -1.290  0.00  0.00     0.033 H 
ATOM     15  H12 <0> d           2.791  -2.979  -2.180  0.00  0.00     0.033 H 
ATOM     16  H13 <0> d           0.580  -2.331  -1.265  0.00  0.00     0.033 H 
ATOM     17  H14 <0> d           1.323  -0.981  -2.155  0.00  0.00     0.033 H 
ENDROOT
BRANCH   1  18
ATOM     18  C2  <0> d           0.002  -0.004   0.002  0.00  0.00    -0.107 C 
ATOM     19  C1  <0> d          -0.016   1.306   0.009  0.00  0.00    -0.124 C 
ATOM     20  H1  <0> d           0.912   1.859   0.003  0.00  0.00     0.066 H 
ATOM     21  H2  <0> d          -0.958   1.833   0.017  0.00  0.00     0.066 H 
ATOM     22  H3  <0> d          -0.926  -0.557   0.008  0.00  0.00     0.075 H 
ENDBRANCH   1  18
TORSDOF 1
