REMARK  0 active torsions:
REMARK  status: ('A' for Active; 'I' for Inactive)
ROOT
ATOM      1  C1  <0> d           1.962   2.943   0.391  0.00  0.00    -0.041 A 
ATOM      2  C2  <0> d           3.343   3.033   0.269  0.00  0.00    -0.049 A 
ATOM      3  C3  <0> d           4.061   1.975  -0.242  0.00  0.00    -0.049 A 
ATOM      4  C4  <0> d           3.407   0.815  -0.638  0.00  0.00    -0.041 A 
ATOM      5  C5  <0> d           2.034   0.720  -0.519  0.00  0.00     0.105 A 
ATOM      6  C6  <0> d           1.306   1.791  -0.001  0.00  0.00     0.105 A 
ATOM      7  O1  <0> d          -0.018   1.443   0.010  0.00  0.00    -0.323 OA
ATOM      8  C7  <0> d           0.002  -0.004   0.002  0.00  0.00     0.115 C 
ATOM      9  O2  <0> d           1.156  -0.284  -0.825  0.00  0.00    -0.323 OA
ATOM     10  C8  <0> d           5.372   2.701  -0.098  0.00  0.00    -0.037 A 
ATOM     11  C9  <0> d           4.578   3.871   0.467  0.00  0.00    -0.037 A 
ATOM     12  H1  <0> d           1.401   3.773   0.792  0.00  0.00     0.088 H 
ATOM     13  H2  <0> d           3.973  -0.013  -1.038  0.00  0.00     0.088 H 
ATOM     14  H3  <0> d           0.141  -0.397   1.009  0.00  0.00     0.118 H 
ATOM     15  H4  <0> d          -0.906  -0.403  -0.449  0.00  0.00     0.118 H 
ATOM     16  H5  <0> d           6.048   2.243   0.624  0.00  0.00     0.040 H 
ATOM     17  H6  <0> d           5.856   2.922  -1.050  0.00  0.00     0.040 H 
ATOM     18  H7  <0> d           4.606   4.761  -0.161  0.00  0.00     0.040 H 
ATOM     19  H8  <0> d           4.798   4.084   1.513  0.00  0.00     0.040 H 
ENDROOT
TORSDOF 0
