REMARK  4 active torsions:
REMARK  status: ('A' for Active; 'I' for Inactive)
REMARK    1  A    between atoms: C1_1  and  C2_2 
REMARK    2  A    between atoms: C2_2  and  C7_7 
REMARK    3  A    between atoms: C4_4  and  C5_5 
REMARK    4  A    between atoms: C4_4  and  C6_6 
ROOT
ATOM      1  C2  <0> d           0.002  -0.004   0.002  0.00  0.00    -0.040 A 
ATOM      2  C3  <0> d           1.351  -0.691  -0.218  0.00  0.00    -0.051 A 
ATOM      3  C4  <0> d           0.701  -0.708   1.167  0.00  0.00    -0.040 A 
ATOM      4  H4  <0> d           1.355  -1.623  -0.783  0.00  0.00     0.035 H 
ATOM      5  H5  <0> d           2.224  -0.053  -0.357  0.00  0.00     0.035 H 
ENDROOT
BRANCH   1   6
ATOM      6  C1  <0> d          -0.019   1.526   0.010  0.00  0.00    -0.069 C 
ATOM      7  H1  <0> d           1.004   1.903   0.003  0.00  0.00     0.028 H 
ATOM      8  H2  <0> d          -0.546   1.887  -0.873  0.00  0.00     0.028 H 
ATOM      9  H3  <0> d          -0.529   1.877   0.907  0.00  0.00     0.028 H 
ENDBRANCH   1   6
BRANCH   1  10
ATOM     10  C7  <0> d          -1.239  -0.678  -0.588  0.00  0.00    -0.069 C 
ATOM     11  H12 <0> d          -1.628  -0.070  -1.405  0.00  0.00     0.028 H 
ATOM     12  H13 <0> d          -0.972  -1.665  -0.964  0.00  0.00     0.028 H 
ATOM     13  H14 <0> d          -2.000  -0.777   0.186  0.00  0.00     0.028 H 
ENDBRANCH   1  10
BRANCH   3  14
ATOM     14  C5  <0> d           0.107  -2.031   1.653  0.00  0.00    -0.069 C 
ATOM     15  H6  <0> d           0.111  -2.753   0.836  0.00  0.00     0.028 H 
ATOM     16  H7  <0> d           0.703  -2.415   2.480  0.00  0.00     0.028 H 
ATOM     17  H8  <0> d          -0.918  -1.868   1.988  0.00  0.00     0.028 H 
ENDBRANCH   3  14
BRANCH   3  18
ATOM     18  C6  <0> d           1.326   0.173   2.251  0.00  0.00    -0.069 C 
ATOM     19  H9  <0> d           0.553   0.789   2.709  0.00  0.00     0.028 H 
ATOM     20  H10 <0> d           1.786  -0.459   3.012  0.00  0.00     0.028 H 
ATOM     21  H11 <0> d           2.086   0.815   1.805  0.00  0.00     0.028 H 
ENDBRANCH   3  18
TORSDOF 4
