REMARK  2 active torsions:
REMARK  status: ('A' for Active; 'I' for Inactive)
REMARK    1  A    between atoms: C4_4  and  C6_6 
REMARK    2  A    between atoms: C6_6  and  C7_7 
ROOT
ATOM      1  C1  <0> d          -1.978   2.421  -0.670  0.00  0.00    -0.065 C 
ATOM      2  C2  <0> d          -0.784   1.609  -1.216  0.00  0.00    -0.065 C 
ATOM      3  C3  <0> d          -0.013   1.086   0.008  0.00  0.00    -0.061 C 
ATOM      4  C4  <0> d          -0.763   1.597   1.255  0.00  0.00    -0.045 C 
ATOM      5  C5  <0> d          -1.531   2.845   0.750  0.00  0.00    -0.061 C 
ATOM      6  H1  <0> d          -2.159   3.298  -1.292  0.00  0.00     0.033 H 
ATOM      7  H2  <0> d          -2.871   1.798  -0.619  0.00  0.00     0.033 H 
ATOM      8  H3  <0> d          -0.140   2.251  -1.817  0.00  0.00     0.033 H 
ATOM      9  H4  <0> d          -1.144   0.773  -1.816  0.00  0.00     0.033 H 
ATOM     10  H5  <0> d           0.002  -0.004   0.002  0.00  0.00     0.033 H 
ATOM     11  H6  <0> d           1.006   1.473   0.000  0.00  0.00     0.033 H 
ATOM     12  H7  <0> d          -1.460   0.842   1.618  0.00  0.00     0.040 H 
ATOM     13  H8  <0> d          -0.871   3.712   0.705  0.00  0.00     0.033 H 
ATOM     14  H9  <0> d          -2.395   3.052   1.382  0.00  0.00     0.033 H 
ENDROOT
BRANCH   4  15
ATOM     15  C6  <0> d           0.228   1.986   2.354  0.00  0.00     0.019 C 
ATOM     16  H10 <0> d           0.882   1.140   2.569  0.00  0.00     0.049 H 
ATOM     17  H11 <0> d           0.827   2.833   2.021  0.00  0.00     0.049 H 
BRANCH  15  18
ATOM     18  C7  <0> d          -0.528   2.364   3.602  0.00  0.00     0.172 C 
ATOM     19  O1  <0> d          -1.736   2.328   3.610  0.00  0.00    -0.648 OA
ATOM     20  O2  <0> d           0.140   2.743   4.703  0.00  0.00    -0.648 OA
ENDBRANCH  15  18
ENDBRANCH   4  15
TORSDOF 2
