REMARK  7 active torsions:
REMARK  status: ('A' for Active; 'I' for Inactive)
REMARK    1  A    between atoms: C1_1  and  C2_2 
REMARK    2  A    between atoms: C2_2  and  O1_3 
REMARK    3  A    between atoms: O1_3  and  C3_4 
REMARK    4  A    between atoms: C3_4  and  C4_6 
REMARK    5  A    between atoms: C3_4  and  O2_7 
REMARK    6  A    between atoms: O2_7  and  C5_8 
REMARK    7  A    between atoms: C5_8  and  C6_10 
ROOT
ATOM      1  C3  <0> d          -0.138   1.046   2.387  0.00  0.00     0.136 C 
ATOM      2  H1  <0> d           0.015  -0.033   2.386  0.00  0.00     0.129 H 
ENDROOT
BRANCH   1   3
ATOM      3  O1  <0> d          -0.598   1.463   1.100  0.00  0.00    -0.362 OA
BRANCH   3   4
ATOM      4  C2  <0> d           0.149   0.916   0.011  0.00  0.00     0.019 C 
ATOM      5  H5  <0> d           0.175  -0.170   0.098  0.00  0.00     0.073 H 
ATOM      6  H6  <0> d           1.166   1.307   0.035  0.00  0.00     0.073 H 
BRANCH   4   7
ATOM      7  C1  <0> d          -0.517   1.306  -1.310  0.00  0.00    -0.056 C 
ATOM      8  H2  <0> d          -0.542   2.392  -1.397  0.00  0.00     0.030 H 
ATOM      9  H3  <0> d           0.052   0.888  -2.141  0.00  0.00     0.030 H 
ATOM     10  H4  <0> d          -1.534   0.915  -1.334  0.00  0.00     0.030 H 
ENDBRANCH   4   7
ENDBRANCH   3   4
ENDBRANCH   1   3
BRANCH   1  11
ATOM     11  C4  <0> d          -1.182   1.412   3.444  0.00  0.00    -0.031 C 
ATOM     12  H7  <0> d          -0.832   1.094   4.426  0.00  0.00     0.034 H 
ATOM     13  H8  <0> d          -1.335   2.491   3.445  0.00  0.00     0.034 H 
ATOM     14  H9  <0> d          -2.123   0.912   3.214  0.00  0.00     0.034 H 
ENDBRANCH   1  11
BRANCH   1  15
ATOM     15  O2  <0> d           1.115   1.712   2.693  0.00  0.00    -0.290 OA
BRANCH  15  16
ATOM     16  C5  <0> d           2.223   1.223   2.114  0.00  0.00     0.257 C 
ATOM     17  O3  <0> d           2.165   0.208   1.460  0.00  0.00    -0.266 OA
BRANCH  16  18
ATOM     18  C6  <0> d           3.538   1.939   2.279  0.00  0.00     0.004 C 
ATOM     19  H10 <0> d           4.052   1.558   3.162  0.00  0.00     0.041 H 
ATOM     20  H11 <0> d           4.157   1.770   1.397  0.00  0.00     0.041 H 
ATOM     21  H12 <0> d           3.358   3.008   2.397  0.00  0.00     0.041 H 
ENDBRANCH  16  18
ENDBRANCH  15  16
ENDBRANCH   1  15
TORSDOF 7
