REMARK  1 active torsions:
REMARK  status: ('A' for Active; 'I' for Inactive)
REMARK    1  A    between atoms: C3_4  and  N3_8 
ROOT
ATOM      1  C1  <0> d          -0.016   1.300   0.009  0.00  0.00     0.069 A 
ATOM      2  N1  <0> d           1.121   2.026   0.002  0.00  0.00    -0.316 N 
ATOM      3  C2  <0> d           2.322   1.409  -0.013  0.00  0.00     0.277 A 
ATOM      4  C3  <0> d           2.357   0.001  -0.020  0.00  0.00     0.151 A 
ATOM      5  C4  <0> d           1.155  -0.687  -0.013  0.00  0.00     0.233 A 
ATOM      6  N2  <0> d           0.002  -0.004   0.002  0.00  0.00    -0.215 NA
ATOM      7  O1  <0> d           1.145  -2.042  -0.020  0.00  0.00    -0.167 OA
ATOM      8  O2  <0> d           3.356   2.058  -0.019  0.00  0.00    -0.266 OA
ATOM      9  H1  <0> d          -0.966   1.813   0.026  0.00  0.00     0.143 H 
ATOM     10  H4  <0> d           1.076   2.995   0.007  0.00  0.00     0.170 HD
ENDROOT
BRANCH   4  11
ATOM     11  N3  <0> d           3.582  -0.689  -0.036  0.00  0.00    -0.391 N 
ATOM     12  H2  <0> d           4.417  -0.195  -0.042  0.00  0.00     0.156 HD
ATOM     13  H3  <0> d           3.592  -1.659  -0.041  0.00  0.00     0.156 HD
ENDBRANCH   4  11
TORSDOF 1
