REMARK  3 active torsions:
REMARK  status: ('A' for Active; 'I' for Inactive)
REMARK    1  A    between atoms: C1_1  and  C2_2 
REMARK    2  A    between atoms: C2_2  and  C3_3 
REMARK    3  A    between atoms: N1_11  and  C9_12 
ROOT
ATOM      1  C3  <0> d          -0.018   1.468   0.010  0.00  0.00     0.014 C 
ATOM      2  H1  <0> d          -0.145   2.193  -0.794  0.00  0.00     0.072 H 
ATOM      3  C4  <0> d           1.472   1.279   0.301  0.00  0.00    -0.046 C 
ATOM      4  C5  <0> d           1.691   0.833   1.735  0.00  0.00    -0.063 C 
ATOM      5  C6  <0> d           1.161  -0.558   2.032  0.00  0.00    -0.057 C 
ATOM      6  C7  <0> d          -0.367  -0.587   1.942  0.00  0.00     0.009 C 
ATOM      7  C8  <0> d          -0.759  -0.801   0.496  0.00  0.00     0.219 C 
ATOM      8  O1  <0> d          -1.232  -1.863   0.149  0.00  0.00    -0.273 OA
ATOM      9  N1  <0> d          -0.586   0.173  -0.399  0.00  0.00    -0.352 N 
ATOM     10  H7  <0> d           1.877   0.525  -0.375  0.00  0.00     0.036 H 
ATOM     11  H8  <0> d           1.992   2.223   0.136  0.00  0.00     0.036 H 
ATOM     12  H9  <0> d           1.198   1.542   2.399  0.00  0.00     0.033 H 
ATOM     13  H10 <0> d           2.761   0.850   1.945  0.00  0.00     0.033 H 
ATOM     14  H11 <0> d           1.467  -0.852   3.036  0.00  0.00     0.033 H 
ATOM     15  H12 <0> d           1.576  -1.261   1.310  0.00  0.00     0.033 H 
ATOM     16  H13 <0> d          -0.772   0.362   2.295  0.00  0.00     0.047 H 
ATOM     17  H14 <0> d          -0.757  -1.401   2.553  0.00  0.00     0.047 H 
ENDROOT
BRANCH   1  18
ATOM     18  C2  <0> d          -0.728   1.965   1.271  0.00  0.00    -0.049 C 
ATOM     19  H5  <0> d          -1.751   1.589   1.284  0.00  0.00     0.035 H 
ATOM     20  H6  <0> d          -0.198   1.605   2.152  0.00  0.00     0.035 H 
BRANCH  18  21
ATOM     21  C1  <0> d          -0.747   3.494   1.276  0.00  0.00    -0.075 C 
ATOM     22  H2  <0> d           0.276   3.871   1.263  0.00  0.00     0.027 H 
ATOM     23  H3  <0> d          -1.278   3.854   0.395  0.00  0.00     0.027 H 
ATOM     24  H4  <0> d          -1.253   3.848   2.175  0.00  0.00     0.027 H 
ENDBRANCH  18  21
ENDBRANCH   1  18
BRANCH   9  25
ATOM     25  C9  <0> d          -0.963  -0.047  -1.797  0.00  0.00    -0.016 C 
ATOM     26  H15 <0> d          -0.112  -0.453  -2.344  0.00  0.00     0.056 H 
ATOM     27  H16 <0> d          -1.794  -0.752  -1.843  0.00  0.00     0.056 H 
ATOM     28  H17 <0> d          -1.265   0.899  -2.245  0.00  0.00     0.056 H 
ENDBRANCH   9  25
TORSDOF 3
