REMARK  7 active torsions:
REMARK  status: ('A' for Active; 'I' for Inactive)
REMARK    1  A    between atoms: C1_1  and  N1_2 
REMARK    2  A    between atoms: N1_2  and  C2_3 
REMARK    3  A    between atoms: N1_2  and  C3_4 
REMARK    4  A    between atoms: C3_4  and  C4_5 
REMARK    5  A    between atoms: C5_6  and  C6_7 
REMARK    6  A    between atoms: C7_8  and  O1_9 
REMARK    7  A    between atoms: O1_9  and  C8_10 
ROOT
ATOM      1  C3  <0> d           0.871   0.487   7.102  0.00  0.00     0.166 C 
ATOM      2  H7  <0> d           1.899   0.871   7.178  0.00  0.00     0.099 H 
ATOM      3  H8  <0> d           0.882  -0.610   7.179  0.00  0.00     0.099 H 
ENDROOT
BRANCH   1   4
ATOM      4  N1  <0> d           0.059   1.047   8.191  0.00  0.00     0.090 N 
BRANCH   4   5
ATOM      5  C1  <0> d          -1.283   0.447   8.209  0.00  0.00     0.096 C 
ATOM      6  H1  <0> d          -1.760   0.588   7.228  0.00  0.00     0.071 H 
ATOM      7  H2  <0> d          -1.891   0.933   8.986  0.00  0.00     0.071 H 
ATOM      8  H3  <0> d          -1.201  -0.628   8.426  0.00  0.00     0.071 H 
ENDBRANCH   4   5
BRANCH   4   9
ATOM      9  C2  <0> d           0.728   0.877   9.488  0.00  0.00     0.096 C 
ATOM     10  H4  <0> d           1.728   1.334   9.447  0.00  0.00     0.071 H 
ATOM     11  H5  <0> d           0.824  -0.195   9.714  0.00  0.00     0.071 H 
ATOM     12  H6  <0> d           0.133   1.366  10.274  0.00  0.00     0.071 H 
ENDBRANCH   4   9
ENDBRANCH   1   4
BRANCH   1  13
ATOM     13  C4  <0> d           0.294   0.882   5.807  0.00  0.00    -0.072 C 
ATOM     14  C5  <0> d          -0.167   1.197   4.774  0.00  0.00    -0.075 C 
BRANCH  14  15
ATOM     15  C6  <0> d          -0.728   1.581   3.514  0.00  0.00    -0.012 C 
ATOM     16  C7  <0> d          -0.151   1.183   2.376  0.00  0.00     0.019 C 
ATOM     17  H10 <0> d           0.756   0.561   2.407  0.00  0.00     0.123 H 
ATOM     18  H9  <0> d          -1.634   2.204   3.482  0.00  0.00     0.100 H 
BRANCH  16  19
ATOM     19  O1  <0> d          -0.682   1.547   1.184  0.00  0.00    -0.367 OA
BRANCH  19  20
ATOM     20  C8  <0> d          -0.013   1.086   0.008  0.00  0.00     0.009 C 
ATOM     21  H11 <0> d          -0.545   1.450  -0.883  0.00  0.00     0.066 H 
ATOM     22  H12 <0> d           0.002  -0.014   0.002  0.00  0.00     0.066 H 
ATOM     23  H13 <0> d           1.019   1.466   0.000  0.00  0.00     0.066 H 
ENDBRANCH  19  20
ENDBRANCH  16  19
ENDBRANCH  14  15
ENDBRANCH   1  13
TORSDOF 7
