REMARK  0 active torsions:
REMARK  status: ('A' for Active; 'I' for Inactive)
ROOT
ATOM      1  C1  <0> d           0.656   3.670   1.221  0.00  0.00    -0.064 C 
ATOM      2  C2  <0> d           1.383   3.158  -0.024  0.00  0.00    -0.063 C 
ATOM      3  C3  <0> d           1.418   1.629  -0.003  0.00  0.00    -0.040 C 
ATOM      4  C4  <0> d          -0.013   1.086   0.008  0.00  0.00     0.051 C 
ATOM      5  H1  <0> d           0.002  -0.004   0.002  0.00  0.00     0.084 H 
ATOM      6  C5  <0> d          -0.735   1.595   1.264  0.00  0.00    -0.011 C 
ATOM      7  H2  <0> d          -0.206   1.262   2.157  0.00  0.00     0.046 H 
ATOM      8  C6  <0> d          -0.773   3.124   1.238  0.00  0.00    -0.058 C 
ATOM      9  C7  <0> d          -2.162   1.035   1.250  0.00  0.00     0.022 C 
ATOM     10  N1  <0> d          -2.751   1.221  -0.073  0.00  0.00    -0.278 NA
ATOM     11  C8  <0> d          -2.064   1.457  -1.124  0.00  0.00     0.091 C 
ATOM     12  O1  <0> d          -0.712   1.573  -1.143  0.00  0.00    -0.339 OA
ATOM     13  H3  <0> d           1.183   3.334   2.114  0.00  0.00     0.033 H 
ATOM     14  H4  <0> d           0.628   4.759   1.204  0.00  0.00     0.033 H 
ATOM     15  H5  <0> d           2.402   3.545  -0.034  0.00  0.00     0.033 H 
ATOM     16  H6  <0> d           0.857   3.497  -0.917  0.00  0.00     0.033 H 
ATOM     17  H7  <0> d           1.942   1.290   0.891  0.00  0.00     0.036 H 
ATOM     18  H8  <0> d           1.938   1.265  -0.889  0.00  0.00     0.036 H 
ATOM     19  H9  <0> d          -1.292   3.490   2.124  0.00  0.00     0.033 H 
ATOM     20  H10 <0> d          -1.301   3.458   0.345  0.00  0.00     0.033 H 
ATOM     21  H11 <0> d          -2.136  -0.028   1.490  0.00  0.00     0.068 H 
ATOM     22  H12 <0> d          -2.764   1.560   1.992  0.00  0.00     0.068 H 
ATOM     23  H13 <0> d          -2.591   1.570  -2.060  0.00  0.00     0.154 H 
ENDROOT
TORSDOF 0
