REMARK  6 active torsions:
REMARK  status: ('A' for Active; 'I' for Inactive)
REMARK    1  A    between atoms: C1_1  and  C2_2 
REMARK    2  A    between atoms: C1_1  and  C3_8 
REMARK    3  A    between atoms: C2_2  and  N1_3 
REMARK    4  A    between atoms: N1_3  and  S1_4 
REMARK    5  A    between atoms: S1_4  and  O3_7 
REMARK    6  A    between atoms: C3_8  and  O4_9 
ROOT
ATOM      1  C2  <0> d          -2.174   1.261   1.634  0.00  0.00     0.006 C 
ATOM      2  H3  <0> d          -2.922   1.675   0.958  0.00  0.00     0.065 H 
ATOM      3  H4  <0> d          -2.110   0.183   1.488  0.00  0.00     0.065 H 
ENDROOT
BRANCH   1   4
ATOM      4  C1  <0> d          -2.575   1.557   3.081  0.00  0.00    -0.030 C 
ATOM      5  H1  <0> d          -1.827   1.143   3.757  0.00  0.00     0.038 H 
ATOM      6  H2  <0> d          -2.639   2.635   3.227  0.00  0.00     0.038 H 
BRANCH   4   7
ATOM      7  C3  <0> d          -3.935   0.920   3.374  0.00  0.00     0.018 C 
ATOM      8  H7  <0> d          -4.683   1.334   2.698  0.00  0.00     0.074 H 
ATOM      9  H8  <0> d          -3.870  -0.158   3.228  0.00  0.00     0.074 H 
BRANCH   7  10
ATOM     10  O4  <0> d          -4.309   1.196   4.725  0.00  0.00    -0.401 OA
ATOM     11  H9  <0> d          -5.163   0.822   4.981  0.00  0.00     0.209 HD
ENDBRANCH   7  10
ENDBRANCH   4   7
ENDBRANCH   1   4
BRANCH   1  12
ATOM     12  N1  <0> d          -0.872   1.871   1.353  0.00  0.00    -0.308 N 
ATOM     13  H5  <0> d          -0.510   2.541   1.955  0.00  0.00     0.173 HD
BRANCH  12  14
ATOM     14  S1  <0> d          -0.017   1.417   0.010  0.00  0.00     0.194 S 
ATOM     15  O1  <0> d           0.002  -0.004   0.002  0.00  0.00    -0.585 OA
ATOM     16  O2  <0> d           1.172   2.195   0.003  0.00  0.00    -0.585 OA
BRANCH  14  17
ATOM     17  O3  <0> d          -0.826   1.847  -1.205  0.00  0.00    -0.279 OA
ATOM     18  H6  <0> d          -0.413   1.628  -2.051  0.00  0.00     0.234 HD
ENDBRANCH  14  17
ENDBRANCH  12  14
ENDBRANCH   1  12
TORSDOF 6
