REMARK  3 active torsions:
REMARK  status: ('A' for Active; 'I' for Inactive)
REMARK    1  A    between atoms: C1_1  and  C2_2 
REMARK    2  A    between atoms: C3_3  and  C8_9 
REMARK    3  A    between atoms: C7_7  and  N1_8 
REMARK       I    between atoms: C8_9  and  N2_11 
ROOT
ATOM      1  C2  <0> d           2.369   1.450  -0.008  0.00  0.00    -0.020 A 
ATOM      2  C3  <0> d           1.143   2.066  -0.259  0.00  0.00     0.040 A 
ATOM      3  C4  <0> d          -0.028   1.307  -0.256  0.00  0.00    -0.067 A 
ATOM      4  C5  <0> d           0.030  -0.049  -0.004  0.00  0.00    -0.080 A 
ATOM      5  C6  <0> d           1.244  -0.660   0.246  0.00  0.00    -0.057 A 
ATOM      6  C7  <0> d           2.417   0.088   0.244  0.00  0.00     0.032 A 
ATOM      7  H4  <0> d          -0.978   1.779  -0.455  0.00  0.00     0.085 H 
ATOM      8  H5  <0> d          -0.878  -0.635  -0.001  0.00  0.00     0.083 H 
ATOM      9  H6  <0> d           1.283  -1.721   0.443  0.00  0.00     0.086 H 
ENDROOT
BRANCH   2  10
ATOM     10  C8  <0> d           1.085   3.519  -0.529  0.00  0.00     0.249 C 
ATOM     11  O1  <0> d           2.112   4.158  -0.643  0.00  0.00    -0.268 OA
ATOM     12  N2  <0> d          -0.108   4.134  -0.649  0.00  0.00    -0.366 N 
ATOM     13  H9  <0> d          -0.928   3.624  -0.557  0.00  0.00     0.159 HD
ATOM     14  H10 <0> d          -0.147   5.087  -0.826  0.00  0.00     0.159 HD
ENDBRANCH   2  10
BRANCH   1  15
ATOM     15  C1  <0> d           3.639   2.263  -0.010  0.00  0.00    -0.048 C 
ATOM     16  H1  <0> d           3.997   2.374  -1.033  0.00  0.00     0.033 H 
ATOM     17  H2  <0> d           3.440   3.247   0.414  0.00  0.00     0.033 H 
ATOM     18  H3  <0> d           4.396   1.756   0.588  0.00  0.00     0.033 H 
ENDBRANCH   1  15
BRANCH   6  19
ATOM     19  N1  <0> d           3.642  -0.534   0.497  0.00  0.00    -0.399 N 
ATOM     20  H7  <0> d           3.674  -1.487   0.674  0.00  0.00     0.156 HD
ATOM     21  H8  <0> d           4.460  -0.013   0.496  0.00  0.00     0.156 HD
ENDBRANCH   6  19
TORSDOF 3
