REMARK  4 active torsions:
REMARK  status: ('A' for Active; 'I' for Inactive)
REMARK    1  A    between atoms: C1_1  and  O1_2 
REMARK    2  A    between atoms: O1_2  and  C2_3 
REMARK    3  A    between atoms: C4_5  and  N1_10 
REMARK    4  A    between atoms: C7_8  and  O2_9 
ROOT
ATOM      1  C2  <0> d          -3.633   1.616   0.029  0.00  0.00     0.103 A 
ATOM      2  C3  <0> d          -2.425   0.939   0.019  0.00  0.00    -0.023 A 
ATOM      3  C4  <0> d          -1.232   1.649   0.017  0.00  0.00     0.028 A 
ATOM      4  C5  <0> d          -1.251   3.037   0.030  0.00  0.00    -0.055 A 
ATOM      5  C6  <0> d          -2.456   3.713   0.034  0.00  0.00    -0.046 A 
ATOM      6  C7  <0> d          -3.648   3.007   0.037  0.00  0.00     0.099 A 
ATOM      7  H4  <0> d          -2.411  -0.141   0.013  0.00  0.00     0.091 H 
ATOM      8  H5  <0> d          -0.323   3.589   0.033  0.00  0.00     0.087 H 
ATOM      9  H6  <0> d          -2.469   4.793   0.041  0.00  0.00     0.087 H 
ENDROOT
BRANCH   1  10
ATOM     10  O1  <0> d          -4.803   0.923   0.030  0.00  0.00    -0.353 OA
BRANCH  10  11
ATOM     11  C1  <0> d          -4.711  -0.503   0.021  0.00  0.00     0.010 C 
ATOM     12  H1  <0> d          -4.171  -0.839   0.906  0.00  0.00     0.066 H 
ATOM     13  H2  <0> d          -5.713  -0.932   0.023  0.00  0.00     0.066 H 
ATOM     14  H3  <0> d          -4.179  -0.828  -0.874  0.00  0.00     0.066 H 
ENDBRANCH  10  11
ENDBRANCH   1  10
BRANCH   6  15
ATOM     15  O2  <0> d          -4.835   3.675   0.046  0.00  0.00    -0.358 OA
ATOM     16  H7  <0> d          -5.173   3.863   0.933  0.00  0.00     0.217 HD
ENDBRANCH   6  15
BRANCH   3  17
ATOM     17  N1  <0> d          -0.011   0.966   0.007  0.00  0.00    -0.399 N 
ATOM     18  H8  <0> d           0.002  -0.004   0.002  0.00  0.00     0.156 HD
ATOM     19  H9  <0> d           0.822   1.462   0.002  0.00  0.00     0.156 HD
ENDBRANCH   3  17
TORSDOF 4
