REMARK  2 active torsions:
REMARK  status: ('A' for Active; 'I' for Inactive)
REMARK    1  A    between atoms: N1_4  and  C5_6 
REMARK    2  A    between atoms: C5_6  and  N2_7 
ROOT
ATOM      1  C5  <0> d           0.002  -0.004   0.002  0.00  0.00     0.062 C 
ATOM      2  H5  <0> d          -0.888  -0.377  -0.505  0.00  0.00     0.098 H 
ATOM      3  H6  <0> d           0.892  -0.352  -0.522  0.00  0.00     0.098 H 
ENDROOT
BRANCH   1   4
ATOM      4  N1  <0> d          -0.018   1.461   0.010  0.00  0.00    -0.350 N 
ATOM      5  C3  <0> d           1.079   2.270   0.004  0.00  0.00    -0.019 A 
ATOM      6  C2  <0> d           0.658   3.551   0.015  0.00  0.00    -0.067 A 
ATOM      7  H3  <0> d           2.108   1.942  -0.007  0.00  0.00     0.111 H 
ATOM      8  C1  <0> d          -0.750   3.532   0.028  0.00  0.00    -0.067 A 
ATOM      9  H2  <0> d           1.286   4.430   0.014  0.00  0.00     0.085 H 
ATOM     10  C4  <0> d          -1.137   2.240   0.019  0.00  0.00    -0.019 A 
ATOM     11  H1  <0> d          -1.401   4.394   0.039  0.00  0.00     0.085 H 
ATOM     12  H4  <0> d          -2.156   1.884   0.021  0.00  0.00     0.111 H 
ENDBRANCH   1   4
BRANCH   1  13
ATOM     13  N2  <0> d           0.022  -0.500   1.381  0.00  0.00    -0.350 N 
ATOM     14  C9  <0> d          -1.075  -0.784   2.138  0.00  0.00    -0.019 A 
ATOM     15  C8  <0> d          -0.654  -1.214   3.345  0.00  0.00    -0.067 A 
ATOM     16  H10 <0> d          -2.104  -0.681   1.826  0.00  0.00     0.111 H 
ATOM     17  C7  <0> d           0.754  -1.194   3.332  0.00  0.00    -0.067 A 
ATOM     18  H9  <0> d          -1.282  -1.517   4.170  0.00  0.00     0.085 H 
ATOM     19  C6  <0> d           1.141  -0.759   2.115  0.00  0.00    -0.019 A 
ATOM     20  H8  <0> d           1.405  -1.480   4.145  0.00  0.00     0.085 H 
ATOM     21  H7  <0> d           2.160  -0.635   1.782  0.00  0.00     0.111 H 
ENDBRANCH   1  13
TORSDOF 2
