REMARK  1 active torsions:
REMARK  status: ('A' for Active; 'I' for Inactive)
REMARK    1  A    between atoms: C4_5  and  C5_6 
ROOT
ATOM      1  C1  <0> d           1.208  -0.656  -0.013  0.00  0.00    -0.056 A 
ATOM      2  C2  <0> d           0.002  -0.004   0.002  0.00  0.00    -0.037 A 
ATOM      3  C3  <0> d          -0.016   1.359   0.009  0.00  0.00     0.158 A 
ATOM      4  S1  <0> d           1.666   1.778  -0.004  0.00  0.00    -0.053 SA
ATOM      5  C4  <0> d           2.352   0.131  -0.020  0.00  0.00     0.084 A 
ATOM      6  F1  <0> d          -1.086   2.184   0.019  0.00  0.00    -0.198 F 
ATOM      7  H1  <0> d           1.266  -1.734  -0.019  0.00  0.00     0.086 H 
ATOM      8  H2  <0> d          -0.922  -0.564   0.008  0.00  0.00     0.089 H 
ENDROOT
BRANCH   5   9
ATOM      9  C5  <0> d           3.753  -0.283  -0.035  0.00  0.00     0.216 C 
ATOM     10  O1  <0> d           4.038  -1.466  -0.044  0.00  0.00    -0.643 OA
ATOM     11  O2  <0> d           4.731   0.647  -0.040  0.00  0.00    -0.643 OA
ENDBRANCH   5   9
TORSDOF 1
