REMARK  5 active torsions:
REMARK  status: ('A' for Active; 'I' for Inactive)
REMARK    1  A    between atoms: C1_1  and  C2_2 
REMARK    2  A    between atoms: C2_2  and  C3_3 
REMARK       I    between atoms: C3_3  and  N1_5 
REMARK    3  A    between atoms: N1_5  and  C4_6 
REMARK    4  A    between atoms: C4_6  and  C5_8 
REMARK    5  A    between atoms: C4_6  and  C6_9 
ROOT
ATOM      1  C3  <0> d          -0.718   1.572   1.248  0.00  0.00     0.217 C 
ATOM      2  O1  <0> d          -1.714   2.256   1.150  0.00  0.00    -0.274 OA
ATOM      3  N1  <0> d          -0.242   1.246   2.466  0.00  0.00    -0.347 N 
ATOM      4  H7  <0> d           0.555   0.699   2.544  0.00  0.00     0.163 HD
ENDROOT
BRANCH   3   5
ATOM      5  C4  <0> d          -0.927   1.718   3.671  0.00  0.00     0.092 C 
ATOM      6  H1  <0> d          -1.335   2.713   3.491  0.00  0.00     0.089 H 
BRANCH   5   7
ATOM      7  C5  <0> d          -2.065   0.757   4.021  0.00  0.00    -0.048 C 
ATOM      8  H8  <0> d          -1.657  -0.238   4.201  0.00  0.00     0.030 H 
ATOM      9  H9  <0> d          -2.575   1.108   4.917  0.00  0.00     0.030 H 
ATOM     10  H10 <0> d          -2.773   0.715   3.193  0.00  0.00     0.030 H 
ENDBRANCH   5   7
BRANCH   5  11
ATOM     11  C6  <0> d           0.051   1.776   4.816  0.00  0.00     0.196 C 
ATOM     12  O2  <0> d           1.203   1.455   4.643  0.00  0.00    -0.646 OA
ATOM     13  O3  <0> d          -0.357   2.184   6.028  0.00  0.00    -0.646 OA
ENDBRANCH   5  11
ENDBRANCH   3   5
BRANCH   1  14
ATOM     14  C2  <0> d          -0.013   1.086   0.008  0.00  0.00     0.006 C 
ATOM     15  H5  <0> d           0.002  -0.004   0.002  0.00  0.00     0.046 H 
ATOM     16  H6  <0> d           1.010   1.463   0.000  0.00  0.00     0.046 H 
BRANCH  14  17
ATOM     17  C1  <0> d          -0.753   1.593  -1.232  0.00  0.00    -0.068 C 
ATOM     18  H2  <0> d          -0.767   2.683  -1.226  0.00  0.00     0.028 H 
ATOM     19  H3  <0> d          -0.242   1.241  -2.128  0.00  0.00     0.028 H 
ATOM     20  H4  <0> d          -1.775   1.215  -1.224  0.00  0.00     0.028 H 
ENDBRANCH  14  17
ENDBRANCH   1  14
TORSDOF 5
