REMARK  8 active torsions:
REMARK  status: ('A' for Active; 'I' for Inactive)
REMARK    1  A    between atoms: C1_1  and  C2_2 
REMARK    2  A    between atoms: C2_2  and  O1_3 
REMARK    3  A    between atoms: O1_3  and  C3_4 
REMARK    4  A    between atoms: C3_4  and  C4_5 
REMARK    5  A    between atoms: C4_5  and  O2_6 
REMARK    6  A    between atoms: O2_6  and  C5_7 
REMARK    7  A    between atoms: C5_7  and  C6_8 
REMARK    8  A    between atoms: C6_8  and  O3_9 
ROOT
ATOM      1  C4  <0> d           1.280   2.024   0.001  0.00  0.00     0.039 C 
ATOM      2  H8  <0> d           1.834   1.705   0.884  0.00  0.00     0.077 H 
ATOM      3  H9  <0> d           1.817   1.714  -0.896  0.00  0.00     0.077 H 
ENDROOT
BRANCH   1   4
ATOM      4  C3  <0> d           1.139   3.547   0.010  0.00  0.00     0.039 C 
ATOM      5  H6  <0> d           2.123   4.004  -0.086  0.00  0.00     0.077 H 
ATOM      6  H7  <0> d           0.510   3.859  -0.824  0.00  0.00     0.077 H 
BRANCH   4   7
ATOM      7  O1  <0> d           0.539   3.962   1.239  0.00  0.00    -0.389 OA
BRANCH   7   8
ATOM      8  C2  <0> d           0.361   5.376   1.351  0.00  0.00     0.016 C 
ATOM      9  H4  <0> d           1.330   5.870   1.282  0.00  0.00     0.073 H 
ATOM     10  H5  <0> d          -0.284   5.725   0.544  0.00  0.00     0.073 H 
BRANCH   8  11
ATOM     11  C1  <0> d          -0.285   5.703   2.699  0.00  0.00    -0.056 C 
ATOM     12  H1  <0> d          -1.253   5.208   2.767  0.00  0.00     0.030 H 
ATOM     13  H2  <0> d           0.360   5.354   3.505  0.00  0.00     0.030 H 
ATOM     14  H3  <0> d          -0.421   6.782   2.784  0.00  0.00     0.030 H 
ENDBRANCH   8  11
ENDBRANCH   7   8
ENDBRANCH   4   7
ENDBRANCH   1   4
BRANCH   1  15
ATOM     15  O2  <0> d          -0.017   1.425   0.010  0.00  0.00    -0.387 OA
BRANCH  15  16
ATOM     16  C5  <0> d           0.002  -0.004   0.002  0.00  0.00     0.039 C 
ATOM     17  H10 <0> d           0.512  -0.356  -0.895  0.00  0.00     0.077 H 
ATOM     18  H11 <0> d           0.529  -0.365   0.885  0.00  0.00     0.077 H 
BRANCH  16  19
ATOM     19  C6  <0> d          -1.433  -0.534   0.013  0.00  0.00     0.036 C 
ATOM     20  H12 <0> d          -1.419  -1.620   0.097  0.00  0.00     0.077 H 
ATOM     21  H13 <0> d          -1.970  -0.111   0.862  0.00  0.00     0.077 H 
BRANCH  19  22
ATOM     22  O3  <0> d          -2.089  -0.158  -1.200  0.00  0.00    -0.399 OA
ATOM     23  H14 <0> d          -3.005  -0.461  -1.262  0.00  0.00     0.209 HD
ENDBRANCH  19  22
ENDBRANCH  16  19
ENDBRANCH  15  16
ENDBRANCH   1  15
TORSDOF 8
