REMARK  1 active torsions:
REMARK  status: ('A' for Active; 'I' for Inactive)
REMARK    1  A    between atoms: N1_4  and  C5_6 
ROOT
ATOM      1  C5  <0> d           2.416   1.468  -0.012  0.00  0.00     0.041 A 
ATOM      2  C6  <0> d           2.735   0.112  -0.016  0.00  0.00    -0.040 A 
ATOM      3  C7  <0> d           4.062  -0.266  -0.035  0.00  0.00     0.004 A 
ATOM      4  N2  <0> d           5.022   0.639  -0.039  0.00  0.00    -0.273 NA
ATOM      5  C8  <0> d           4.761   1.933  -0.031  0.00  0.00     0.004 A 
ATOM      6  C9  <0> d           3.460   2.391  -0.017  0.00  0.00    -0.040 A 
ATOM      7  H5  <0> d           1.954  -0.634  -0.008  0.00  0.00     0.089 H 
ATOM      8  H6  <0> d           4.318  -1.315  -0.042  0.00  0.00     0.114 H 
ATOM      9  H7  <0> d           5.576   2.641  -0.035  0.00  0.00     0.114 H 
ATOM     10  H8  <0> d           3.253   3.451  -0.011  0.00  0.00     0.089 H 
ENDROOT
BRANCH   1  11
ATOM     11  N1  <0> d           1.083   1.892   0.002  0.00  0.00    -0.333 N 
ATOM     12  C3  <0> d          -0.013   1.076   0.008  0.00  0.00    -0.015 A 
ATOM     13  C2  <0> d          -1.115   1.851   0.017  0.00  0.00    -0.066 A 
ATOM     14  H3  <0> d           0.002  -0.004   0.002  0.00  0.00     0.112 H 
ATOM     15  C1  <0> d          -0.688   3.195   0.025  0.00  0.00    -0.066 A 
ATOM     16  H2  <0> d          -2.139   1.507   0.019  0.00  0.00     0.085 H 
ATOM     17  C4  <0> d           0.660   3.191   0.012  0.00  0.00    -0.015 A 
ATOM     18  H1  <0> d          -1.324   4.067   0.035  0.00  0.00     0.085 H 
ATOM     19  H4  <0> d           1.296   4.064   0.011  0.00  0.00     0.112 H 
ENDBRANCH   1  11
TORSDOF 1
