REMARK  2 active torsions:
REMARK  status: ('A' for Active; 'I' for Inactive)
REMARK    1  A    between atoms: C1_1  and  C2_2 
REMARK    2  A    between atoms: C2_2  and  C9_11 
ROOT
ATOM      1  C2  <0> d           1.235   3.094   0.007  0.00  0.00     0.052 C 
ATOM      2  C3  <0> d           0.673   3.654   1.337  0.00  0.00    -0.042 C 
ATOM      3  C4  <0> d           1.888   4.413   1.960  0.00  0.00    -0.036 C 
ATOM      4  H1  <0> d           1.825   4.660   3.020  0.00  0.00     0.046 H 
ATOM      5  C5  <0> d           3.067   3.469   1.524  0.00  0.00    -0.051 C 
ATOM      6  C6  <0> d           2.717   3.586  -0.005  0.00  0.00    -0.021 C 
ATOM      7  H2  <0> d           3.388   3.082  -0.700  0.00  0.00     0.048 H 
ATOM      8  C7  <0> d           2.603   5.111  -0.130  0.00  0.00    -0.101 C 
ATOM      9  C8  <0> d           2.126   5.587   1.002  0.00  0.00    -0.102 C 
ATOM     10  H6  <0> d          -0.151   4.341   1.146  0.00  0.00     0.035 H 
ATOM     11  H7  <0> d           0.353   2.842   1.990  0.00  0.00     0.035 H 
ATOM     12  H8  <0> d           2.950   2.453   1.902  0.00  0.00     0.035 H 
ATOM     13  H9  <0> d           4.046   3.886   1.762  0.00  0.00     0.035 H 
ATOM     14  H10 <0> d           2.869   5.694  -0.999  0.00  0.00     0.077 H 
ATOM     15  H11 <0> d           1.934   6.628   1.218  0.00  0.00     0.076 H 
ENDROOT
BRANCH   1  16
ATOM     16  C1  <0> d           0.469   3.667  -1.188  0.00  0.00    -0.059 C 
ATOM     17  H3  <0> d          -0.571   3.342  -1.141  0.00  0.00     0.029 H 
ATOM     18  H4  <0> d           0.512   4.755  -1.159  0.00  0.00     0.029 H 
ATOM     19  H5  <0> d           0.920   3.310  -2.113  0.00  0.00     0.029 H 
ENDBRANCH   1  16
BRANCH   1  20
ATOM     20  C9  <0> d           1.177   1.588  -0.001  0.00  0.00     0.182 C 
ATOM     21  O1  <0> d           2.199   0.944  -0.014  0.00  0.00    -0.647 OA
ATOM     22  O2  <0> d          -0.011   0.963   0.007  0.00  0.00    -0.647 OA
ENDBRANCH   1  20
TORSDOF 2
