REMARK  3 active torsions:
REMARK  status: ('A' for Active; 'I' for Inactive)
REMARK    1  A    between atoms: C1_1  and  C2_2 
REMARK    2  A    between atoms: C2_2  and  C3_4 
REMARK    3  A    between atoms: C2_2  and  O1_11 
ROOT
ATOM      1  C3  <0> d           1.175   1.783   0.000  0.00  0.00    -0.030 A 
ATOM      2  C4  <0> d          -0.013   1.076   0.008  0.00  0.00    -0.071 A 
ATOM      3  C5  <0> d          -1.219   1.750   0.017  0.00  0.00    -0.045 A 
ATOM      4  C6  <0> d          -1.237   3.135   0.029  0.00  0.00     0.116 A 
ATOM      5  C7  <0> d          -0.047   3.842   0.022  0.00  0.00    -0.045 A 
ATOM      6  C8  <0> d           1.158   3.165   0.007  0.00  0.00    -0.071 A 
ATOM      7  F1  <0> d          -2.416   3.795   0.043  0.00  0.00    -0.206 F 
ATOM      8  H5  <0> d           0.002  -0.004   0.002  0.00  0.00     0.084 H 
ATOM      9  H6  <0> d          -2.147   1.198   0.019  0.00  0.00     0.088 H 
ATOM     10  H7  <0> d          -0.060   4.922   0.027  0.00  0.00     0.088 H 
ATOM     11  H8  <0> d           2.087   3.717   0.002  0.00  0.00     0.084 H 
ENDROOT
BRANCH   1  12
ATOM     12  C2  <0> d           2.490   1.046  -0.015  0.00  0.00     0.057 C 
ATOM     13  H1  <0> d           2.348   0.058  -0.453  0.00  0.00     0.089 H 
BRANCH  12  14
ATOM     14  C1  <0> d           3.010   0.900   1.417  0.00  0.00    -0.049 C 
ATOM     15  H2  <0> d           2.286   0.341   2.010  0.00  0.00     0.031 H 
ATOM     16  H3  <0> d           3.960   0.367   1.405  0.00  0.00     0.031 H 
ATOM     17  H4  <0> d           3.152   1.888   1.854  0.00  0.00     0.031 H 
ENDBRANCH  12  14
BRANCH  12  18
ATOM     18  O1  <0> d           3.438   1.780  -0.793  0.00  0.00    -0.391 OA
ATOM     19  H9  <0> d           4.309   1.364  -0.847  0.00  0.00     0.210 HD
ENDBRANCH  12  18
ENDBRANCH   1  12
TORSDOF 3
