REMARK  5 active torsions:
REMARK  status: ('A' for Active; 'I' for Inactive)
REMARK    1  A    between atoms: C1_1  and  C2_2 
REMARK    2  A    between atoms: C2_2  and  C3_3 
REMARK    3  A    between atoms: C3_3  and  C4_4 
REMARK    4  A    between atoms: C8_8  and  N1_11 
REMARK    5  A    between atoms: C9_9  and  O1_10 
ROOT
ATOM      1  C4  <0> d           1.169   2.090   0.002  0.00  0.00    -0.023 A 
ATOM      2  C5  <0> d          -0.017   1.378   0.010  0.00  0.00    -0.074 A 
ATOM      3  C6  <0> d           0.002  -0.004   0.002  0.00  0.00    -0.080 A 
ATOM      4  C7  <0> d           1.207  -0.682  -0.013  0.00  0.00    -0.055 A 
ATOM      5  C8  <0> d           2.400   0.024  -0.021  0.00  0.00     0.059 A 
ATOM      6  C9  <0> d           2.380   1.418  -0.013  0.00  0.00     0.098 A 
ATOM      7  H8  <0> d          -0.960   1.904   0.017  0.00  0.00     0.084 H 
ATOM      8  H9  <0> d          -0.927  -0.555   0.008  0.00  0.00     0.083 H 
ATOM      9  H10 <0> d           1.219  -1.762  -0.019  0.00  0.00     0.087 H 
ENDROOT
BRANCH   1  10
ATOM     10  C3  <0> d           1.144   3.596   0.010  0.00  0.00    -0.039 C 
ATOM     11  H6  <0> d           0.211   3.942   0.455  0.00  0.00     0.040 H 
ATOM     12  H7  <0> d           1.985   3.971   0.593  0.00  0.00     0.040 H 
BRANCH  10  13
ATOM     13  C2  <0> d           1.248   4.115  -1.425  0.00  0.00    -0.065 C 
ATOM     14  H4  <0> d           2.181   3.770  -1.870  0.00  0.00     0.032 H 
ATOM     15  H5  <0> d           0.407   3.741  -2.009  0.00  0.00     0.032 H 
BRANCH  13  16
ATOM     16  C1  <0> d           1.222   5.645  -1.418  0.00  0.00    -0.076 C 
ATOM     17  H1  <0> d           1.296   6.015  -2.440  0.00  0.00     0.027 H 
ATOM     18  H2  <0> d           0.289   5.991  -0.973  0.00  0.00     0.027 H 
ATOM     19  H3  <0> d           2.063   6.020  -0.834  0.00  0.00     0.027 H 
ENDBRANCH  13  16
ENDBRANCH  10  13
ENDBRANCH   1  10
BRANCH   6  20
ATOM     20  O1  <0> d           3.547   2.116  -0.020  0.00  0.00    -0.358 OA
ATOM     21  H11 <0> d           3.877   2.323  -0.905  0.00  0.00     0.217 HD
ENDBRANCH   6  20
BRANCH   5  22
ATOM     22  N1  <0> d           3.621  -0.660  -0.035  0.00  0.00    -0.397 N 
ATOM     23  H12 <0> d           3.633  -1.630  -0.041  0.00  0.00     0.156 HD
ATOM     24  H13 <0> d           4.455  -0.164  -0.041  0.00  0.00     0.156 HD
ENDBRANCH   5  22
TORSDOF 5
