REMARK  2 active torsions:
REMARK  status: ('A' for Active; 'I' for Inactive)
REMARK    1  A    between atoms: C3_3  and  O2_10 
REMARK    2  A    between atoms: C6_6  and  O1_7 
ROOT
ATOM      1  C1  <0> d          -1.219   1.748   0.017  0.00  0.00    -0.048 A 
ATOM      2  C2  <0> d          -0.013   1.076   0.008  0.00  0.00    -0.047 A 
ATOM      3  C3  <0> d           1.179   1.783   0.000  0.00  0.00     0.086 A 
ATOM      4  C4  <0> d           1.157   3.185   0.008  0.00  0.00     0.080 A 
ATOM      5  C5  <0> d          -0.067   3.857   0.022  0.00  0.00    -0.028 A 
ATOM      6  C6  <0> d          -1.248   3.137   0.030  0.00  0.00     0.067 A 
ATOM      7  C7  <0> d           2.384   3.923   0.000  0.00  0.00     0.102 C 
ATOM      8  N1  <0> d           3.357   4.509  -0.005  0.00  0.00    -0.191 NA
ATOM      9  H1  <0> d          -2.144   1.192   0.019  0.00  0.00     0.087 H 
ATOM     10  H2  <0> d           0.002  -0.004   0.002  0.00  0.00     0.087 H 
ATOM     11  H3  <0> d          -0.091   4.937   0.028  0.00  0.00     0.090 H 
ENDROOT
BRANCH   3  12
ATOM     12  O2  <0> d           2.364   1.121  -0.015  0.00  0.00    -0.359 OA
ATOM     13  H5  <0> d           2.699   0.934  -0.902  0.00  0.00     0.217 HD
ENDBRANCH   3  12
BRANCH   6  14
ATOM     14  O1  <0> d          -2.440   3.791   0.044  0.00  0.00    -0.361 OA
ATOM     15  H4  <0> d          -2.793   3.984  -0.835  0.00  0.00     0.217 HD
ENDBRANCH   6  14
TORSDOF 2
