REMARK  1 active torsions:
REMARK  status: ('A' for Active; 'I' for Inactive)
REMARK    1  A    between atoms: C1_1  and  C2_2 
ROOT
ATOM      1  C2  <0> d          -1.065   2.265   0.019  0.00  0.00    -0.026 A 
ATOM      2  C3  <0> d          -0.808   3.624   0.028  0.00  0.00    -0.074 A 
ATOM      3  C4  <0> d           0.496   4.083   0.018  0.00  0.00    -0.080 A 
ATOM      4  C5  <0> d           1.548   3.186   0.004  0.00  0.00    -0.048 A 
ATOM      5  C6  <0> d           1.297   1.824  -0.001  0.00  0.00     0.105 A 
ATOM      6  C7  <0> d          -0.016   1.361   0.009  0.00  0.00     0.111 A 
ATOM      7  O1  <0> d           0.002  -0.004   0.002  0.00  0.00    -0.322 OA
ATOM      8  C8  <0> d           1.336  -0.373   0.399  0.00  0.00     0.115 C 
ATOM      9  O2  <0> d           2.139   0.749  -0.014  0.00  0.00    -0.323 OA
ATOM     10  H4  <0> d          -1.627   4.327   0.039  0.00  0.00     0.084 H 
ATOM     11  H5  <0> d           0.693   5.145   0.021  0.00  0.00     0.083 H 
ATOM     12  H6  <0> d           2.566   3.548  -0.004  0.00  0.00     0.087 H 
ATOM     13  H7  <0> d           1.391  -0.505   1.480  0.00  0.00     0.118 H 
ATOM     14  H8  <0> d           1.651  -1.282  -0.113  0.00  0.00     0.118 H 
ENDROOT
BRANCH   1  15
ATOM     15  C1  <0> d          -2.488   1.768   0.023  0.00  0.00    -0.049 C 
ATOM     16  H1  <0> d          -2.827   1.643   1.051  0.00  0.00     0.033 H 
ATOM     17  H2  <0> d          -3.127   2.491  -0.484  0.00  0.00     0.033 H 
ATOM     18  H3  <0> d          -2.540   0.811  -0.496  0.00  0.00     0.033 H 
ENDBRANCH   1  15
TORSDOF 1
