REMARK  3 active torsions:
REMARK  status: ('A' for Active; 'I' for Inactive)
REMARK    1  A    between atoms: C1_1  and  N1_2 
REMARK    2  A    between atoms: N1_2  and  C2_3 
REMARK    3  A    between atoms: C7_8  and  N2_9 
ROOT
ATOM      1  C2  <0> d           1.179   1.785   0.000  0.00  0.00     0.054 A 
ATOM      2  C3  <0> d          -0.013   1.076   0.008  0.00  0.00    -0.054 A 
ATOM      3  C4  <0> d          -1.219   1.751   0.017  0.00  0.00    -0.060 A 
ATOM      4  C5  <0> d          -1.243   3.134   0.031  0.00  0.00     0.036 A 
ATOM      5  C6  <0> d          -0.058   3.849   0.023  0.00  0.00    -0.035 A 
ATOM      6  C7  <0> d           1.156   3.180   0.008  0.00  0.00     0.054 A 
ATOM      7 Cl1  <0> d          -2.761   3.974   0.049  0.00  0.00    -0.084 Cl
ATOM      8  H5  <0> d           0.002  -0.004   0.002  0.00  0.00     0.087 H 
ATOM      9  H6  <0> d          -2.146   1.196   0.019  0.00  0.00     0.086 H 
ATOM     10  H7  <0> d          -0.079   4.929   0.029  0.00  0.00     0.089 H 
ENDROOT
BRANCH   1  11
ATOM     11  N1  <0> d           2.402   1.103  -0.015  0.00  0.00    -0.392 N 
ATOM     12  H4  <0> d           3.346   1.667  -0.021  0.00  0.00     0.159 HD
BRANCH  11  13
ATOM     13  C1  <0> d           2.424  -0.362  -0.024  0.00  0.00    -0.021 C 
ATOM     14  H1  <0> d           3.466  -0.713  -0.036  0.00  0.00     0.056 H 
ATOM     15  H2  <0> d           1.902  -0.731  -0.919  0.00  0.00     0.056 H 
ATOM     16  H3  <0> d           1.920  -0.741   0.877  0.00  0.00     0.056 H 
ENDBRANCH  11  13
ENDBRANCH   1  11
BRANCH   6  17
ATOM     17  N2  <0> d           2.356   3.901   0.001  0.00  0.00    -0.397 N 
ATOM     18  H8  <0> d           2.336   5.001   0.007  0.00  0.00     0.156 HD
ATOM     19  H9  <0> d           3.318   3.369  -0.011  0.00  0.00     0.156 HD
ENDBRANCH   6  17
TORSDOF 3
