REMARK  4 active torsions:
REMARK  status: ('A' for Active; 'I' for Inactive)
REMARK    1  A    between atoms: C1_1  and  C2_2 
REMARK    2  A    between atoms: C2_2  and  C3_4 
REMARK    3  A    between atoms: C2_2  and  O1_11 
REMARK    4  A    between atoms: C6_7  and  N1_10 
ROOT
ATOM      1  C3  <0> d           1.176   1.783   0.000  0.00  0.00    -0.030 A 
ATOM      2  C4  <0> d          -0.013   1.076   0.008  0.00  0.00    -0.072 A 
ATOM      3  C5  <0> d          -1.218   1.749   0.017  0.00  0.00    -0.057 A 
ATOM      4  C6  <0> d          -1.236   3.138   0.031  0.00  0.00     0.025 A 
ATOM      5  C7  <0> d          -0.040   3.845   0.024  0.00  0.00    -0.057 A 
ATOM      6  C8  <0> d           1.162   3.166   0.008  0.00  0.00    -0.072 A 
ATOM      7  H5  <0> d           0.002  -0.004   0.002  0.00  0.00     0.084 H 
ATOM      8  H6  <0> d          -2.146   1.197   0.019  0.00  0.00     0.086 H 
ATOM      9  H7  <0> d          -0.051   4.925   0.029  0.00  0.00     0.086 H 
ATOM     10  H8  <0> d           2.092   3.715   0.003  0.00  0.00     0.084 H 
ENDROOT
BRANCH   1  11
ATOM     11  C2  <0> d           2.490   1.044  -0.016  0.00  0.00     0.057 C 
ATOM     12  H1  <0> d           2.346   0.057  -0.454  0.00  0.00     0.089 H 
BRANCH  11  13
ATOM     13  C1  <0> d           3.010   0.896   1.415  0.00  0.00    -0.049 C 
ATOM     14  H2  <0> d           2.286   0.338   2.009  0.00  0.00     0.031 H 
ATOM     15  H3  <0> d           3.960   0.363   1.403  0.00  0.00     0.031 H 
ATOM     16  H4  <0> d           3.153   1.884   1.853  0.00  0.00     0.031 H 
ENDBRANCH  11  13
BRANCH  11  17
ATOM     17  O1  <0> d           3.438   1.777  -0.794  0.00  0.00    -0.391 OA
ATOM     18  H11 <0> d           3.615   2.668  -0.461  0.00  0.00     0.210 HD
ENDBRANCH  11  17
ENDBRANCH   1  11
BRANCH   4  19
ATOM     19  N1  <0> d          -2.454   3.822   0.046  0.00  0.00    -0.399 N 
ATOM     20  H9  <0> d          -2.465   4.792   0.052  0.00  0.00     0.156 HD
ATOM     21  H10 <0> d          -3.288   3.328   0.051  0.00  0.00     0.156 HD
ENDBRANCH   4  19
TORSDOF 4
