REMARK  3 active torsions:
REMARK  status: ('A' for Active; 'I' for Inactive)
REMARK    1  A    between atoms: C1_1  and  S1_2 
REMARK    2  A    between atoms: S1_2  and  C2_3 
REMARK    3  A    between atoms: C4_6  and  N2_8 
ROOT
ATOM      1  C2  <0> d          -0.803   3.426   1.364  0.00  0.00     0.062 A 
ATOM      2  C3  <0> d          -1.288   4.380   2.205  0.00  0.00     0.028 A 
ATOM      3  N1  <0> d          -1.131   5.658   1.904  0.00  0.00    -0.235 NA
ATOM      4  C4  <0> d          -0.511   6.030   0.799  0.00  0.00     0.165 A 
ATOM      5  S2  <0> d          -0.083   4.449   0.086  0.00  0.00    -0.044 SA
ATOM      6  H4  <0> d          -1.798   4.095   3.113  0.00  0.00     0.117 H 
ENDROOT
BRANCH   1   7
ATOM      7  S1  <0> d          -0.862   1.671   1.500  0.00  0.00    -0.126 SA
BRANCH   7   8
ATOM      8  C1  <0> d          -0.013   1.086   0.008  0.00  0.00    -0.030 C 
ATOM      9  H1  <0> d           0.002  -0.014   0.002  0.00  0.00     0.042 H 
ATOM     10  H2  <0> d           1.019   1.467   0.000  0.00  0.00     0.042 H 
ATOM     11  H3  <0> d          -0.545   1.450  -0.883  0.00  0.00     0.042 H 
ENDBRANCH   7   8
ENDBRANCH   1   7
BRANCH   4  12
ATOM     12  N2  <0> d          -0.255   7.310   0.322  0.00  0.00    -0.378 N 
ATOM     13  H5  <0> d           0.281   7.445  -0.629  0.00  0.00     0.158 HD
ATOM     14  H6  <0> d          -0.588   8.188   0.896  0.00  0.00     0.158 HD
ENDBRANCH   4  12
TORSDOF 3
