REMARK  3 active torsions:
REMARK  status: ('A' for Active; 'I' for Inactive)
REMARK    1  A    between atoms: C3_3  and  O1_7 
REMARK    2  A    between atoms: O1_7  and  C5_8 
REMARK    3  A    between atoms: C5_8  and  C6_9 
ROOT
ATOM      1  C1  <0> d          -0.013   1.076   0.008  0.00  0.00    -0.060 A 
ATOM      2  C2  <0> d          -1.211   1.774   0.017  0.00  0.00    -0.029 A 
ATOM      3  C3  <0> d          -1.155   3.165   0.029  0.00  0.00     0.186 A 
ATOM      4  N1  <0> d           0.019   3.775   0.021  0.00  0.00    -0.125 NA
ATOM      5  N2  <0> d           1.126   3.124   0.008  0.00  0.00    -0.160 NA
ATOM      6  C4  <0> d           1.167   1.806   0.001  0.00  0.00     0.024 A 
ATOM      7  H1  <0> d           0.002  -0.004   0.002  0.00  0.00     0.086 H 
ATOM      8  H2  <0> d          -2.158   1.254   0.019  0.00  0.00     0.090 H 
ATOM      9  H3  <0> d           2.118   1.296  -0.011  0.00  0.00     0.117 H 
ENDROOT
BRANCH   3  10
ATOM     10  O1  <0> d          -2.301   3.892   0.043  0.00  0.00    -0.323 OA
BRANCH  10  11
ATOM     11  C5  <0> d          -2.166   5.315   0.050  0.00  0.00     0.107 C 
ATOM     12  H4  <0> d          -1.606   5.626   0.944  0.00  0.00     0.091 H 
ATOM     13  H5  <0> d          -1.623   5.635  -0.852  0.00  0.00     0.091 H 
BRANCH  11  14
ATOM     14  C6  <0> d          -3.533   5.949   0.066  0.00  0.00     0.198 C 
ATOM     15  O2  <0> d          -4.521   5.254   0.071  0.00  0.00    -0.646 OA
ATOM     16  O3  <0> d          -3.652   7.286   0.073  0.00  0.00    -0.646 OA
ENDBRANCH  11  14
ENDBRANCH  10  11
ENDBRANCH   3  10
TORSDOF 3
