REMARK  2 active torsions:
REMARK  status: ('A' for Active; 'I' for Inactive)
REMARK    1  A    between atoms: C1_1  and  C2_2 
REMARK    2  A    between atoms: C3_4  and  C5_7 
ROOT
ATOM      1  C2  <0> d           0.205   5.102   0.027  0.00  0.00     0.072 A 
ATOM      2  N1  <0> d           0.126   3.797   0.016  0.00  0.00    -0.239 NA
ATOM      3  C3  <0> d           1.239   3.061   0.007  0.00  0.00     0.140 A 
ATOM      4  C4  <0> d           2.439   3.727  -0.001  0.00  0.00    -0.009 A 
ATOM      5  S1  <0> d           1.917   5.382   0.012  0.00  0.00    -0.084 SA
ATOM      6  H4  <0> d           3.442   3.327  -0.012  0.00  0.00     0.099 H 
ENDROOT
BRANCH   1   7
ATOM      7  C1  <0> d          -0.912   6.112   0.042  0.00  0.00    -0.029 C 
ATOM      8  H1  <0> d          -0.493   7.118   0.044  0.00  0.00     0.036 H 
ATOM      9  H2  <0> d          -1.535   5.979  -0.843  0.00  0.00     0.036 H 
ATOM     10  H3  <0> d          -1.518   5.970   0.937  0.00  0.00     0.036 H 
ENDBRANCH   1   7
BRANCH   3  11
ATOM     11  C5  <0> d           1.182   1.591  -0.001  0.00  0.00     0.229 C 
ATOM     12  O1  <0> d           2.210   0.943  -0.014  0.00  0.00    -0.643 OA
ATOM     13  O2  <0> d          -0.011   0.963   0.007  0.00  0.00    -0.643 OA
ENDBRANCH   3  11
TORSDOF 2
