REMARK  2 active torsions:
REMARK  status: ('A' for Active; 'I' for Inactive)
REMARK    1  A    between atoms: C1_1  and  C2_2 
REMARK    2  A    between atoms: C3_4  and  C5_7 
REMARK       I    between atoms: C5_7  and  N2_9 
ROOT
ATOM      1  C2  <0> d          -3.601  -1.108   0.013  0.00  0.00     0.072 A 
ATOM      2  N1  <0> d          -2.463  -0.464   0.006  0.00  0.00    -0.240 NA
ATOM      3  C3  <0> d          -2.453   0.870   0.018  0.00  0.00     0.131 A 
ATOM      4  C4  <0> d          -3.664   1.514   0.028  0.00  0.00    -0.010 A 
ATOM      5  S1  <0> d          -4.768   0.175   0.026  0.00  0.00    -0.085 SA
ATOM      6  H4  <0> d          -3.874   2.573   0.034  0.00  0.00     0.099 H 
ENDROOT
BRANCH   3   7
ATOM      7  C5  <0> d          -1.187   1.624   0.017  0.00  0.00     0.268 C 
ATOM      8  O1  <0> d          -1.204   2.840   0.023  0.00  0.00    -0.266 OA
ATOM      9  N2  <0> d          -0.011   0.966   0.007  0.00  0.00    -0.365 N 
ATOM     10  H5  <0> d           0.002  -0.004   0.002  0.00  0.00     0.159 HD
ATOM     11  H6  <0> d           0.822   1.462   0.002  0.00  0.00     0.159 HD
ENDBRANCH   3   7
BRANCH   1  12
ATOM     12  C1  <0> d          -3.840  -2.596   0.006  0.00  0.00    -0.029 C 
ATOM     13  H1  <0> d          -4.912  -2.792   0.011  0.00  0.00     0.036 H 
ATOM     14  H2  <0> d          -3.394  -3.031  -0.888  0.00  0.00     0.036 H 
ATOM     15  H3  <0> d          -3.385  -3.041   0.891  0.00  0.00     0.036 H 
ENDBRANCH   1  12
TORSDOF 2
