REMARK  2 active torsions:
REMARK  status: ('A' for Active; 'I' for Inactive)
REMARK    1  A    between atoms: C1_1  and  C2_2 
REMARK    2  A    between atoms: C7_7  and  N1_8 
ROOT
ATOM      1  C2  <0> d           1.177   1.781   0.000  0.00  0.00    -0.036 A 
ATOM      2  C3  <0> d          -0.013   1.076   0.008  0.00  0.00    -0.074 A 
ATOM      3  C4  <0> d          -1.218   1.747   0.017  0.00  0.00    -0.062 A 
ATOM      4  C5  <0> d          -1.240   3.143   0.030  0.00  0.00     0.046 A 
ATOM      5  C6  <0> d          -0.040   3.855   0.022  0.00  0.00    -0.037 A 
ATOM      6  C7  <0> d           1.166   3.171   0.007  0.00  0.00     0.033 A 
ATOM      7  C8  <0> d          -2.489   3.842   0.045  0.00  0.00     0.099 C 
ATOM      8  N2  <0> d          -3.481   4.397   0.056  0.00  0.00    -0.191 NA
ATOM      9  H4  <0> d           0.002  -0.004   0.002  0.00  0.00     0.084 H 
ATOM     10  H5  <0> d          -2.145   1.192   0.019  0.00  0.00     0.085 H 
ATOM     11  H6  <0> d          -0.050   4.935   0.027  0.00  0.00     0.089 H 
ENDROOT
BRANCH   6  12
ATOM     12  N1  <0> d           2.371   3.878   0.000  0.00  0.00    -0.399 N 
ATOM     13  H7  <0> d           3.214   3.400  -0.010  0.00  0.00     0.156 HD
ATOM     14  H8  <0> d           2.364   4.848   0.005  0.00  0.00     0.156 HD
ENDBRANCH   6  12
BRANCH   1  15
ATOM     15  C1  <0> d           2.489   1.040  -0.016  0.00  0.00    -0.049 C 
ATOM     16  H1  <0> d           2.795   0.867  -1.048  0.00  0.00     0.033 H 
ATOM     17  H2  <0> d           3.248   1.633   0.494  0.00  0.00     0.033 H 
ATOM     18  H3  <0> d           2.372   0.084   0.494  0.00  0.00     0.033 H 
ENDBRANCH   1  15
TORSDOF 2
