REMARK  1 active torsions:
REMARK  status: ('A' for Active; 'I' for Inactive)
REMARK    1  A    between atoms: C1_1  and  N1_2 
ROOT
ATOM      1  N1  <0> d           0.198   5.187   0.029  0.00  0.00    -0.272 N 
ATOM      2  C2  <0> d          -0.086   3.845   0.024  0.00  0.00     0.065 A 
ATOM      3  C3  <0> d          -1.272   3.113   0.030  0.00  0.00    -0.055 A 
ATOM      4  C4  <0> d          -1.228   1.748   0.017  0.00  0.00    -0.081 A 
ATOM      5  C5  <0> d          -0.013   1.076   0.008  0.00  0.00    -0.082 A 
ATOM      6  C6  <0> d           1.164   1.769   0.000  0.00  0.00    -0.068 A 
ATOM      7  C7  <0> d           1.144   3.165   0.008  0.00  0.00     0.034 A 
ATOM      8  C8  <0> d           2.187   4.199   0.004  0.00  0.00     0.169 A 
ATOM      9  N2  <0> d           1.584   5.367   0.017  0.00  0.00    -0.160 NA
ATOM     10  C9  <0> d           3.601   3.976  -0.011  0.00  0.00     0.122 C 
ATOM     11  N3  <0> d           4.723   3.799  -0.023  0.00  0.00    -0.190 NA
ATOM     12  H4  <0> d          -2.223   3.624   0.042  0.00  0.00     0.087 H 
ATOM     13  H5  <0> d          -2.150   1.184   0.018  0.00  0.00     0.083 H 
ATOM     14  H6  <0> d           0.002  -0.004   0.002  0.00  0.00     0.083 H 
ATOM     15  H7  <0> d           2.106   1.240  -0.011  0.00  0.00     0.085 H 
ENDROOT
BRANCH   1  16
ATOM     16  C1  <0> d          -0.796   6.264   0.044  0.00  0.00     0.003 C 
ATOM     17  H1  <0> d          -1.052   6.537  -0.979  0.00  0.00     0.059 H 
ATOM     18  H2  <0> d          -1.692   5.923   0.564  0.00  0.00     0.059 H 
ATOM     19  H3  <0> d          -0.384   7.131   0.560  0.00  0.00     0.059 H 
ENDBRANCH   1  16
TORSDOF 1
