REMARK  2 active torsions:
REMARK  status: ('A' for Active; 'I' for Inactive)
REMARK    1  A    between atoms: C4_5  and  O2_8 
REMARK    2  A    between atoms: C5_6  and  O1_7 
ROOT
ATOM      1  C1  <0> d           3.119   2.397   1.180  0.00  0.00    -0.024 A 
ATOM      2  C2  <0> d           3.695   2.675  -0.054  0.00  0.00     0.054 A 
ATOM      3  C3  <0> d           3.002   2.366  -1.208  0.00  0.00     0.026 A 
ATOM      4  N1  <0> d           1.805   1.812  -1.153  0.00  0.00    -0.233 NA
ATOM      5  C4  <0> d           1.222   1.532  -0.001  0.00  0.00     0.196 A 
ATOM      6  C5  <0> d           1.858   1.820   1.205  0.00  0.00     0.120 A 
ATOM      7 Cl1  <0> d           5.268   3.403  -0.143  0.00  0.00    -0.083 Cl
ATOM      8  H1  <0> d           3.640   2.629   2.097  0.00  0.00     0.090 H 
ATOM      9  H2  <0> d           3.447   2.580  -2.169  0.00  0.00     0.117 H 
ENDROOT
BRANCH   5  10
ATOM     10  O2  <0> d          -0.011   0.963   0.007  0.00  0.00    -0.343 OA
ATOM     11  H4  <0> d           0.002  -0.004   0.002  0.00  0.00     0.219 HD
ENDBRANCH   5  10
BRANCH   6  12
ATOM     12  O1  <0> d           1.253   1.535   2.389  0.00  0.00    -0.357 OA
ATOM     13  H3  <0> d           1.449   0.651   2.728  0.00  0.00     0.218 HD
ENDBRANCH   6  12
TORSDOF 2
