REMARK  5 active torsions:
REMARK  status: ('A' for Active; 'I' for Inactive)
REMARK    1  A    between atoms: C1_1  and  C2_2 
REMARK    2  A    between atoms: C5_5  and  C8_9 
REMARK    3  A    between atoms: C8_9  and  C9_10 
REMARK    4  A    between atoms: C8_9  and  C10_11 
REMARK    5  A    between atoms: C8_9  and  O1_12 
ROOT
ATOM      1  C2  <0> d           0.002  -0.004   0.002  0.00  0.00    -0.087 C 
ATOM      2  C3  <0> d           0.005  -0.605  -1.145  0.00  0.00    -0.101 C 
ATOM      3  C4  <0> d           0.013  -2.096  -1.313  0.00  0.00    -0.044 C 
ATOM      4  C5  <0> d           0.442  -2.771  -0.008  0.00  0.00    -0.022 C 
ATOM      5  H1  <0> d           1.501  -2.584   0.170  0.00  0.00     0.044 H 
ATOM      6  C6  <0> d          -0.386  -2.179   1.139  0.00  0.00    -0.055 C 
ATOM      7  C7  <0> d           0.024  -0.715   1.324  0.00  0.00    -0.045 C 
ATOM      8  H5  <0> d          -0.000   0.005  -2.036  0.00  0.00     0.077 H 
ATOM      9  H6  <0> d          -0.987  -2.435  -1.583  0.00  0.00     0.039 H 
ATOM     10  H7  <0> d           0.711  -2.366  -2.105  0.00  0.00     0.039 H 
ATOM     11  H8  <0> d          -1.446  -2.238   0.894  0.00  0.00     0.034 H 
ATOM     12  H9  <0> d          -0.188  -2.732   2.058  0.00  0.00     0.034 H 
ATOM     13  H10 <0> d           1.029  -0.667   1.742  0.00  0.00     0.039 H 
ATOM     14  H11 <0> d          -0.673  -0.229   2.007  0.00  0.00     0.039 H 
ENDROOT
BRANCH   4  15
ATOM     15  C8  <0> d           0.195  -4.278  -0.103  0.00  0.00     0.054 C 
BRANCH  15  16
ATOM     16  C9  <0> d           1.006  -4.856  -1.264  0.00  0.00    -0.048 C 
ATOM     17  H12 <0> d           2.067  -4.672  -1.093  0.00  0.00     0.031 H 
ATOM     18  H13 <0> d           0.830  -5.929  -1.332  0.00  0.00     0.031 H 
ATOM     19  H14 <0> d           0.700  -4.378  -2.195  0.00  0.00     0.031 H 
ENDBRANCH  15  16
BRANCH  15  20
ATOM     20  C10 <0> d           0.625  -4.948   1.203  0.00  0.00    -0.048 C 
ATOM     21  H15 <0> d           0.047  -4.537   2.031  0.00  0.00     0.031 H 
ATOM     22  H16 <0> d           0.449  -6.022   1.136  0.00  0.00     0.031 H 
ATOM     23  H17 <0> d           1.686  -4.764   1.374  0.00  0.00     0.031 H 
ENDBRANCH  15  20
BRANCH  15  24
ATOM     24  O1  <0> d          -1.196  -4.519  -0.327  0.00  0.00    -0.390 OA
ATOM     25  H18 <0> d          -1.538  -4.122  -1.139  0.00  0.00     0.210 HD
ENDBRANCH  15  24
ENDBRANCH   4  15
BRANCH   1  26
ATOM     26  C1  <0> d          -0.018   1.503   0.010  0.00  0.00    -0.055 C 
ATOM     27  H2  <0> d           1.004   1.880   0.003  0.00  0.00     0.033 H 
ATOM     28  H3  <0> d          -0.545   1.864  -0.873  0.00  0.00     0.033 H 
ATOM     29  H4  <0> d          -0.529   1.854   0.907  0.00  0.00     0.033 H 
ENDBRANCH   1  26
TORSDOF 5
