REMARK  5 active torsions:
REMARK  status: ('A' for Active; 'I' for Inactive)
REMARK    1  A    between atoms: C1_1  and  O1_2 
REMARK    2  A    between atoms: O1_2  and  C2_3 
REMARK    3  A    between atoms: C2_3  and  C3_4 
REMARK       I    between atoms: C3_4  and  N1_6 
REMARK    4  A    between atoms: N1_6  and  C4_7 
REMARK    5  A    between atoms: C4_7  and  C5_8 
ROOT
ATOM      1  C3  <0> d           2.932   4.843   0.000  0.00  0.00     0.241 C 
ATOM      2  O2  <0> d           2.041   5.667   0.013  0.00  0.00    -0.271 OA
ATOM      3  N1  <0> d           2.634   3.529  -0.004  0.00  0.00    -0.349 N 
ATOM      4  H6  <0> d           3.442   2.782  -0.016  0.00  0.00     0.163 HD
ENDROOT
BRANCH   1   5
ATOM      5  C2  <0> d           4.371   5.290  -0.011  0.00  0.00     0.092 C 
ATOM      6  H4  <0> d           4.866   4.909  -0.916  0.00  0.00     0.088 H 
ATOM      7  H5  <0> d           4.883   4.899   0.880  0.00  0.00     0.088 H 
BRANCH   5   8
ATOM      8  O1  <0> d           4.426   6.718  -0.004  0.00  0.00    -0.387 OA
BRANCH   8   9
ATOM      9  C1  <0> d           5.753   7.248  -0.014  0.00  0.00     0.005 C 
ATOM     10  H1  <0> d           5.709   8.347  -0.007  0.00  0.00     0.066 H 
ATOM     11  H2  <0> d           6.277   6.908  -0.919  0.00  0.00     0.066 H 
ATOM     12  H3  <0> d           6.295   6.898   0.877  0.00  0.00     0.066 H 
ENDBRANCH   8   9
ENDBRANCH   5   8
ENDBRANCH   1   5
BRANCH   3  13
ATOM     13  C4  <0> d           1.235   3.094   0.007  0.00  0.00     0.075 C 
ATOM     14  H7  <0> d           0.740   3.476   0.912  0.00  0.00     0.080 H 
ATOM     15  H8  <0> d           0.723   3.486  -0.884  0.00  0.00     0.080 H 
BRANCH  13  16
ATOM     16  C5  <0> d           1.177   1.588  -0.001  0.00  0.00     0.191 C 
ATOM     17  O3  <0> d           2.199   0.944  -0.014  0.00  0.00    -0.647 OA
ATOM     18  O4  <0> d          -0.011   0.963   0.007  0.00  0.00    -0.647 OA
ENDBRANCH  13  16
ENDBRANCH   3  13
TORSDOF 5
