REMARK  5 active torsions:
REMARK  status: ('A' for Active; 'I' for Inactive)
REMARK    1  A    between atoms: C1_1  and  C2_2 
REMARK    2  A    between atoms: C2_2  and  O1_3 
REMARK    3  A    between atoms: O1_3  and  C3_4 
REMARK    4  A    between atoms: C3_4  and  C4_6 
REMARK    5  A    between atoms: C6_9  and  C7_11 
ROOT
ATOM      1  C4  <0> d          -1.150   1.781  -0.743  0.00  0.00     0.034 A 
ATOM      2  H1  <0> d          -0.922   2.722  -1.244  0.00  0.00     0.056 H 
ATOM      3  C5  <0> d          -0.013   1.086   0.008  0.00  0.00    -0.049 A 
ATOM      4  C6  <0> d          -1.136   1.773   0.788  0.00  0.00    -0.045 A 
ATOM      5  H2  <0> d          -1.859   1.135   1.295  0.00  0.00     0.040 H 
ATOM      6  H8  <0> d           0.002  -0.004   0.002  0.00  0.00     0.034 H 
ATOM      7  H9  <0> d           0.964   1.569   0.001  0.00  0.00     0.034 H 
ENDROOT
BRANCH   1   8
ATOM      8  C3  <0> d          -2.164   0.907  -1.434  0.00  0.00     0.263 C 
ATOM      9  O2  <0> d          -2.926   0.233  -0.781  0.00  0.00    -0.265 OA
BRANCH   8  10
ATOM     10  O1  <0> d          -2.221   0.875  -2.775  0.00  0.00    -0.322 OA
BRANCH  10  11
ATOM     11  C2  <0> d          -3.223   0.011  -3.372  0.00  0.00     0.025 C 
ATOM     12  H6  <0> d          -3.045  -1.019  -3.063  0.00  0.00     0.074 H 
ATOM     13  H7  <0> d          -4.214   0.323  -3.044  0.00  0.00     0.074 H 
BRANCH  11  14
ATOM     14  C1  <0> d          -3.136   0.107  -4.897  0.00  0.00    -0.056 C 
ATOM     15  H3  <0> d          -3.888  -0.542  -5.345  0.00  0.00     0.030 H 
ATOM     16  H4  <0> d          -3.314   1.137  -5.206  0.00  0.00     0.030 H 
ATOM     17  H5  <0> d          -2.144  -0.205  -5.225  0.00  0.00     0.030 H 
ENDBRANCH  11  14
ENDBRANCH  10  11
ENDBRANCH   8  10
ENDBRANCH   1   8
BRANCH   4  18
ATOM     18  C7  <0> d          -0.801   3.086   1.498  0.00  0.00    -0.072 C 
ATOM     19  H10 <0> d           0.195   3.416   1.202  0.00  0.00     0.028 H 
ATOM     20  H11 <0> d          -1.533   3.845   1.221  0.00  0.00     0.028 H 
ATOM     21  H12 <0> d          -0.828   2.933   2.577  0.00  0.00     0.028 H 
ENDBRANCH   4  18
TORSDOF 5
