REMARK  4 active torsions:
REMARK  status: ('A' for Active; 'I' for Inactive)
REMARK    1  A    between atoms: C1_1  and  O1_2 
REMARK    2  A    between atoms: O1_2  and  C2_3 
REMARK    3  A    between atoms: C2_3  and  C3_5 
REMARK    4  A    between atoms: C7_10  and  O3_12 
ROOT
ATOM      1  C3  <0> d           0.679  -2.115   1.088  0.00  0.00     0.055 C 
ATOM      2  H1  <0> d           1.107  -2.508   0.166  0.00  0.00     0.059 H 
ATOM      3  C4  <0> d          -0.736  -2.693   1.302  0.00  0.00    -0.051 C 
ATOM      4  C5  <0> d          -0.513  -3.904   2.242  0.00  0.00    -0.062 C 
ATOM      5  C6  <0> d           0.592  -3.395   3.200  0.00  0.00    -0.040 C 
ATOM      6  C7  <0> d           1.524  -2.562   2.294  0.00  0.00     0.048 C 
ATOM      7  H2  <0> d           2.362  -3.172   1.958  0.00  0.00     0.084 H 
ATOM      8  H6  <0> d          -1.381  -1.955   1.778  0.00  0.00     0.034 H 
ATOM      9  H7  <0> d          -1.162  -3.019   0.354  0.00  0.00     0.034 H 
ATOM     10  H8  <0> d          -1.424  -4.138   2.793  0.00  0.00     0.033 H 
ATOM     11  H9  <0> d          -0.167  -4.771   1.679  0.00  0.00     0.033 H 
ATOM     12  H10 <0> d           0.161  -2.770   3.982  0.00  0.00     0.036 H 
ATOM     13  H11 <0> d           1.135  -4.233   3.636  0.00  0.00     0.036 H 
ENDROOT
BRANCH   1  14
ATOM     14  C2  <0> d           0.618  -0.611   1.029  0.00  0.00     0.265 C 
ATOM     15  O2  <0> d          -0.219  -0.014   1.663  0.00  0.00    -0.265 OA
BRANCH  14  16
ATOM     16  O1  <0> d           1.494   0.067   0.270  0.00  0.00    -0.326 OA
BRANCH  16  17
ATOM     17  C1  <0> d           1.379   1.491   0.261  0.00  0.00     0.013 C 
ATOM     18  H3  <0> d           1.511   1.873   1.273  0.00  0.00     0.067 H 
ATOM     19  H4  <0> d           2.145   1.913  -0.390  0.00  0.00     0.067 H 
ATOM     20  H5  <0> d           0.393   1.773  -0.108  0.00  0.00     0.067 H 
ENDBRANCH  16  17
ENDBRANCH  14  16
ENDBRANCH   1  14
BRANCH   6  21
ATOM     21  O3  <0> d           2.004  -1.419   3.005  0.00  0.00    -0.395 OA
ATOM     22  H12 <0> d           2.545  -1.634   3.777  0.00  0.00     0.210 HD
ENDBRANCH   6  21
TORSDOF 4
