REMARK  2 active torsions:
REMARK  status: ('A' for Active; 'I' for Inactive)
REMARK    1  A    between atoms: C1_1  and  C2_2 
REMARK    2  A    between atoms: C7_7  and  N1_8 
ROOT
ATOM      1  C2  <0> d           2.397   0.019  -0.021  0.00  0.00    -0.033 A 
ATOM      2  C3  <0> d           1.206  -0.682  -0.013  0.00  0.00    -0.075 A 
ATOM      3  C4  <0> d           0.002  -0.004   0.002  0.00  0.00    -0.079 A 
ATOM      4  C5  <0> d          -0.017   1.379   0.010  0.00  0.00    -0.043 A 
ATOM      5  C6  <0> d           1.170   2.087   0.002  0.00  0.00     0.143 A 
ATOM      6  C7  <0> d           2.384   1.407  -0.014  0.00  0.00     0.070 A 
ATOM      7  F1  <0> d           1.152   3.438   0.009  0.00  0.00    -0.204 F 
ATOM      8  H4  <0> d           1.217  -1.762  -0.019  0.00  0.00     0.084 H 
ATOM      9  H5  <0> d          -0.927  -0.555   0.008  0.00  0.00     0.083 H 
ATOM     10  H6  <0> d          -0.959   1.906   0.017  0.00  0.00     0.088 H 
ENDROOT
BRANCH   1  11
ATOM     11  C1  <0> d           3.709  -0.722  -0.038  0.00  0.00    -0.049 C 
ATOM     12  H1  <0> d           4.015  -0.896  -1.069  0.00  0.00     0.033 H 
ATOM     13  H2  <0> d           4.468  -0.129   0.472  0.00  0.00     0.033 H 
ATOM     14  H3  <0> d           3.592  -1.678   0.472  0.00  0.00     0.033 H 
ENDBRANCH   1  11
BRANCH   6  15
ATOM     15  N1  <0> d           3.587   2.120  -0.021  0.00  0.00    -0.396 N 
ATOM     16  H7  <0> d           4.432   1.644  -0.032  0.00  0.00     0.156 HD
ATOM     17  H8  <0> d           3.576   3.090  -0.016  0.00  0.00     0.156 HD
ENDBRANCH   6  15
TORSDOF 2
