REMARK  4 active torsions:
REMARK  status: ('A' for Active; 'I' for Inactive)
REMARK    1  A    between atoms: C4_4  and  C8_11 
REMARK    2  A    between atoms: C5_6  and  C7_9 
REMARK    3  A    between atoms: C7_9  and  O1_10 
REMARK    4  A    between atoms: C8_11  and  O2_12 
ROOT
ATOM      1  C1  <0> d           1.417   2.055  -0.000  0.00  0.00    -0.065 C 
ATOM      2  C2  <0> d           2.133   1.562  -1.259  0.00  0.00    -0.065 C 
ATOM      3  C3  <0> d           2.154   0.032  -1.268  0.00  0.00    -0.059 C 
ATOM      4  C4  <0> d           0.718  -0.497  -1.257  0.00  0.00    -0.028 C 
ATOM      5  H1  <0> d           0.186  -0.133  -2.148  0.00  0.00     0.043 H 
ATOM      6  C5  <0> d           0.002  -0.004   0.002  0.00  0.00    -0.028 C 
ATOM      7  H2  <0> d          -1.030  -0.385   0.010  0.00  0.00     0.043 H 
ATOM      8  C6  <0> d          -0.019   1.526   0.010  0.00  0.00    -0.059 C 
ATOM      9  H3  <0> d           1.402   3.155   0.006  0.00  0.00     0.033 H 
ATOM     10  H4  <0> d           1.949   1.691   0.891  0.00  0.00     0.033 H 
ATOM     11  H5  <0> d           1.601   1.926  -2.150  0.00  0.00     0.033 H 
ATOM     12  H6  <0> d           3.165   1.943  -1.267  0.00  0.00     0.033 H 
ATOM     13  H7  <0> d           2.668  -0.323  -2.173  0.00  0.00     0.033 H 
ATOM     14  H8  <0> d           2.686  -0.332  -0.376  0.00  0.00     0.033 H 
ATOM     15  H9  <0> d          -0.534   1.881   0.915  0.00  0.00     0.033 H 
ATOM     16  H10 <0> d          -0.551   1.890  -0.881  0.00  0.00     0.033 H 
ENDROOT
BRANCH   4  17
ATOM     17  C8  <0> d           0.739  -2.027  -1.265  0.00  0.00     0.021 C 
ATOM     18  H14 <0> d           1.347  -2.390  -0.423  0.00  0.00     0.074 H 
ATOM     19  H15 <0> d          -0.288  -2.409  -1.167  0.00  0.00     0.074 H 
BRANCH  17  20
ATOM     20  O2  <0> d           1.303  -2.489  -2.494  0.00  0.00    -0.400 OA
ATOM     21  H16 <0> d           1.401  -3.568  -2.683  0.00  0.00     0.209 HD
ENDBRANCH  17  20
ENDBRANCH   4  17
BRANCH   6  22
ATOM     22  C7  <0> d           0.742  -0.511   1.242  0.00  0.00     0.021 C 
ATOM     23  H11 <0> d           0.836  -1.606   1.191  0.00  0.00     0.074 H 
ATOM     24  H12 <0> d           1.744  -0.059   1.281  0.00  0.00     0.074 H 
BRANCH  22  25
ATOM     25  O1  <0> d           0.010  -0.149   2.414  0.00  0.00    -0.400 OA
ATOM     26  H13 <0> d           0.390  -0.430   3.408  0.00  0.00     0.209 HD
ENDBRANCH  22  25
ENDBRANCH   6  22
TORSDOF 4
