REMARK  0 active torsions:
REMARK  status: ('A' for Active; 'I' for Inactive)
ROOT
ATOM      1  C1  <0> d          -0.019   1.538   0.011  0.00  0.00     0.017 A 
ATOM      2  C2  <0> d           0.002  -0.004   0.002  0.00  0.00     0.017 A 
ATOM      3  C3  <0> d           1.478  -0.339  -0.014  0.00  0.00     0.224 A 
ATOM      4  O1  <0> d           1.944  -1.458  -0.024  0.00  0.00    -0.273 OA
ATOM      5  N1  <0> d           2.187   0.797  -0.015  0.00  0.00    -0.298 N 
ATOM      6  C4  <0> d           1.447   1.913  -0.002  0.00  0.00     0.224 A 
ATOM      7  O2  <0> d           1.883   3.044   0.000  0.00  0.00    -0.273 OA
ATOM      8  H1  <0> d          -0.520   1.920  -0.879  0.00  0.00     0.047 H 
ATOM      9  H2  <0> d          -0.502   1.910   0.914  0.00  0.00     0.047 H 
ATOM     10  H3  <0> d          -0.471  -0.399   0.901  0.00  0.00     0.047 H 
ATOM     11  H4  <0> d          -0.488  -0.390  -0.892  0.00  0.00     0.047 H 
ATOM     12  H5  <0> d           3.157   0.810  -0.023  0.00  0.00     0.171 HD
ENDROOT
TORSDOF 0
