REMARK  3 active torsions:
REMARK  status: ('A' for Active; 'I' for Inactive)
REMARK    1  A    between atoms: C1_1  and  C2_2 
REMARK    2  A    between atoms: C2_2  and  N1_3 
REMARK    3  A    between atoms: N1_3  and  C3_4 
ROOT
ATOM      1  C3  <0> d          -0.130   4.148   0.025  0.00  0.00     0.123 A 
ATOM      2  C4  <0> d           1.116   3.523   0.010  0.00  0.00    -0.037 A 
ATOM      3  C5  <0> d           1.182   2.156   0.002  0.00  0.00    -0.058 A 
ATOM      4  C6  <0> d          -0.017   1.428   0.010  0.00  0.00     0.062 A 
ATOM      5  C7  <0> d          -1.230   2.119   0.019  0.00  0.00     0.024 A 
ATOM      6  N2  <0> d          -1.248   3.436   0.032  0.00  0.00    -0.242 NA
ATOM      7  C8  <0> d           0.002  -0.004   0.002  0.00  0.00     0.101 C 
ATOM      8  N3  <0> d           0.018  -1.140  -0.004  0.00  0.00    -0.191 NA
ATOM      9  H7  <0> d           2.021   4.113   0.005  0.00  0.00     0.089 H 
ATOM     10  H8  <0> d           2.136   1.649  -0.009  0.00  0.00     0.086 H 
ATOM     11  H9  <0> d          -2.160   1.570   0.021  0.00  0.00     0.117 H 
ENDROOT
BRANCH   1  12
ATOM     12  N1  <0> d          -0.200   5.532   0.032  0.00  0.00    -0.375 N 
ATOM     13  H6  <0> d          -1.179   6.032   0.043  0.00  0.00     0.161 HD
BRANCH  12  14
ATOM     14  C2  <0> d           1.030   6.328   0.024  0.00  0.00    -0.009 C 
ATOM     15  H4  <0> d           1.611   6.096  -0.881  0.00  0.00     0.063 H 
ATOM     16  H5  <0> d           1.628   6.088   0.915  0.00  0.00     0.063 H 
BRANCH  14  17
ATOM     17  C1  <0> d           0.674   7.816   0.034  0.00  0.00    -0.061 C 
ATOM     18  H1  <0> d           1.597   8.414   0.028  0.00  0.00     0.029 H 
ATOM     19  H2  <0> d           0.093   8.048   0.939  0.00  0.00     0.029 H 
ATOM     20  H3  <0> d           0.076   8.056  -0.857  0.00  0.00     0.029 H 
ENDBRANCH  14  17
ENDBRANCH  12  14
ENDBRANCH   1  12
TORSDOF 3
