REMARK  3 active torsions:
REMARK  status: ('A' for Active; 'I' for Inactive)
REMARK    1  A    between atoms: N2_4  and  C4_6 
REMARK    2  A    between atoms: C4_6  and  C5_7 
REMARK    3  A    between atoms: C5_7  and  C6_8 
ROOT
ATOM      1  C4  <0> d           1.704   3.175   0.003  0.00  0.00     0.025 C 
ATOM      2  H4  <0> d           2.219   3.396  -0.932  0.00  0.00     0.068 H 
ATOM      3  H5  <0> d           0.838   3.829   0.104  0.00  0.00     0.068 H 
ENDROOT
BRANCH   1   4
ATOM      4  N2  <0> d           1.263   1.778  -0.001  0.00  0.00    -0.281 N 
ATOM      5  N1  <0> d           2.095   0.651  -0.015  0.00  0.00    -0.185 NA
ATOM      6  C2  <0> d           1.339  -0.416  -0.013  0.00  0.00     0.023 A 
ATOM      7  C1  <0> d           0.002  -0.004   0.002  0.00  0.00    -0.048 A 
ATOM      8  H2  <0> d           1.686  -1.439  -0.022  0.00  0.00     0.117 H 
ATOM      9  C3  <0> d          -0.016   1.349   0.009  0.00  0.00    -0.000 A 
ATOM     10  H1  <0> d          -0.863  -0.651   0.007  0.00  0.00     0.087 H 
ATOM     11  H3  <0> d          -0.897   1.974   0.017  0.00  0.00     0.114 H 
ENDBRANCH   1   4
BRANCH   1  12
ATOM     12  C5  <0> d           2.658   3.406   1.177  0.00  0.00     0.032 C 
ATOM     13  H6  <0> d           2.143   3.185   2.112  0.00  0.00     0.051 H 
ATOM     14  H7  <0> d           3.524   2.752   1.075  0.00  0.00     0.051 H 
BRANCH  12  15
ATOM     15  C6  <0> d           3.111   4.843   1.180  0.00  0.00     0.174 C 
ATOM     16  O1  <0> d           2.713   5.604   0.331  0.00  0.00    -0.648 OA
ATOM     17  O2  <0> d           3.958   5.277   2.127  0.00  0.00    -0.648 OA
ENDBRANCH  12  15
ENDBRANCH   1  12
TORSDOF 3
