REMARK  3 active torsions:
REMARK  status: ('A' for Active; 'I' for Inactive)
REMARK    1  A    between atoms: C3_3  and  C7_10 
REMARK    2  A    between atoms: C5_6  and  C6_8 
REMARK    3  A    between atoms: C8_12  and  C9_13 
ROOT
ATOM      1  C6  <0> d          -1.295   3.698   0.012  0.00  0.00    -0.033 A 
ATOM      2  H3  <0> d          -0.873   4.451   0.678  0.00  0.00     0.042 H 
ATOM      3  C7  <0> d          -0.534   3.159  -1.220  0.00  0.00    -0.033 A 
ATOM      4  H4  <0> d           0.469   3.495  -1.483  0.00  0.00     0.042 H 
ATOM      5  C8  <0> d          -1.731   4.087  -1.433  0.00  0.00     0.039 A 
ATOM      6  H11 <0> d          -2.645   3.645  -1.831  0.00  0.00     0.058 H 
ENDROOT
BRANCH   5   7
ATOM      7  C9  <0> d          -1.446   5.498  -1.881  0.00  0.00     0.177 C 
ATOM      8  O1  <0> d          -0.306   5.856  -2.058  0.00  0.00    -0.648 OA
ATOM      9  O2  <0> d          -2.458   6.356  -2.083  0.00  0.00    -0.648 OA
ENDBRANCH   5   7
BRANCH   1  10
ATOM     10  C5  <0> d          -1.948   2.437   0.655  0.00  0.00    -0.049 C 
ATOM     11  C1  <0> d          -0.783   1.607   1.242  0.00  0.00    -0.061 C 
ATOM     12  C2  <0> d          -0.013   1.086   0.008  0.00  0.00    -0.061 C 
ATOM     13  H5  <0> d          -1.147   0.774   1.843  0.00  0.00     0.033 H 
ATOM     14  H6  <0> d          -0.146   2.259   1.841  0.00  0.00     0.033 H 
ATOM     15  C3  <0> d          -0.813   1.625  -1.216  0.00  0.00    -0.049 C 
ATOM     16  H7  <0> d           0.002  -0.004   0.002  0.00  0.00     0.033 H 
ATOM     17  H8  <0> d           1.004   1.479   0.000  0.00  0.00     0.033 H 
ATOM     18  H1  <0> d          -0.645   1.108  -2.161  0.00  0.00     0.040 H 
ATOM     19  C4  <0> d          -2.276   1.578  -0.650  0.00  0.00    -0.058 C 
ATOM     20  H9  <0> d          -2.986   2.080  -1.308  0.00  0.00     0.034 H 
ATOM     21  H10 <0> d          -2.592   0.561  -0.418  0.00  0.00     0.034 H 
ATOM     22  H2  <0> d          -2.789   2.624   1.323  0.00  0.00     0.040 H 
BRANCH  15  23
ENDBRANCH  15  23
ENDBRANCH   1  10
TORSDOF 3
