REMARK  3 active torsions:
REMARK  status: ('A' for Active; 'I' for Inactive)
REMARK    1  A    between atoms: C3_3  and  C5_5 
REMARK    2  A    between atoms: C5_5  and  C6_6 
REMARK    3  A    between atoms: C6_6  and  C7_7 
ROOT
ATOM      1  C1  <0> d          -0.333   0.209   4.410  0.00  0.00    -0.064 C 
ATOM      2  C2  <0> d          -0.558   1.614   3.828  0.00  0.00    -0.062 C 
ATOM      3  C3  <0> d           0.011   1.072   2.506  0.00  0.00    -0.054 C 
ATOM      4  C4  <0> d          -0.447  -0.320   2.971  0.00  0.00    -0.062 C 
ATOM      5  H1  <0> d          -1.117  -0.247   5.032  0.00  0.00     0.033 H 
ATOM      6  H2  <0> d           0.655  -0.051   4.819  0.00  0.00     0.033 H 
ATOM      7  H3  <0> d          -1.627   1.868   3.888  0.00  0.00     0.033 H 
ATOM      8  H4  <0> d           0.026   2.347   4.404  0.00  0.00     0.033 H 
ATOM      9  H5  <0> d           1.044   1.274   2.187  0.00  0.00     0.040 H 
ATOM     10  H6  <0> d           0.229  -1.178   2.841  0.00  0.00     0.033 H 
ATOM     11  H7  <0> d          -1.483  -0.636   2.778  0.00  0.00     0.033 H 
ENDROOT
BRANCH   3  12
ATOM     12  C5  <0> d          -0.729   1.579   1.267  0.00  0.00    -0.053 C 
ATOM     13  H8  <0> d          -1.761   1.198   1.275  0.00  0.00     0.034 H 
ATOM     14  H9  <0> d          -0.744   2.679   1.273  0.00  0.00     0.034 H 
BRANCH  12  15
ATOM     15  C6  <0> d          -0.013   1.086   0.008  0.00  0.00     0.016 C 
ATOM     16  H10 <0> d           1.019   1.467   0.000  0.00  0.00     0.049 H 
ATOM     17  H11 <0> d           0.002  -0.014   0.002  0.00  0.00     0.049 H 
BRANCH  15  18
ATOM     18  C7  <0> d          -0.742   1.585  -1.213  0.00  0.00     0.172 C 
ATOM     19  O1  <0> d          -1.732   2.266  -1.089  0.00  0.00    -0.648 OA
ATOM     20  O2  <0> d          -0.290   1.274  -2.438  0.00  0.00    -0.648 OA
ENDBRANCH  15  18
ENDBRANCH  12  15
ENDBRANCH   3  12
TORSDOF 3
