REMARK  1 active torsions:
REMARK  status: ('A' for Active; 'I' for Inactive)
REMARK    1  A    between atoms: C1_1  and  C2_2 
ROOT
ATOM      1  C2  <0> d           1.393   2.083  -0.000  0.00  0.00    -0.056 C 
ATOM      2  H1  <0> d           1.930   1.655  -0.846  0.00  0.00     0.039 H 
ATOM      3  C3  <0> d          -0.019   1.526   0.010  0.00  0.00    -0.054 C 
ATOM      4  C4  <0> d           0.002  -0.004   0.002  0.00  0.00     0.009 C 
ATOM      5  C5  <0> d           0.149  -0.490   1.429  0.00  0.00     0.217 C 
ATOM      6  O1  <0> d          -0.789  -1.018   1.987  0.00  0.00    -0.274 OA
ATOM      7  N1  <0> d           1.307  -0.339   2.073  0.00  0.00    -0.361 N 
ATOM      8  C6  <0> d           2.455   0.295   1.405  0.00  0.00    -0.004 C 
ATOM      9  C7  <0> d           2.175   1.793   1.268  0.00  0.00    -0.047 C 
ATOM     10  H5  <0> d          -0.552   1.883  -0.871  0.00  0.00     0.034 H 
ATOM     11  H6  <0> d          -0.535   1.873   0.906  0.00  0.00     0.034 H 
ATOM     12  H7  <0> d          -0.930  -0.381  -0.419  0.00  0.00     0.047 H 
ATOM     13  H8  <0> d           0.843  -0.356  -0.597  0.00  0.00     0.047 H 
ATOM     14  H9  <0> d           1.393  -0.649   2.988  0.00  0.00     0.162 HD
ATOM     15  H10 <0> d           3.355   0.144   2.001  0.00  0.00     0.064 H 
ATOM     16  H11 <0> d           2.593  -0.145   0.417  0.00  0.00     0.064 H 
ATOM     17  H12 <0> d           1.600   2.131   2.130  0.00  0.00     0.035 H 
ATOM     18  H13 <0> d           3.122   2.333   1.236  0.00  0.00     0.035 H 
ENDROOT
BRANCH   1  19
ATOM     19  C1  <0> d           1.319   3.599  -0.191  0.00  0.00    -0.073 C 
ATOM     20  H2  <0> d           0.752   4.042   0.628  0.00  0.00     0.028 H 
ATOM     21  H3  <0> d           2.327   4.014  -0.201  0.00  0.00     0.028 H 
ATOM     22  H4  <0> d           0.825   3.823  -1.137  0.00  0.00     0.028 H 
ENDBRANCH   1  19
TORSDOF 1
