REMARK  0 active torsions:
REMARK  status: ('A' for Active; 'I' for Inactive)
ROOT
ATOM      1  C1  <0> d          -0.017   1.391   0.010  0.00  0.00    -0.045 A 
ATOM      2  C2  <0> d           1.140   2.110   0.003  0.00  0.00    -0.068 A 
ATOM      3  C3  <0> d           2.372   1.437  -0.013  0.00  0.00    -0.008 A 
ATOM      4  C4  <0> d           3.596   2.125  -0.020  0.00  0.00     0.013 A 
ATOM      5  N1  <0> d           4.723   1.454  -0.034  0.00  0.00    -0.272 NA
ATOM      6  C5  <0> d           4.770   0.128  -0.042  0.00  0.00     0.003 A 
ATOM      7  C6  <0> d           3.640  -0.631  -0.036  0.00  0.00    -0.055 A 
ATOM      8  C7  <0> d           2.391   0.018  -0.021  0.00  0.00    -0.020 A 
ATOM      9  C8  <0> d           1.182  -0.690  -0.013  0.00  0.00    -0.035 A 
ATOM     10  C9  <0> d           0.002  -0.004   0.002  0.00  0.00     0.117 A 
ATOM     11  F1  <0> d          -1.164  -0.686   0.009  0.00  0.00    -0.206 F 
ATOM     12  H1  <0> d          -0.964   1.910   0.026  0.00  0.00     0.088 H 
ATOM     13  H2  <0> d           1.109   3.189   0.008  0.00  0.00     0.085 H 
ATOM     14  H3  <0> d           3.609   3.205  -0.015  0.00  0.00     0.116 H 
ATOM     15  H4  <0> d           5.732  -0.363  -0.054  0.00  0.00     0.114 H 
ATOM     16  H5  <0> d           3.700  -1.709  -0.043  0.00  0.00     0.087 H 
ATOM     17  H6  <0> d           1.183  -1.770  -0.019  0.00  0.00     0.089 H 
ENDROOT
TORSDOF 0
