REMARK  4 active torsions:
REMARK  status: ('A' for Active; 'I' for Inactive)
REMARK    1  A    between atoms: C1_1  and  C2_2 
REMARK    2  A    between atoms: C2_2  and  C3_3 
REMARK    3  A    between atoms: C3_3  and  C4_4 
REMARK    4  A    between atoms: C7_8  and  C8_11 
ROOT
ATOM      1  C4  <0> d          -1.413  -2.063   0.004  0.00  0.00     0.039 C 
ATOM      2  H1  <0> d          -0.803  -2.438   0.827  0.00  0.00     0.083 H 
ATOM      3  C5  <0> d          -2.854  -2.622   0.107  0.00  0.00    -0.039 C 
ATOM      4  C6  <0> d          -2.678  -4.018  -0.550  0.00  0.00    -0.039 C 
ATOM      5  C7  <0> d          -1.611  -3.739  -1.631  0.00  0.00     0.035 C 
ATOM      6  H2  <0> d          -2.094  -3.591  -2.597  0.00  0.00     0.082 H 
ATOM      7  O1  <0> d          -0.909  -2.548  -1.250  0.00  0.00    -0.381 OA
ATOM      8  H10 <0> d          -3.167  -2.713   1.147  0.00  0.00     0.036 H 
ATOM      9  H11 <0> d          -3.554  -2.007  -0.459  0.00  0.00     0.036 H 
ATOM     10  H12 <0> d          -2.313  -4.744   0.176  0.00  0.00     0.036 H 
ATOM     11  H13 <0> d          -3.610  -4.355  -1.002  0.00  0.00     0.036 H 
ENDROOT
BRANCH   1  12
ATOM     12  C3  <0> d          -1.433  -0.534   0.013  0.00  0.00    -0.041 C 
ATOM     13  H8  <0> d          -1.944  -0.182   0.910  0.00  0.00     0.036 H 
ATOM     14  H9  <0> d          -1.960  -0.173  -0.870  0.00  0.00     0.036 H 
BRANCH  12  15
ATOM     15  C2  <0> d           0.002  -0.004   0.002  0.00  0.00    -0.066 C 
ATOM     16  H6  <0> d           0.512  -0.356  -0.895  0.00  0.00     0.032 H 
ATOM     17  H7  <0> d           0.529  -0.365   0.885  0.00  0.00     0.032 H 
BRANCH  15  18
ATOM     18  C1  <0> d          -0.019   1.526   0.010  0.00  0.00    -0.076 C 
ATOM     19  H3  <0> d           1.004   1.903   0.003  0.00  0.00     0.027 H 
ATOM     20  H4  <0> d          -0.546   1.887  -0.873  0.00  0.00     0.027 H 
ATOM     21  H5  <0> d          -0.529   1.877   0.907  0.00  0.00     0.027 H 
ENDBRANCH  15  18
ENDBRANCH  12  15
ENDBRANCH   1  12
BRANCH   5  22
ATOM     22  C8  <0> d          -0.635  -4.914  -1.713  0.00  0.00    -0.052 C 
ATOM     23  H14 <0> d          -1.181  -5.822  -1.971  0.00  0.00     0.030 H 
ATOM     24  H15 <0> d           0.114  -4.711  -2.478  0.00  0.00     0.030 H 
ATOM     25  H16 <0> d          -0.144  -5.046  -0.749  0.00  0.00     0.030 H 
ENDBRANCH   5  22
TORSDOF 4
