REMARK  1 active torsions:
REMARK  status: ('A' for Active; 'I' for Inactive)
REMARK    1  A    between atoms: C5_6  and  C6_7 
ROOT
ATOM      1  C6  <0> d          -0.013   1.086   0.008  0.00  0.00     0.034 C 
ATOM      2  C7  <0> d          -0.725   1.573  -1.185  0.00  0.00     0.060 C 
ATOM      3  N1  <0> d          -1.274   1.950  -2.105  0.00  0.00    -0.197 NA
ATOM      4  H9  <0> d           1.019   1.466   0.000  0.00  0.00     0.057 H 
ATOM      5  H10 <0> d           0.002  -0.014   0.002  0.00  0.00     0.057 H 
ENDROOT
BRANCH   1   6
ATOM      6  C5  <0> d          -0.729   1.579   1.267  0.00  0.00     0.065 C 
ATOM      7  C1  <0> d          -0.741   3.111   1.282  0.00  0.00    -0.025 C 
ATOM      8  C2  <0> d          -1.389   3.595   2.582  0.00  0.00     0.021 C 
ATOM      9  H1  <0> d           0.291   3.486   1.222  0.00  0.00     0.038 H 
ATOM     10  H2  <0> d          -1.317   3.482   0.422  0.00  0.00     0.038 H 
ATOM     11  O1  <0> d          -0.671   3.063   3.698  0.00  0.00    -0.391 OA
ATOM     12  H3  <0> d          -1.361   4.694   2.618  0.00  0.00     0.074 H 
ATOM     13  H4  <0> d          -2.433   3.253   2.621  0.00  0.00     0.074 H 
ATOM     14  C3  <0> d          -0.666   1.636   3.761  0.00  0.00     0.021 C 
ATOM     15  C4  <0> d           0.011   1.073   2.509  0.00  0.00    -0.025 C 
ATOM     16  H5  <0> d          -0.114   1.310   4.655  0.00  0.00     0.074 H 
ATOM     17  H6  <0> d          -1.701   1.268   3.816  0.00  0.00     0.074 H 
ATOM     18  H7  <0> d           1.058   1.407   2.477  0.00  0.00     0.038 H 
ATOM     19  H8  <0> d          -0.023  -0.026   2.537  0.00  0.00     0.038 H 
ATOM     20  C8  <0> d          -2.111   1.074   1.277  0.00  0.00     0.070 C 
ATOM     21  N2  <0> d          -3.178   0.684   1.284  0.00  0.00    -0.196 NA
ENDBRANCH   1   6
TORSDOF 1
