REMARK  6 active torsions:
REMARK  status: ('A' for Active; 'I' for Inactive)
REMARK    1  A    between atoms: C1_1  and  C2_2 
REMARK    2  A    between atoms: C2_2  and  C3_3 
REMARK    3  A    between atoms: C2_2  and  C4_4 
REMARK    4  A    between atoms: C4_4  and  C5_5 
REMARK    5  A    between atoms: C5_5  and  C6_6 
REMARK    6  A    between atoms: C5_5  and  N2_9 
ROOT
ATOM      1  C5  <0> d           0.209   1.611   0.441  0.00  0.00     0.238 C 
ATOM      2  C7  <0> d           0.540   0.204   0.723  0.00  0.00     0.101 C 
ATOM      3  N1  <0> d           0.795  -0.881   0.940  0.00  0.00    -0.195 NA
ENDROOT
BRANCH   1   4
ATOM      4  C4  <0> d          -0.693   2.154   1.551  0.00  0.00    -0.017 C 
ATOM      5  H8  <0> d          -0.823   3.239   1.419  0.00  0.00     0.038 H 
ATOM      6  H9  <0> d          -0.230   1.957   2.530  0.00  0.00     0.038 H 
BRANCH   4   7
ATOM      7  C2  <0> d          -2.057   1.464   1.484  0.00  0.00    -0.058 C 
ATOM      8  H4  <0> d          -2.456   1.540   0.462  0.00  0.00     0.039 H 
BRANCH   7   9
ATOM      9  C1  <0> d          -1.902  -0.010   1.864  0.00  0.00    -0.073 C 
ATOM     10  H1  <0> d          -1.209  -0.498   1.162  0.00  0.00     0.028 H 
ATOM     11  H2  <0> d          -2.883  -0.505   1.815  0.00  0.00     0.028 H 
ATOM     12  H3  <0> d          -1.503  -0.085   2.886  0.00  0.00     0.028 H 
ENDBRANCH   7   9
BRANCH   7  13
ATOM     13  C3  <0> d          -3.020   2.144   2.460  0.00  0.00    -0.073 C 
ATOM     14  H5  <0> d          -3.132   3.204   2.187  0.00  0.00     0.028 H 
ATOM     15  H6  <0> d          -2.621   2.068   3.482  0.00  0.00     0.028 H 
ATOM     16  H7  <0> d          -4.001   1.648   2.411  0.00  0.00     0.028 H 
ENDBRANCH   7  13
ENDBRANCH   4   7
ENDBRANCH   1   4
BRANCH   1  17
ATOM     17  C6  <0> d          -0.521   1.704  -0.900  0.00  0.00    -0.031 C 
ATOM     18  H10 <0> d           0.128   1.313  -1.698  0.00  0.00     0.032 H 
ATOM     19  H11 <0> d          -0.768   2.755  -1.111  0.00  0.00     0.032 H 
ATOM     20  H12 <0> d          -1.446   1.111  -0.856  0.00  0.00     0.032 H 
ENDBRANCH   1  17
BRANCH   1  21
ATOM     21  N2  <0> d           1.445   2.402   0.383  0.00  0.00     0.101 N 
ATOM     22  H13 <0> d           2.093   2.011  -0.415  0.00  0.00     0.315 HD
ATOM     23  H14 <0> d           1.198   3.453   0.172  0.00  0.00     0.315 HD
ENDBRANCH   1  21
TORSDOF 6
