REMARK  3 active torsions:
REMARK  status: ('A' for Active; 'I' for Inactive)
REMARK    1  A    between atoms: C1_1  and  C2_2 
REMARK    2  A    between atoms: C2_2  and  C9_13 
REMARK    3  A    between atoms: C5_6  and  O1_12 
ROOT
ATOM      1  C2  <0> d          -0.658   1.776   1.265  0.00  0.00    -0.032 C 
ATOM      2  C3  <0> d          -0.013   1.086   0.008  0.00  0.00    -0.028 C 
ATOM      3  H1  <0> d           0.002  -0.004   0.002  0.00  0.00     0.047 H 
ATOM      4  C4  <0> d          -0.799   1.773  -1.153  0.00  0.00    -0.033 C 
ATOM      5  C5  <0> d          -0.992   3.259  -0.621  0.00  0.00     0.043 C 
ATOM      6  H2  <0> d          -2.050   3.495  -0.511  0.00  0.00     0.084 H 
ATOM      7  C6  <0> d          -0.290   3.223   0.774  0.00  0.00    -0.006 C 
ATOM      8  H3  <0> d          -0.522   4.044   1.453  0.00  0.00     0.051 H 
ATOM      9  C7  <0> d           1.193   3.016   0.440  0.00  0.00    -0.099 C 
ATOM     10  C8  <0> d           1.352   1.785  -0.001  0.00  0.00    -0.101 C 
ATOM     11  H7  <0> d          -0.210   1.771  -2.070  0.00  0.00     0.037 H 
ATOM     12  H8  <0> d          -1.758   1.279  -1.312  0.00  0.00     0.037 H 
ATOM     13  H9  <0> d           1.974   3.755   0.548  0.00  0.00     0.077 H 
ATOM     14  H10 <0> d           2.286   1.343  -0.316  0.00  0.00     0.077 H 
ENDROOT
BRANCH   1  15
ATOM     15  C1  <0> d          -2.169   1.551   1.346  0.00  0.00    -0.068 C 
ATOM     16  H4  <0> d          -2.374   0.484   1.433  0.00  0.00     0.028 H 
ATOM     17  H5  <0> d          -2.568   2.069   2.218  0.00  0.00     0.028 H 
ATOM     18  H6  <0> d          -2.643   1.939   0.445  0.00  0.00     0.028 H 
ENDBRANCH   1  15
BRANCH   1  19
ATOM     19  C9  <0> d           0.051   1.400   2.568  0.00  0.00    -0.068 C 
ATOM     20  H12 <0> d           1.102   1.686   2.505  0.00  0.00     0.028 H 
ATOM     21  H13 <0> d          -0.418   1.924   3.401  0.00  0.00     0.028 H 
ATOM     22  H14 <0> d          -0.024   0.325   2.726  0.00  0.00     0.028 H 
ENDBRANCH   1  19
BRANCH   5  23
ATOM     23  O1  <0> d          -0.352   4.203  -1.481  0.00  0.00    -0.395 OA
ATOM     24  H11 <0> d          -0.749   4.265  -2.361  0.00  0.00     0.210 HD
ENDBRANCH   5  23
TORSDOF 3
