REMARK  1 active torsions:
REMARK  status: ('A' for Active; 'I' for Inactive)
REMARK    1  A    between atoms: C1_1  and  C2_2 
ROOT
ATOM      1  C2  <0> d          -2.151   0.983   1.281  0.00  0.00    -0.029 C 
ATOM      2  H1  <0> d          -2.075  -0.088   1.468  0.00  0.00     0.047 H 
ATOM      3  C3  <0> d          -0.747   1.589   1.258  0.00  0.00    -0.043 C 
ATOM      4  C4  <0> d          -0.013   1.086   0.008  0.00  0.00    -0.007 C 
ATOM      5  N1  <0> d          -0.739   1.580  -1.170  0.00  0.00    -0.389 N 
ATOM      6  C5  <0> d          -2.135   1.489  -1.192  0.00  0.00     0.034 A 
ATOM      7  C6  <0> d          -2.847   1.211  -0.035  0.00  0.00    -0.028 A 
ATOM      8  C7  <0> d          -4.228   1.134  -0.085  0.00  0.00    -0.074 A 
ATOM      9  C8  <0> d          -4.894   1.327  -1.280  0.00  0.00    -0.082 A 
ATOM     10  C9  <0> d          -4.185   1.601  -2.435  0.00  0.00    -0.081 A 
ATOM     11  C10 <0> d          -2.807   1.683  -2.393  0.00  0.00    -0.057 A 
ATOM     12  H5  <0> d          -0.201   1.283   2.150  0.00  0.00     0.036 H 
ATOM     13  H6  <0> d          -0.819   2.676   1.226  0.00  0.00     0.036 H 
ATOM     14  H7  <0> d           0.002  -0.004   0.002  0.00  0.00     0.064 H 
ATOM     15  H8  <0> d           1.008   1.469   0.000  0.00  0.00     0.064 H 
ATOM     16  H9  <0> d          -0.258   1.963  -1.921  0.00  0.00     0.159 HD
ATOM     17  H10 <0> d          -4.788   0.920   0.814  0.00  0.00     0.084 H 
ATOM     18  H11 <0> d          -5.972   1.265  -1.312  0.00  0.00     0.083 H 
ATOM     19  H12 <0> d          -4.707   1.751  -3.368  0.00  0.00     0.083 H 
ATOM     20  H13 <0> d          -2.252   1.897  -3.294  0.00  0.00     0.086 H 
ENDROOT
BRANCH   1  21
ATOM     21  C1  <0> d          -2.964   1.635   2.402  0.00  0.00    -0.069 C 
ATOM     22  H2  <0> d          -3.960   1.192   2.433  0.00  0.00     0.028 H 
ATOM     23  H3  <0> d          -2.463   1.472   3.356  0.00  0.00     0.028 H 
ATOM     24  H4  <0> d          -3.048   2.706   2.214  0.00  0.00     0.028 H 
ENDBRANCH   1  21
TORSDOF 1
