REMARK  5 active torsions:
REMARK  status: ('A' for Active; 'I' for Inactive)
REMARK    1  A    between atoms: C1_1  and  C2_2 
REMARK    2  A    between atoms: C5_6  and  C8_12 
REMARK    3  A    between atoms: C6_8  and  O1_11 
REMARK    4  A    between atoms: C8_12  and  C9_13 
REMARK    5  A    between atoms: C8_12  and  C10_14 
ROOT
ATOM      1  C2  <0> d          -0.290   2.169  -1.376  0.00  0.00    -0.055 C 
ATOM      2  H1  <0> d          -1.270   1.708  -1.502  0.00  0.00     0.039 H 
ATOM      3  C3  <0> d           0.402   1.569  -0.150  0.00  0.00    -0.061 C 
ATOM      4  C4  <0> d          -0.449   1.832   1.095  0.00  0.00    -0.059 C 
ATOM      5  C5  <0> d          -0.615   3.340   1.290  0.00  0.00    -0.026 C 
ATOM      6  H2  <0> d           0.365   3.801   1.415  0.00  0.00     0.044 H 
ATOM      7  C6  <0> d          -1.307   3.939   0.064  0.00  0.00     0.040 C 
ATOM      8  H3  <0> d          -2.287   3.479  -0.062  0.00  0.00     0.083 H 
ATOM      9  C7  <0> d          -0.457   3.677  -1.181  0.00  0.00    -0.038 C 
ATOM     10  H7  <0> d           0.521   0.495  -0.289  0.00  0.00     0.033 H 
ATOM     11  H8  <0> d           1.382   2.030  -0.024  0.00  0.00     0.033 H 
ATOM     12  H9  <0> d          -1.428   1.371   0.969  0.00  0.00     0.033 H 
ATOM     13  H10 <0> d           0.044   1.405   1.968  0.00  0.00     0.033 H 
ATOM     14  H11 <0> d           0.523   4.138  -1.055  0.00  0.00     0.037 H 
ATOM     15  H12 <0> d          -0.949   4.104  -2.054  0.00  0.00     0.037 H 
ENDROOT
BRANCH   5  16
ATOM     16  C8  <0> d          -1.466   3.603   2.534  0.00  0.00    -0.055 C 
ATOM     17  H14 <0> d          -1.647   4.673   2.631  0.00  0.00     0.039 H 
BRANCH  16  18
ATOM     18  C9  <0> d          -2.802   2.869   2.402  0.00  0.00    -0.073 C 
ATOM     19  H15 <0> d          -3.408   3.056   3.289  0.00  0.00     0.028 H 
ATOM     20  H16 <0> d          -3.329   3.230   1.519  0.00  0.00     0.028 H 
ATOM     21  H17 <0> d          -2.621   1.799   2.305  0.00  0.00     0.028 H 
ENDBRANCH  16  18
BRANCH  16  22
ATOM     22  C10 <0> d          -0.726   3.096   3.774  0.00  0.00    -0.073 C 
ATOM     23  H18 <0> d           0.267   3.544   3.812  0.00  0.00     0.028 H 
ATOM     24  H19 <0> d          -1.284   3.372   4.668  0.00  0.00     0.028 H 
ATOM     25  H20 <0> d          -0.633   2.011   3.723  0.00  0.00     0.028 H 
ENDBRANCH  16  22
ENDBRANCH   5  16
BRANCH   7  26
ATOM     26  O1  <0> d          -1.463   5.348   0.246  0.00  0.00    -0.395 OA
ATOM     27  H13 <0> d          -1.895   5.795  -0.495  0.00  0.00     0.210 HD
ENDBRANCH   7  26
BRANCH   1  28
ATOM     28  C1  <0> d           0.561   1.906  -2.621  0.00  0.00    -0.073 C 
ATOM     29  H4  <0> d           0.679   0.832  -2.760  0.00  0.00     0.028 H 
ATOM     30  H5  <0> d           0.068   2.333  -3.494  0.00  0.00     0.028 H 
ATOM     31  H6  <0> d           1.540   2.367  -2.495  0.00  0.00     0.028 H 
ENDBRANCH   1  28
TORSDOF 5
