REMARK  2 active torsions:
REMARK  status: ('A' for Active; 'I' for Inactive)
REMARK    1  A    between atoms: C1_1  and  N1_2 
REMARK    2  A    between atoms: C2_3  and  C7_9 
ROOT
ATOM      1  N1  <0> d           0.002  -0.004   0.002  0.00  0.00    -0.313 N 
ATOM      2  C2  <0> d          -1.179  -0.700   0.004  0.00  0.00     0.114 A 
ATOM      3  C3  <0> d          -1.179  -2.063  -0.004  0.00  0.00    -0.050 A 
ATOM      4  C4  <0> d           0.039  -2.764  -0.013  0.00  0.00    -0.075 A 
ATOM      5  C5  <0> d           1.209  -2.070  -0.015  0.00  0.00    -0.017 A 
ATOM      6  C6  <0> d           1.181  -0.656  -0.013  0.00  0.00     0.247 A 
ATOM      7  O1  <0> d           2.225  -0.026  -0.020  0.00  0.00    -0.268 OA
ATOM      8  H4  <0> d          -2.114  -2.604  -0.002  0.00  0.00     0.087 H 
ATOM      9  H5  <0> d           0.046  -3.844  -0.019  0.00  0.00     0.083 H 
ATOM     10  H6  <0> d           2.153  -2.595  -0.022  0.00  0.00     0.092 H 
ENDROOT
BRANCH   1  11
ATOM     11  C1  <0> d          -0.018   1.461   0.010  0.00  0.00    -0.011 C 
ATOM     12  H1  <0> d           1.005   1.838   0.002  0.00  0.00     0.057 H 
ATOM     13  H2  <0> d          -0.545   1.822  -0.873  0.00  0.00     0.057 H 
ATOM     14  H3  <0> d          -0.528   1.812   0.907  0.00  0.00     0.057 H 
ENDBRANCH   1  11
BRANCH   2  15
ATOM     15  C7  <0> d          -2.461   0.033   0.015  0.00  0.00     0.227 C 
ATOM     16  O2  <0> d          -3.517  -0.583   0.016  0.00  0.00    -0.643 OA
ATOM     17  O3  <0> d          -2.466   1.256   0.022  0.00  0.00    -0.643 OA
ENDBRANCH   2  15
TORSDOF 2
