REMARK  4 active torsions:
REMARK  status: ('A' for Active; 'I' for Inactive)
REMARK    1  A    between atoms: C1_1  and  C2_2 
REMARK    2  A    between atoms: C2_2  and  O1_3 
REMARK    3  A    between atoms: O1_3  and  C3_4 
REMARK    4  A    between atoms: C3_4  and  C4_6 
ROOT
ATOM      1  C4  <0> d          -2.881  -2.427   0.017  0.00  0.00     0.235 C 
ATOM      2  H1  <0> d          -3.532  -1.844  -0.635  0.00  0.00     0.107 H 
ATOM      3  C5  <0> d          -3.435  -2.408   1.444  0.00  0.00     0.057 C 
ATOM      4  O3  <0> d          -4.717  -3.041   1.460  0.00  0.00    -0.387 OA
ATOM      5  C6  <0> d          -4.697  -4.395   1.000  0.00  0.00     0.044 C 
ATOM      6  C7  <0> d          -4.155  -4.434  -0.431  0.00  0.00     0.132 C 
ATOM      7  N1  <0> d          -2.822  -3.815  -0.464  0.00  0.00     0.102 N 
ATOM      8  H7  <0> d          -2.755  -2.945   2.105  0.00  0.00     0.078 H 
ATOM      9  H8  <0> d          -3.534  -1.376   1.782  0.00  0.00     0.078 H 
ATOM     10  H9  <0> d          -4.054  -4.990   1.649  0.00  0.00     0.076 H 
ATOM     11  H10 <0> d          -5.708  -4.801   1.018  0.00  0.00     0.076 H 
ATOM     12  H11 <0> d          -4.084  -5.469  -0.765  0.00  0.00     0.082 H 
ATOM     13  H12 <0> d          -4.827  -3.884  -1.090  0.00  0.00     0.082 H 
ATOM     14  H13 <0> d          -2.424  -3.861  -1.389  0.00  0.00     0.317 HD
ENDROOT
BRANCH   1  15
ATOM     15  C3  <0> d          -1.496  -1.832   0.006  0.00  0.00     0.294 C 
ATOM     16  O2  <0> d          -0.528  -2.555  -0.007  0.00  0.00    -0.263 OA
BRANCH  15  17
ATOM     17  O1  <0> d          -1.339  -0.499   0.012  0.00  0.00    -0.320 OA
BRANCH  17  18
ATOM     18  C2  <0> d           0.002  -0.004   0.002  0.00  0.00     0.025 C 
ATOM     19  H5  <0> d           0.512  -0.356  -0.895  0.00  0.00     0.074 H 
ATOM     20  H6  <0> d           0.529  -0.365   0.885  0.00  0.00     0.074 H 
BRANCH  18  21
ATOM     21  C1  <0> d          -0.019   1.526   0.010  0.00  0.00    -0.056 C 
ATOM     22  H2  <0> d           1.004   1.903   0.003  0.00  0.00     0.030 H 
ATOM     23  H3  <0> d          -0.546   1.887  -0.873  0.00  0.00     0.030 H 
ATOM     24  H4  <0> d          -0.529   1.877   0.907  0.00  0.00     0.030 H 
ENDBRANCH  18  21
ENDBRANCH  17  18
ENDBRANCH  15  17
ENDBRANCH   1  15
TORSDOF 4
