REMARK  6 active torsions:
REMARK  status: ('A' for Active; 'I' for Inactive)
REMARK    1  A    between atoms: C1_1  and  C2_2 
REMARK    2  A    between atoms: C2_2  and  C3_3 
REMARK    3  A    between atoms: C2_2  and  C4_4 
REMARK    4  A    between atoms: C2_2  and  C5_5 
REMARK    5  A    between atoms: C5_5  and  N1_6 
REMARK    6  A    between atoms: N1_6  and  N2_7 
ROOT
ATOM      1  C2  <0> d          -1.889  -3.151   0.003  0.00  0.00    -0.038 C 
ENDROOT
BRANCH   1   2
ATOM      2  C1  <0> d          -2.738  -2.864  -1.236  0.00  0.00    -0.069 C 
ATOM      3  H1  <0> d          -2.150  -3.059  -2.133  0.00  0.00     0.028 H 
ATOM      4  H2  <0> d          -3.617  -3.509  -1.232  0.00  0.00     0.028 H 
ATOM      5  H3  <0> d          -3.052  -1.821  -1.228  0.00  0.00     0.028 H 
ENDBRANCH   1   2
BRANCH   1   6
ATOM      6  C3  <0> d          -1.447  -4.616  -0.009  0.00  0.00    -0.069 C 
ATOM      7  H4  <0> d          -0.842  -4.821   0.874  0.00  0.00     0.028 H 
ATOM      8  H5  <0> d          -2.327  -5.261  -0.004  0.00  0.00     0.028 H 
ATOM      9  H6  <0> d          -0.859  -4.811  -0.906  0.00  0.00     0.028 H 
ENDBRANCH   1   6
BRANCH   1  10
ATOM     10  C4  <0> d          -2.714  -2.878   1.262  0.00  0.00    -0.069 C 
ATOM     11  H7  <0> d          -3.028  -1.834   1.270  0.00  0.00     0.028 H 
ATOM     12  H8  <0> d          -3.593  -3.522   1.267  0.00  0.00     0.028 H 
ATOM     13  H9  <0> d          -2.109  -3.082   2.145  0.00  0.00     0.028 H 
ENDBRANCH   1  10
BRANCH   1  14
ATOM     14  C5  <0> d          -0.654  -2.247  -0.004  0.00  0.00     0.001 C 
ATOM     15  H10 <0> d          -0.066  -2.442  -0.900  0.00  0.00     0.059 H 
ATOM     16  H11 <0> d          -0.049  -2.452   0.879  0.00  0.00     0.059 H 
BRANCH  14  17
ATOM     17  N1  <0> d          -1.078  -0.841   0.008  0.00  0.00    -0.231 NA
ATOM     18  H12 <0> d          -1.678  -0.650   0.796  0.00  0.00     0.147 HD
BRANCH  17  19
ATOM     19  N2  <0> d           0.002  -0.004   0.002  0.00  0.00    -0.261 N 
ATOM     20  C7  <0> d           1.309  -0.361  -0.012  0.00  0.00     0.103 A 
ATOM     21  N4  <0> d           2.012   0.739  -0.013  0.00  0.00    -0.143 NA
ATOM     22  H14 <0> d           1.698  -1.368  -0.021  0.00  0.00     0.148 H 
ATOM     23  N3  <0> d           1.224   1.756  -0.000  0.00  0.00    -0.143 NA
ATOM     24  C6  <0> d          -0.016   1.351   0.009  0.00  0.00     0.103 A 
ATOM     25  H13 <0> d          -0.895   1.979   0.017  0.00  0.00     0.148 H 
ENDBRANCH  17  19
ENDBRANCH  14  17
ENDBRANCH   1  14
TORSDOF 6
