REMARK  4 active torsions:
REMARK  status: ('A' for Active; 'I' for Inactive)
REMARK    1  A    between atoms: C1_1  and  N1_2 
REMARK    2  A    between atoms: N1_2  and  C2_3 
REMARK    3  A    between atoms: N1_2  and  C3_4 
REMARK    4  A    between atoms: C6_7  and  O1_10 
ROOT
ATOM      1  C3  <0> d           1.177   2.087   0.003  0.00  0.00     0.029 A 
ATOM      2  C4  <0> d          -0.017   1.377   0.026  0.00  0.00    -0.055 A 
ATOM      3  C5  <0> d           0.002  -0.004   0.019  0.00  0.00    -0.049 A 
ATOM      4  C6  <0> d           1.212  -0.682  -0.010  0.00  0.00     0.065 A 
ATOM      5  C7  <0> d           2.404   0.027  -0.032  0.00  0.00    -0.049 A 
ATOM      6  C8  <0> d           2.387   1.408  -0.025  0.00  0.00    -0.055 A 
ATOM      7  H7  <0> d          -0.959   1.904   0.044  0.00  0.00     0.087 H 
ATOM      8  H8  <0> d          -0.926  -0.556   0.037  0.00  0.00     0.087 H 
ATOM      9  H9  <0> d           3.346  -0.501  -0.055  0.00  0.00     0.087 H 
ATOM     10  H10 <0> d           3.316   1.960  -0.042  0.00  0.00     0.087 H 
ENDROOT
BRANCH   1  11
ATOM     11  N1  <0> d           1.159   3.486   0.009  0.00  0.00    -0.390 N 
BRANCH  11  12
ATOM     12  C1  <0> d          -0.116   4.203  -0.087  0.00  0.00    -0.019 C 
ATOM     13  H1  <0> d          -0.512   4.375   0.913  0.00  0.00     0.056 H 
ATOM     14  H2  <0> d           0.042   5.160  -0.585  0.00  0.00     0.056 H 
ATOM     15  H3  <0> d          -0.825   3.607  -0.661  0.00  0.00     0.056 H 
ENDBRANCH  11  12
BRANCH  11  16
ATOM     16  C2  <0> d           2.414   4.235   0.112  0.00  0.00    -0.019 C 
ATOM     17  H4  <0> d           3.254   3.541   0.083  0.00  0.00     0.056 H 
ATOM     18  H5  <0> d           2.490   4.932  -0.722  0.00  0.00     0.056 H 
ATOM     19  H6  <0> d           2.431   4.788   1.051  0.00  0.00     0.056 H 
ENDBRANCH  11  16
ENDBRANCH   1  11
BRANCH   4  20
ATOM     20  O1  <0> d           1.229  -2.042  -0.017  0.00  0.00    -0.361 OA
ATOM     21  H11 <0> d           1.215  -2.431  -0.902  0.00  0.00     0.217 HD
ENDBRANCH   4  20
TORSDOF 4
