REMARK  5 active torsions:
REMARK  status: ('A' for Active; 'I' for Inactive)
REMARK    1  A    between atoms: C1_1  and  C2_2 
REMARK    2  A    between atoms: C2_2  and  O1_3 
REMARK    3  A    between atoms: O1_3  and  C3_4 
REMARK    4  A    between atoms: C3_4  and  C4_6 
REMARK    5  A    between atoms: C6_9  and  C7_11 
ROOT
ATOM      1  C4  <0> d           0.145   0.983   4.903  0.00  0.00     0.034 A 
ATOM      2  H1  <0> d           1.232   0.911   4.857  0.00  0.00     0.056 H 
ATOM      3  C5  <0> d          -0.595  -0.042   5.765  0.00  0.00    -0.049 A 
ATOM      4  C6  <0> d          -0.478   1.411   6.234  0.00  0.00    -0.045 A 
ATOM      5  H2  <0> d           0.198   1.620   7.062  0.00  0.00     0.040 H 
ATOM      6  H8  <0> d          -1.570  -0.382   5.417  0.00  0.00     0.034 H 
ATOM      7  H9  <0> d           0.005  -0.788   6.286  0.00  0.00     0.034 H 
ENDROOT
BRANCH   1   8
ATOM      8  C3  <0> d          -0.530   1.446   3.638  0.00  0.00     0.263 C 
ATOM      9  O2  <0> d          -1.525   2.129   3.699  0.00  0.00    -0.265 OA
BRANCH   8  10
ATOM     10  O1  <0> d          -0.027   1.098   2.443  0.00  0.00    -0.322 OA
BRANCH  10  11
ATOM     11  C2  <0> d          -0.729   1.579   1.267  0.00  0.00     0.025 C 
ATOM     12  H6  <0> d          -0.744   2.669   1.273  0.00  0.00     0.074 H 
ATOM     13  H7  <0> d          -1.751   1.202   1.275  0.00  0.00     0.074 H 
BRANCH  11  14
ATOM     14  C1  <0> d          -0.013   1.086   0.008  0.00  0.00    -0.056 C 
ATOM     15  H3  <0> d           0.002  -0.004   0.002  0.00  0.00     0.030 H 
ATOM     16  H4  <0> d           1.010   1.463   0.000  0.00  0.00     0.030 H 
ATOM     17  H5  <0> d          -0.540   1.447  -0.875  0.00  0.00     0.030 H 
ENDBRANCH  11  14
ENDBRANCH  10  11
ENDBRANCH   8  10
ENDBRANCH   1   8
BRANCH   4  18
ATOM     18  C7  <0> d          -1.740   2.275   6.177  0.00  0.00    -0.072 C 
ATOM     19  H10 <0> d          -2.527   1.735   5.650  0.00  0.00     0.028 H 
ATOM     20  H11 <0> d          -2.071   2.502   7.191  0.00  0.00     0.028 H 
ATOM     21  H12 <0> d          -1.521   3.203   5.650  0.00  0.00     0.028 H 
ENDBRANCH   4  18
TORSDOF 5
