REMARK  5 active torsions:
REMARK  status: ('A' for Active; 'I' for Inactive)
REMARK    1  A    between atoms: C1_1  and  C2_2 
REMARK    2  A    between atoms: C2_2  and  C3_3 
REMARK    3  A    between atoms: C2_2  and  C4_4 
REMARK    4  A    between atoms: C4_4  and  C5_5 
REMARK    5  A    between atoms: C5_5  and  C6_6 
ROOT
ATOM      1  C5  <0> d          -1.416  -2.058  -0.121  0.00  0.00    -0.046 C 
ATOM      2  H11 <0> d          -0.933  -2.334  -1.059  0.00  0.00     0.036 H 
ATOM      3  H12 <0> d          -0.863  -2.489   0.713  0.00  0.00     0.036 H 
ENDROOT
BRANCH   1   4
ATOM      4  C4  <0> d          -1.433  -0.534   0.013  0.00  0.00    -0.060 C 
ATOM      5  H9  <0> d          -1.916  -0.257   0.950  0.00  0.00     0.033 H 
ATOM      6  H10 <0> d          -1.986  -0.102  -0.821  0.00  0.00     0.033 H 
BRANCH   4   7
ATOM      7  C2  <0> d           0.002  -0.004   0.002  0.00  0.00    -0.061 C 
ATOM      8  H5  <0> d           0.512  -0.356  -0.895  0.00  0.00     0.038 H 
BRANCH   7   9
ATOM      9  C1  <0> d          -0.019   1.526   0.010  0.00  0.00    -0.073 C 
ATOM     10  H2  <0> d           1.004   1.903   0.003  0.00  0.00     0.028 H 
ATOM     11  H3  <0> d          -0.546   1.887  -0.873  0.00  0.00     0.028 H 
ATOM     12  H4  <0> d          -0.529   1.877   0.907  0.00  0.00     0.028 H 
ENDBRANCH   7   9
BRANCH   7  13
ATOM     13  C3  <0> d           0.742  -0.511   1.242  0.00  0.00    -0.073 C 
ATOM     14  H6  <0> d           0.232  -0.159   2.138  0.00  0.00     0.028 H 
ATOM     15  H7  <0> d           0.757  -1.601   1.236  0.00  0.00     0.028 H 
ATOM     16  H8  <0> d           1.765  -0.134   1.234  0.00  0.00     0.028 H 
ENDBRANCH   7  13
ENDBRANCH   4   7
ENDBRANCH   1   4
BRANCH   1  17
ATOM     17  C6  <0> d          -2.851  -2.587  -0.110  0.00  0.00     0.012 C 
ATOM     18  H1  <0> d          -3.377  -2.232   0.776  0.00  0.00     0.072 H 
ATOM     19  N1  <0> d          -3.558  -2.163  -1.324  0.00  0.00    -0.356 N 
ATOM     20  C9  <0> d          -3.635  -3.166  -2.219  0.00  0.00     0.217 C 
ATOM     21  H17 <0> d          -3.923  -1.274  -1.463  0.00  0.00     0.162 HD
ATOM     22  C8  <0> d          -2.972  -4.408  -1.666  0.00  0.00     0.011 C 
ATOM     23  O1  <0> d          -4.161  -3.085  -3.309  0.00  0.00    -0.274 OA
ATOM     24  C7  <0> d          -2.851  -4.131  -0.150  0.00  0.00    -0.038 C 
ATOM     25  H15 <0> d          -1.985  -4.543  -2.109  0.00  0.00     0.047 H 
ATOM     26  H16 <0> d          -3.594  -5.285  -1.846  0.00  0.00     0.047 H 
ATOM     27  H13 <0> d          -1.919  -4.532   0.247  0.00  0.00     0.036 H 
ATOM     28  H14 <0> d          -3.708  -4.535   0.390  0.00  0.00     0.036 H 
ENDBRANCH   1  17
TORSDOF 5
