REMARK  2 active torsions:
REMARK  status: ('A' for Active; 'I' for Inactive)
REMARK    1  A    between atoms: C1_1  and  C2_2 
REMARK    2  A    between atoms: C5_5  and  N3_12 
ROOT
ATOM      1  C2  <0> d           3.493   0.838  -0.027  0.00  0.00    -0.048 A 
ATOM      2  C3  <0> d           4.049   2.083  -0.025  0.00  0.00    -0.074 A 
ATOM      3  C4  <0> d           3.250   3.219  -0.011  0.00  0.00    -0.055 A 
ATOM      4  C5  <0> d           1.872   3.107   0.001  0.00  0.00     0.055 A 
ATOM      5  C6  <0> d           1.282   1.839  -0.000  0.00  0.00     0.088 A 
ATOM      6  C7  <0> d           2.098   0.694  -0.014  0.00  0.00     0.019 A 
ATOM      7  C8  <0> d           1.233  -0.427  -0.012  0.00  0.00     0.034 A 
ATOM      8  N1  <0> d           0.002  -0.004   0.002  0.00  0.00    -0.186 NA
ATOM      9  N2  <0> d          -0.017   1.396   0.010  0.00  0.00    -0.275 N 
ATOM     10  H1  <0> d          -0.834   1.972   0.021  0.00  0.00     0.189 HD
ATOM     11  H5  <0> d           5.124   2.188  -0.035  0.00  0.00     0.084 H 
ATOM     12  H6  <0> d           3.708   4.197  -0.010  0.00  0.00     0.087 H 
ATOM     13  H7  <0> d           1.543  -1.461  -0.021  0.00  0.00     0.118 H 
ENDROOT
BRANCH   1  14
ATOM     14  C1  <0> d           4.376  -0.383  -0.041  0.00  0.00    -0.050 C 
ATOM     15  H2  <0> d           4.579  -0.672  -1.072  0.00  0.00     0.033 H 
ATOM     16  H3  <0> d           5.315  -0.158   0.465  0.00  0.00     0.033 H 
ATOM     17  H4  <0> d           3.873  -1.201   0.473  0.00  0.00     0.033 H 
ENDBRANCH   1  14
BRANCH   4  18
ATOM     18  N3  <0> d           1.073   4.254   0.016  0.00  0.00    -0.397 N 
ATOM     19  H8  <0> d           1.486   5.132   0.017  0.00  0.00     0.156 HD
ATOM     20  H9  <0> d           0.107   4.172   0.025  0.00  0.00     0.156 HD
ENDBRANCH   4  18
TORSDOF 2
