REMARK  1 active torsions:
REMARK  status: ('A' for Active; 'I' for Inactive)
REMARK    1  A    between atoms: C5_5  and  N2_9 
ROOT
ATOM      1  C1  <0> d           1.177   2.067   0.002  0.00  0.00    -0.064 A 
ATOM      2  C2  <0> d          -0.017   1.404   0.010  0.00  0.00    -0.051 A 
ATOM      3  C3  <0> d           0.002  -0.004   0.002  0.00  0.00     0.087 A 
ATOM      4  C4  <0> d           1.252  -0.666  -0.013  0.00  0.00     0.111 A 
ATOM      5  C5  <0> d           1.270  -2.083  -0.021  0.00  0.00     0.058 A 
ATOM      6  C6  <0> d           0.056  -2.748  -0.013  0.00  0.00    -0.038 A 
ATOM      7  C7  <0> d          -1.128  -2.022   0.002  0.00  0.00     0.005 A 
ATOM      8  N1  <0> d          -1.133  -0.710   0.009  0.00  0.00    -0.259 NA
ATOM      9  N3  <0> d           2.384   0.038  -0.020  0.00  0.00    -0.256 NA
ATOM     10  C8  <0> d           2.371   1.350  -0.013  0.00  0.00     0.003 A 
ATOM     11  H1  <0> d           1.196   3.147   0.007  0.00  0.00     0.085 H 
ATOM     12  H2  <0> d          -0.951   1.946   0.017  0.00  0.00     0.087 H 
ATOM     13  H3  <0> d           0.029  -3.828  -0.019  0.00  0.00     0.089 H 
ATOM     14  H4  <0> d          -2.069  -2.552   0.008  0.00  0.00     0.114 H 
ATOM     15  H7  <0> d           3.308   1.886  -0.018  0.00  0.00     0.114 H 
ENDROOT
BRANCH   5  16
ATOM     16  N2  <0> d           2.468  -2.783  -0.036  0.00  0.00    -0.397 N 
ATOM     17  H5  <0> d           3.311  -2.302  -0.041  0.00  0.00     0.156 HD
ATOM     18  H6  <0> d           2.463  -3.753  -0.041  0.00  0.00     0.156 HD
ENDBRANCH   5  16
TORSDOF 1
