REMARK  3 active torsions:
REMARK  status: ('A' for Active; 'I' for Inactive)
REMARK    1  A    between atoms: C1_1  and  C2_2 
REMARK    2  A    between atoms: C2_2  and  C3_3 
REMARK    3  A    between atoms: C5_6  and  N2_8 
ROOT
ATOM      1  C3  <0> d          -2.710   3.225   0.032  0.00  0.00     0.149 A 
ATOM      2  N1  <0> d          -3.369   2.107   0.029  0.00  0.00    -0.213 NA
ATOM      3  C4  <0> d          -2.479   1.075   0.020  0.00  0.00     0.189 A 
ATOM      4  C5  <0> d          -1.215   1.639   0.017  0.00  0.00     0.183 A 
ATOM      5  O1  <0> d          -1.391   2.973   0.031  0.00  0.00    -0.276 OA
ATOM      6  C6  <0> d          -2.791  -0.323   0.014  0.00  0.00     0.124 C 
ATOM      7  N3  <0> d          -3.039  -1.431   0.009  0.00  0.00    -0.190 NA
ENDROOT
BRANCH   4   8
ATOM      8  N2  <0> d          -0.011   0.966   0.007  0.00  0.00    -0.377 N 
ATOM      9  H6  <0> d           0.002  -0.004   0.002  0.00  0.00     0.158 HD
ATOM     10  H7  <0> d           0.822   1.462   0.002  0.00  0.00     0.158 HD
ENDBRANCH   4   8
BRANCH   1  11
ATOM     11  C2  <0> d          -3.331   4.598   0.044  0.00  0.00    -0.007 C 
ATOM     12  H4  <0> d          -2.672   5.299  -0.469  0.00  0.00     0.044 H 
ATOM     13  H5  <0> d          -4.294   4.565  -0.466  0.00  0.00     0.044 H 
BRANCH  11  14
ATOM     14  C1  <0> d          -3.534   5.054   1.490  0.00  0.00    -0.069 C 
ATOM     15  H1  <0> d          -4.192   4.353   2.003  0.00  0.00     0.028 H 
ATOM     16  H2  <0> d          -2.571   5.087   1.999  0.00  0.00     0.028 H 
ATOM     17  H3  <0> d          -3.983   6.047   1.498  0.00  0.00     0.028 H 
ENDBRANCH  11  14
ENDBRANCH   1  11
TORSDOF 3
