REMARK  3 active torsions:
REMARK  status: ('A' for Active; 'I' for Inactive)
REMARK    1  A    between atoms: C1_1  and  C2_2 
REMARK    2  A    between atoms: C4_4  and  C9_10 
REMARK    3  A    between atoms: C6_6  and  C8_8 
ROOT
ATOM      1  C2  <0> d          -0.017   1.379   0.010  0.00  0.00    -0.060 A 
ATOM      2  C3  <0> d           0.002  -0.004   0.002  0.00  0.00    -0.071 A 
ATOM      3  C4  <0> d           1.206  -0.686  -0.013  0.00  0.00    -0.060 A 
ATOM      4  C5  <0> d           2.397   0.011  -0.020  0.00  0.00    -0.061 A 
ATOM      5  C6  <0> d           2.385   1.407  -0.013  0.00  0.00     0.041 A 
ATOM      6  C7  <0> d           1.167   2.088   0.002  0.00  0.00    -0.061 A 
ATOM      7  H4  <0> d          -0.927  -0.554   0.008  0.00  0.00     0.085 H 
ATOM      8  H5  <0> d           3.336  -0.523  -0.032  0.00  0.00     0.086 H 
ATOM      9  H6  <0> d           1.151   3.168   0.008  0.00  0.00     0.086 H 
ENDROOT
BRANCH   1  10
ATOM     10  C1  <0> d          -1.333   2.113   0.020  0.00  0.00    -0.051 C 
ATOM     11  H1  <0> d          -1.645   2.285   1.050  0.00  0.00     0.033 H 
ATOM     12  H2  <0> d          -1.219   3.070  -0.489  0.00  0.00     0.033 H 
ATOM     13  H3  <0> d          -2.086   1.516  -0.494  0.00  0.00     0.033 H 
ENDBRANCH   1  10
BRANCH   5  14
ATOM     14  C8  <0> d           3.656   2.159  -0.021  0.00  0.00     0.209 C 
ATOM     15  O1  <0> d           4.715   1.564  -0.034  0.00  0.00    -0.644 OA
ATOM     16  O2  <0> d           3.642   3.506  -0.014  0.00  0.00    -0.644 OA
ENDBRANCH   5  14
BRANCH   3  17
ATOM     17  C9  <0> d           1.216  -2.193  -0.021  0.00  0.00    -0.051 C 
ATOM     18  H7  <0> d           1.209  -2.551  -1.051  0.00  0.00     0.033 H 
ATOM     19  H8  <0> d           2.114  -2.553   0.482  0.00  0.00     0.033 H 
ATOM     20  H9  <0> d           0.334  -2.565   0.499  0.00  0.00     0.033 H 
ENDBRANCH   3  17
TORSDOF 3
