REMARK  1 active torsions:
REMARK  status: ('A' for Active; 'I' for Inactive)
REMARK    1  A    between atoms: C1_1  and  C2_2 
ROOT
ATOM      1  C2  <0> d          -0.055   3.855   0.024  0.00  0.00    -0.028 A 
ATOM      2  C3  <0> d          -1.232   3.136   0.032  0.00  0.00    -0.074 A 
ATOM      3  C4  <0> d          -1.214   1.750   0.017  0.00  0.00    -0.081 A 
ATOM      4  C5  <0> d          -0.013   1.076   0.008  0.00  0.00    -0.067 A 
ATOM      5  C6  <0> d           1.188   1.793   0.000  0.00  0.00     0.046 A 
ATOM      6  C7  <0> d           1.172   3.196   0.008  0.00  0.00     0.089 A 
ATOM      7  O1  <0> d           2.429   3.697  -0.001  0.00  0.00    -0.342 OA
ATOM      8  C8  <0> d           3.391   2.642  -0.016  0.00  0.00     0.085 A 
ATOM      9  C9  <0> d           2.593   1.355  -0.015  0.00  0.00     0.186 A 
ATOM     10  O2  <0> d           3.016   0.218  -0.026  0.00  0.00    -0.290 OA
ATOM     11  H4  <0> d          -2.177   3.658   0.043  0.00  0.00     0.084 H 
ATOM     12  H5  <0> d          -2.142   1.198   0.018  0.00  0.00     0.083 H 
ATOM     13  H6  <0> d           0.002  -0.004   0.002  0.00  0.00     0.085 H 
ATOM     14  H7  <0> d           4.013   2.725  -0.920  0.00  0.00     0.087 H 
ATOM     15  H8  <0> d           4.030   2.715   0.876  0.00  0.00     0.087 H 
ENDROOT
BRANCH   1  16
ATOM     16  C1  <0> d          -0.096   5.361   0.033  0.00  0.00    -0.049 C 
ATOM     17  H1  <0> d          -1.143   5.699   0.045  0.00  0.00     0.033 H 
ATOM     18  H2  <0> d           0.403   5.747  -0.868  0.00  0.00     0.033 H 
ATOM     19  H3  <0> d           0.421   5.737   0.928  0.00  0.00     0.033 H 
ENDBRANCH   1  16
TORSDOF 1
