REMARK  5 active torsions:
REMARK  status: ('A' for Active; 'I' for Inactive)
REMARK    1  A    between atoms: C1_1  and  C2_2 
REMARK    2  A    between atoms: C2_2  and  C3_4 
REMARK    3  A    between atoms: C2_2  and  O1_12 
REMARK    4  A    between atoms: C3_4  and  C4_5 
REMARK    5  A    between atoms: C4_5  and  C5_6 
ROOT
ATOM      1  C5  <0> d           0.110   1.160   5.001  0.00  0.00    -0.054 C 
ATOM      2  C6  <0> d          -0.082  -0.353   5.127  0.00  0.00    -0.062 C 
ATOM      3  C7  <0> d           0.658  -0.860   6.366  0.00  0.00    -0.065 C 
ATOM      4  C8  <0> d           0.099  -0.170   7.612  0.00  0.00    -0.065 C 
ATOM      5  C9  <0> d           0.290   1.343   7.487  0.00  0.00    -0.065 C 
ATOM      6  C10 <0> d          -0.450   1.850   6.247  0.00  0.00    -0.062 C 
ATOM      7  H9  <0> d           1.182   1.387   4.907  0.00  0.00     0.040 H 
ATOM      8  H10 <0> d          -1.154  -0.580   5.221  0.00  0.00     0.033 H 
ATOM      9  H11 <0> d           0.321  -0.849   4.231  0.00  0.00     0.033 H 
ATOM     10  H12 <0> d           0.521  -1.947   6.456  0.00  0.00     0.033 H 
ATOM     11  H13 <0> d           1.730  -0.632   6.272  0.00  0.00     0.033 H 
ATOM     12  H14 <0> d          -0.974  -0.397   7.706  0.00  0.00     0.033 H 
ATOM     13  H15 <0> d           0.630  -0.534   8.503  0.00  0.00     0.033 H 
ATOM     14  H16 <0> d          -0.112   1.839   8.382  0.00  0.00     0.033 H 
ATOM     15  H17 <0> d           1.362   1.570   7.392  0.00  0.00     0.033 H 
ATOM     16  H18 <0> d          -0.312   2.938   6.157  0.00  0.00     0.033 H 
ATOM     17  H19 <0> d          -1.522   1.623   6.341  0.00  0.00     0.033 H 
ENDROOT
BRANCH   1  18
ATOM     18  C4  <0> d          -0.630   1.667   3.762  0.00  0.00    -0.059 C 
ATOM     19  H7  <0> d          -0.568   2.764   3.721  0.00  0.00     0.033 H 
ATOM     20  H8  <0> d          -1.685   1.361   3.814  0.00  0.00     0.033 H 
BRANCH  18  21
ATOM     21  C3  <0> d           0.011   1.072   2.506  0.00  0.00    -0.041 C 
ATOM     22  H5  <0> d          -0.051  -0.025   2.547  0.00  0.00     0.036 H 
ATOM     23  H6  <0> d           1.067   1.378   2.454  0.00  0.00     0.036 H 
BRANCH  21  24
ATOM     24  C2  <0> d          -0.729   1.579   1.267  0.00  0.00     0.032 C 
ATOM     25  H1  <0> d          -0.813   2.676   1.274  0.00  0.00     0.082 H 
BRANCH  24  26
ATOM     26  C1  <0> d          -0.013   1.086   0.008  0.00  0.00    -0.052 C 
ATOM     27  H2  <0> d          -0.545   1.450  -0.883  0.00  0.00     0.030 H 
ATOM     28  H3  <0> d           0.002  -0.014   0.002  0.00  0.00     0.030 H 
ATOM     29  H4  <0> d           1.019   1.466   0.000  0.00  0.00     0.030 H 
ENDBRANCH  24  26
BRANCH  24  30
ATOM     30  O1  <0> d          -2.070   1.085   1.277  0.00  0.00    -0.396 OA
ATOM     31  H20 <0> d          -2.742   1.337   2.110  0.00  0.00     0.210 HD
ENDBRANCH  24  30
ENDBRANCH  21  24
ENDBRANCH  18  21
ENDBRANCH   1  18
TORSDOF 5
