REMARK  0 active torsions:
REMARK  status: ('A' for Active; 'I' for Inactive)
ROOT
ATOM      1  C1  <0> d          -0.017   1.367   0.010  0.00  0.00     0.034 A 
ATOM      2  C2  <0> d           1.269   1.774  -0.001  0.00  0.00     0.226 A 
ATOM      3  N1  <0> d           2.049   0.682  -0.014  0.00  0.00    -0.214 NA
ATOM      4  C3  <0> d           1.297  -0.386  -0.012  0.00  0.00     0.067 A 
ATOM      5  N2  <0> d           0.002  -0.004   0.002  0.00  0.00    -0.356 N 
ATOM      6  H1  <0> d          -0.771  -0.590   0.006  0.00  0.00     0.166 HD
ATOM      7  F1  <0> d           1.697   3.055   0.002  0.00  0.00    -0.183 F 
ATOM      8  H2  <0> d          -0.892   2.000   0.025  0.00  0.00     0.118 H 
ATOM      9  H3  <0> d           1.652  -1.405  -0.021  0.00  0.00     0.143 H 
ENDROOT
TORSDOF 0
