REMARK  3 active torsions:
REMARK  status: ('A' for Active; 'I' for Inactive)
REMARK    1  A    between atoms: C1_1  and  C2_2 
REMARK    2  A    between atoms: C2_2  and  O1_3 
REMARK    3  A    between atoms: O1_3  and  C3_4 
ROOT
ATOM      1  C3  <0> d          -0.017   1.397   0.010  0.00  0.00     0.089 A 
ATOM      2  C4  <0> d           1.178   2.101   0.002  0.00  0.00    -0.049 A 
ATOM      3  C5  <0> d           2.381   1.422  -0.013  0.00  0.00    -0.080 A 
ATOM      4  C6  <0> d           2.404   0.037  -0.021  0.00  0.00    -0.081 A 
ATOM      5  C7  <0> d           1.226  -0.678  -0.013  0.00  0.00    -0.060 A 
ATOM      6  C8  <0> d           0.002  -0.004   0.002  0.00  0.00     0.077 A 
ATOM      7  C9  <0> d          -1.226  -0.741   0.009  0.00  0.00     0.102 C 
ATOM      8  N1  <0> d          -2.200  -1.326   0.015  0.00  0.00    -0.191 NA
ATOM      9  H6  <0> d           1.168   3.181   0.008  0.00  0.00     0.087 H 
ATOM     10  H7  <0> d           3.309   1.975  -0.019  0.00  0.00     0.083 H 
ATOM     11  H8  <0> d           3.349  -0.484  -0.033  0.00  0.00     0.083 H 
ATOM     12  H9  <0> d           1.249  -1.758  -0.020  0.00  0.00     0.086 H 
ENDROOT
BRANCH   1  13
ATOM     13  O1  <0> d          -1.200   2.063   0.019  0.00  0.00    -0.350 OA
BRANCH  13  14
ATOM     14  C2  <0> d          -1.141   3.491   0.026  0.00  0.00     0.023 C 
ATOM     15  H4  <0> d          -0.608   3.828   0.916  0.00  0.00     0.074 H 
ATOM     16  H5  <0> d          -0.616   3.837  -0.864  0.00  0.00     0.074 H 
BRANCH  14  17
ATOM     17  C1  <0> d          -2.561   4.060   0.036  0.00  0.00    -0.056 C 
ATOM     18  H1  <0> d          -3.093   3.723  -0.853  0.00  0.00     0.030 H 
ATOM     19  H2  <0> d          -3.085   3.713   0.927  0.00  0.00     0.030 H 
ATOM     20  H3  <0> d          -2.515   5.149   0.042  0.00  0.00     0.030 H 
ENDBRANCH  14  17
ENDBRANCH  13  14
ENDBRANCH   1  13
TORSDOF 3
