REMARK  3 active torsions:
REMARK  status: ('A' for Active; 'I' for Inactive)
REMARK    1  A    between atoms: N1_3  and  C3_6 
REMARK    2  A    between atoms: C3_6  and  C4_7 
REMARK    3  A    between atoms: C4_7  and  C5_8 
ROOT
ATOM      1  C3  <0> d          -0.735   1.996   1.269  0.00  0.00     0.027 C 
ATOM      2  H3  <0> d          -1.757   1.619   1.277  0.00  0.00     0.068 H 
ATOM      3  H4  <0> d          -0.207   1.635   2.152  0.00  0.00     0.068 H 
ENDROOT
BRANCH   1   4
ATOM      4  N1  <0> d          -0.754   3.461   1.277  0.00  0.00    -0.261 N 
ATOM      5  C2  <0> d          -1.856   4.238   1.387  0.00  0.00     0.018 A 
ATOM      6  C1  <0> d          -1.420   5.519   1.350  0.00  0.00     0.042 A 
ATOM      7  H2  <0> d          -2.879   3.904   1.486  0.00  0.00     0.116 H 
ATOM      8  N3  <0> d          -0.089   5.463   1.221  0.00  0.00    -0.143 NA
ATOM      9  H1  <0> d          -2.026   6.410   1.413  0.00  0.00     0.119 H 
ATOM     10  N2  <0> d           0.274   4.230   1.186  0.00  0.00    -0.067 NA
ENDBRANCH   1   4
BRANCH   1  11
ATOM     11  C4  <0> d          -0.018   1.503   0.010  0.00  0.00     0.032 C 
ATOM     12  H5  <0> d           1.004   1.880   0.003  0.00  0.00     0.051 H 
ATOM     13  H6  <0> d          -0.545   1.864  -0.873  0.00  0.00     0.051 H 
BRANCH  11  14
ATOM     14  C5  <0> d           0.002  -0.004   0.002  0.00  0.00     0.174 C 
ATOM     15  O1  <0> d          -0.504  -0.620   0.910  0.00  0.00    -0.648 OA
ATOM     16  O2  <0> d           0.583  -0.662  -1.014  0.00  0.00    -0.648 OA
ENDBRANCH  11  14
ENDBRANCH   1  11
TORSDOF 3
