REMARK  2 active torsions:
REMARK  status: ('A' for Active; 'I' for Inactive)
REMARK    1  A    between atoms: C1_1  and  C2_2 
REMARK    2  A    between atoms: C4_4  and  N3_10 
ROOT
ATOM      1  C2  <0> d           0.002  -0.004   0.002  0.00  0.00     0.034 A 
ATOM      2  C3  <0> d           0.006  -0.678  -1.204  0.00  0.00    -0.034 A 
ATOM      3  C4  <0> d           0.025  -2.072  -1.207  0.00  0.00     0.030 A 
ATOM      4  C5  <0> d           0.040  -2.736   0.018  0.00  0.00    -0.019 A 
ATOM      5  C6  <0> d           0.035  -1.987   1.191  0.00  0.00     0.139 A 
ATOM      6  N1  <0> d           0.022  -0.659   1.145  0.00  0.00    -0.243 NA
ATOM      7  C7  <0> d           0.051  -2.653   2.458  0.00  0.00     0.119 C 
ATOM      8  N2  <0> d           0.063  -3.181   3.464  0.00  0.00    -0.190 NA
ATOM      9  H4  <0> d          -0.007  -0.131  -2.135  0.00  0.00     0.090 H 
ATOM     10  H5  <0> d           0.055  -3.816   0.057  0.00  0.00     0.091 H 
ENDROOT
BRANCH   3  11
ATOM     11  N3  <0> d           0.029  -2.783  -2.404  0.00  0.00    -0.399 N 
ATOM     12  H6  <0> d           0.018  -2.309  -3.250  0.00  0.00     0.156 HD
ATOM     13  H7  <0> d           0.042  -3.753  -2.392  0.00  0.00     0.156 HD
ENDBRANCH   3  11
BRANCH   1  14
ATOM     14  C1  <0> d          -0.018   1.503   0.010  0.00  0.00    -0.035 C 
ATOM     15  H1  <0> d           1.004   1.880   0.003  0.00  0.00     0.035 H 
ATOM     16  H2  <0> d          -0.545   1.864  -0.873  0.00  0.00     0.035 H 
ATOM     17  H3  <0> d          -0.529   1.854   0.907  0.00  0.00     0.035 H 
ENDBRANCH   1  14
TORSDOF 2
