REMARK  4 active torsions:
REMARK  status: ('A' for Active; 'I' for Inactive)
REMARK    1  A    between atoms: C1_1  and  C2_2 
REMARK    2  A    between atoms: C2_2  and  O1_3 
REMARK    3  A    between atoms: O1_3  and  C3_4 
REMARK    4  A    between atoms: C6_8  and  N2_10 
ROOT
ATOM      1  C3  <0> d           1.184   2.058   0.002  0.00  0.00     0.073 A 
ATOM      2  C4  <0> d           2.374   1.330  -0.013  0.00  0.00    -0.034 A 
ATOM      3  C5  <0> d           3.575   2.005  -0.022  0.00  0.00     0.007 A 
ATOM      4  N1  <0> d           3.612   3.325  -0.015  0.00  0.00    -0.244 NA
ATOM      5  C6  <0> d           2.505   4.054  -0.001  0.00  0.00     0.123 A 
ATOM      6  C7  <0> d           1.257   3.445   0.003  0.00  0.00    -0.007 A 
ATOM      7  H6  <0> d           2.354   0.251  -0.018  0.00  0.00     0.089 H 
ATOM      8  H7  <0> d           4.500   1.447  -0.034  0.00  0.00     0.115 H 
ATOM      9  H8  <0> d           0.356   4.041   0.010  0.00  0.00     0.093 H 
ENDROOT
BRANCH   1  10
ATOM     10  O1  <0> d          -0.017   1.425   0.010  0.00  0.00    -0.351 OA
BRANCH  10  11
ATOM     11  C2  <0> d           0.002  -0.004   0.002  0.00  0.00     0.023 C 
ATOM     12  H4  <0> d           0.512  -0.356  -0.895  0.00  0.00     0.074 H 
ATOM     13  H5  <0> d           0.529  -0.365   0.885  0.00  0.00     0.074 H 
BRANCH  11  14
ATOM     14  C1  <0> d          -1.433  -0.534   0.013  0.00  0.00    -0.056 C 
ATOM     15  H1  <0> d          -1.944  -0.182   0.910  0.00  0.00     0.030 H 
ATOM     16  H2  <0> d          -1.960  -0.173  -0.870  0.00  0.00     0.030 H 
ATOM     17  H3  <0> d          -1.419  -1.623   0.007  0.00  0.00     0.030 H 
ENDBRANCH  11  14
ENDBRANCH  10  11
ENDBRANCH   1  10
BRANCH   5  18
ATOM     18  N2  <0> d           2.595   5.441   0.006  0.00  0.00    -0.384 N 
ATOM     19  H9  <0> d           3.464   5.871  -0.000  0.00  0.00     0.157 HD
ATOM     20  H10 <0> d           1.787   5.979   0.017  0.00  0.00     0.157 HD
ENDBRANCH   5  18
TORSDOF 4
