REMARK  8 active torsions:
REMARK  status: ('A' for Active; 'I' for Inactive)
REMARK    1  A    between atoms: C1_1  and  C2_2 
REMARK    2  A    between atoms: C2_2  and  C3_3 
REMARK    3  A    between atoms: C3_3  and  C4_4 
REMARK    4  A    between atoms: C4_4  and  N1_5 
REMARK       I    between atoms: N1_5  and  C5_6 
REMARK    5  A    between atoms: C5_6  and  C6_8 
REMARK    6  A    between atoms: C6_8  and  C7_9 
REMARK    7  A    between atoms: C7_9  and  C8_10 
REMARK    8  A    between atoms: C7_9  and  C9_11 
ROOT
ATOM      1  N1  <0> d          -0.011   0.966   0.007  0.00  0.00    -0.361 N 
ATOM      2  C5  <0> d           1.147   1.655  -0.000  0.00  0.00     0.217 C 
ATOM      3  O1  <0> d           1.130   2.868   0.007  0.00  0.00    -0.274 OA
ATOM      4  H10 <0> d           0.002  -0.004   0.002  0.00  0.00     0.162 HD
ENDROOT
BRANCH   1   5
ATOM      5  C4  <0> d          -1.290   1.681   0.017  0.00  0.00    -0.005 C 
ATOM      6  H8  <0> d          -1.352   2.302   0.911  0.00  0.00     0.064 H 
ATOM      7  H9  <0> d          -1.360   2.312  -0.869  0.00  0.00     0.064 H 
BRANCH   5   8
ATOM      8  C3  <0> d          -2.439   0.671   0.017  0.00  0.00    -0.051 C 
ATOM      9  H6  <0> d          -2.377   0.050  -0.876  0.00  0.00     0.035 H 
ATOM     10  H7  <0> d          -2.369   0.040   0.903  0.00  0.00     0.035 H 
BRANCH   8  11
ATOM     11  C2  <0> d          -3.774   1.418   0.028  0.00  0.00    -0.067 C 
ATOM     12  H4  <0> d          -3.836   2.039   0.921  0.00  0.00     0.032 H 
ATOM     13  H5  <0> d          -3.845   2.049  -0.859  0.00  0.00     0.032 H 
BRANCH  11  14
ATOM     14  C1  <0> d          -4.923   0.408   0.028  0.00  0.00    -0.076 C 
ATOM     15  H1  <0> d          -4.862  -0.213  -0.866  0.00  0.00     0.027 H 
ATOM     16  H2  <0> d          -4.853  -0.223   0.914  0.00  0.00     0.027 H 
ATOM     17  H3  <0> d          -5.875   0.940   0.035  0.00  0.00     0.027 H 
ENDBRANCH  11  14
ENDBRANCH   8  11
ENDBRANCH   5   8
ENDBRANCH   1   5
BRANCH   2  18
ATOM     18  C6  <0> d           2.462   0.920  -0.017  0.00  0.00     0.012 C 
ATOM     19  H11 <0> d           2.537   0.289   0.869  0.00  0.00     0.047 H 
ATOM     20  H12 <0> d           2.520   0.299  -0.910  0.00  0.00     0.047 H 
BRANCH  18  21
ATOM     21  C7  <0> d           3.611   1.930  -0.022  0.00  0.00    -0.053 C 
ATOM     22  H13 <0> d           3.503   2.608   0.825  0.00  0.00     0.039 H 
BRANCH  21  23
ATOM     23  C8  <0> d           4.944   1.186   0.087  0.00  0.00    -0.073 C 
ATOM     24  H14 <0> d           5.052   0.508  -0.760  0.00  0.00     0.028 H 
ATOM     25  H15 <0> d           5.763   1.906   0.083  0.00  0.00     0.028 H 
ATOM     26  H16 <0> d           4.967   0.615   1.015  0.00  0.00     0.028 H 
ENDBRANCH  21  23
BRANCH  21  27
ATOM     27  C9  <0> d           3.579   2.731  -1.325  0.00  0.00    -0.073 C 
ATOM     28  H17 <0> d           2.630   3.261  -1.403  0.00  0.00     0.028 H 
ATOM     29  H18 <0> d           4.398   3.451  -1.329  0.00  0.00     0.028 H 
ATOM     30  H19 <0> d           3.688   2.053  -2.171  0.00  0.00     0.028 H 
ENDBRANCH  21  27
ENDBRANCH  18  21
ENDBRANCH   2  18
TORSDOF 8
