REMARK  6 active torsions:
REMARK  status: ('A' for Active; 'I' for Inactive)
REMARK    1  A    between atoms: C1_1  and  C2_2 
REMARK    2  A    between atoms: C2_2  and  C3_3 
REMARK    3  A    between atoms: C2_2  and  C4_4 
REMARK    4  A    between atoms: C4_4  and  O1_5 
REMARK    5  A    between atoms: O1_5  and  C5_6 
REMARK    6  A    between atoms: C5_6  and  C6_8 
ROOT
ATOM      1  C2  <0> d          -0.013   1.086   0.008  0.00  0.00    -0.040 C 
ATOM      2  H4  <0> d           0.002  -0.004   0.002  0.00  0.00     0.042 H 
ENDROOT
BRANCH   1   3
ATOM      3  C1  <0> d          -0.753   1.593  -1.232  0.00  0.00    -0.071 C 
ATOM      4  H1  <0> d          -0.767   2.683  -1.226  0.00  0.00     0.028 H 
ATOM      5  H2  <0> d          -0.242   1.241  -2.128  0.00  0.00     0.028 H 
ATOM      6  H3  <0> d          -1.775   1.215  -1.224  0.00  0.00     0.028 H 
ENDBRANCH   1   3
BRANCH   1   7
ATOM      7  C3  <0> d          -0.729   1.579   1.267  0.00  0.00    -0.071 C 
ATOM      8  H5  <0> d          -0.744   2.669   1.273  0.00  0.00     0.028 H 
ATOM      9  H6  <0> d          -1.751   1.202   1.275  0.00  0.00     0.028 H 
ATOM     10  H7  <0> d          -0.202   1.218   2.150  0.00  0.00     0.028 H 
ENDBRANCH   1   7
BRANCH   1  11
ATOM     11  C4  <0> d           1.423   1.615  -0.003  0.00  0.00     0.031 C 
ATOM     12  H8  <0> d           1.408   2.702  -0.086  0.00  0.00     0.075 H 
ATOM     13  H9  <0> d           1.923   1.329   0.922  0.00  0.00     0.075 H 
BRANCH  11  14
ATOM     14  O1  <0> d           2.138   1.052  -1.134  0.00  0.00    -0.321 OA
BRANCH  14  15
ATOM     15  C5  <0> d           3.420   1.419  -1.288  0.00  0.00     0.254 C 
ATOM     16  O2  <0> d           3.928   2.185  -0.504  0.00  0.00    -0.266 OA
BRANCH  15  17
ATOM     17  C6  <0> d           4.226   0.875  -2.440  0.00  0.00     0.004 C 
ATOM     18  H10 <0> d           3.755   1.162  -3.380  0.00  0.00     0.041 H 
ATOM     19  H11 <0> d           5.236   1.282  -2.401  0.00  0.00     0.041 H 
ATOM     20  H12 <0> d           4.269  -0.212  -2.372  0.00  0.00     0.041 H 
ENDBRANCH  15  17
ENDBRANCH  14  15
ENDBRANCH  11  14
ENDBRANCH   1  11
TORSDOF 6
