REMARK  2 active torsions:
REMARK  status: ('A' for Active; 'I' for Inactive)
REMARK    1  A    between atoms: N1_6  and  C5_7 
REMARK    2  A    between atoms: C5_7  and  C6_8 
REMARK       I    between atoms: C6_8  and  N2_10 
ROOT
ATOM      1  C1  <0> d           1.490   1.730  -0.100  0.00  0.00     0.133 C 
ATOM      2  C2  <0> d           0.164   0.975  -0.217  0.00  0.00     0.044 C 
ATOM      3  O1  <0> d           0.428  -0.422  -0.367  0.00  0.00    -0.388 OA
ATOM      4  C3  <0> d           1.176  -0.986   0.714  0.00  0.00     0.044 C 
ATOM      5  C4  <0> d           2.513  -0.251   0.840  0.00  0.00     0.133 C 
ATOM      6  N1  <0> d           2.260   1.185   1.027  0.00  0.00     0.101 N 
ATOM      7  H1  <0> d           1.292   2.799   0.073  0.00  0.00     0.083 H 
ATOM      8  H2  <0> d           2.066   1.610  -1.030  0.00  0.00     0.083 H 
ATOM      9  H3  <0> d          -0.434   1.142   0.691  0.00  0.00     0.077 H 
ATOM     10  H4  <0> d          -0.391   1.342  -1.093  0.00  0.00     0.077 H 
ATOM     11  H5  <0> d           0.607  -0.879   1.649  0.00  0.00     0.077 H 
ATOM     12  H6  <0> d           1.359  -2.052   0.516  0.00  0.00     0.077 H 
ATOM     13  H7  <0> d           3.067  -0.643   1.705  0.00  0.00     0.083 H 
ATOM     14  H8  <0> d           3.104  -0.405  -0.075  0.00  0.00     0.083 H 
ENDROOT
BRANCH   6  15
ATOM     15  C5  <0> d           3.519   1.922   1.210  0.00  0.00     0.185 C 
ATOM     16  H9  <0> d           4.199   1.697   0.376  0.00  0.00     0.094 H 
ATOM     17  H10 <0> d           3.311   3.002   1.233  0.00  0.00     0.094 H 
BRANCH  15  18
ATOM     18  C6  <0> d           4.160   1.505   2.508  0.00  0.00     0.243 C 
ATOM     19  O2  <0> d           3.571   0.763   3.265  0.00  0.00    -0.272 OA
ATOM     20  N2  <0> d           5.389   1.957   2.828  0.00  0.00    -0.369 N 
ATOM     21  H11 <0> d           5.858   1.653   3.776  0.00  0.00     0.159 HD
ATOM     22  H12 <0> d           5.923   2.631   2.142  0.00  0.00     0.159 HD
ENDBRANCH  15  18
ENDBRANCH   6  15
TORSDOF 2
