REMARK  2 active torsions:
REMARK  status: ('A' for Active; 'I' for Inactive)
REMARK    1  A    between atoms: C4_4  and  C5_6 
REMARK    2  A    between atoms: C5_6  and  O1_12 
ROOT
ATOM      1  C5  <0> d          -1.924   3.847  -1.252  0.00  0.00     0.065 C 
ATOM      2  C6  <0> d          -1.414   2.994  -2.414  0.00  0.00    -0.036 C 
ATOM      3  C7  <0> d          -1.423   3.824  -3.699  0.00  0.00    -0.062 C 
ATOM      4  C8  <0> d          -0.515   5.043  -3.525  0.00  0.00    -0.065 C 
ATOM      5  C9  <0> d          -1.025   5.897  -2.362  0.00  0.00    -0.062 C 
ATOM      6  C10 <0> d          -1.016   5.066  -1.077  0.00  0.00    -0.036 C 
ATOM      7  H6  <0> d          -0.398   2.662  -2.203  0.00  0.00     0.037 H 
ATOM      8  H7  <0> d          -2.061   2.125  -2.538  0.00  0.00     0.037 H 
ATOM      9  H8  <0> d          -2.440   4.156  -3.910  0.00  0.00     0.033 H 
ATOM     10  H9  <0> d          -1.060   3.216  -4.527  0.00  0.00     0.033 H 
ATOM     11  H10 <0> d          -0.521   5.635  -4.440  0.00  0.00     0.033 H 
ATOM     12  H11 <0> d           0.502   4.711  -3.313  0.00  0.00     0.033 H 
ATOM     13  H12 <0> d          -2.042   6.228  -2.574  0.00  0.00     0.033 H 
ATOM     14  H13 <0> d          -0.378   6.765  -2.238  0.00  0.00     0.033 H 
ATOM     15  H14 <0> d          -1.379   5.675  -0.249  0.00  0.00     0.037 H 
ATOM     16  H15 <0> d           0.001   4.735  -0.866  0.00  0.00     0.037 H 
ENDROOT
BRANCH   1  17
ATOM     17  C4  <0> d          -1.915   3.017   0.033  0.00  0.00     0.000 A 
ATOM     18  C2  <0> d          -1.156   1.715   0.017  0.00  0.00    -0.081 A 
ATOM     19  C1  <0> d          -0.013   1.076   0.008  0.00  0.00    -0.119 C 
ATOM     20  C3  <0> d          -2.662   1.681   0.024  0.00  0.00    -0.035 A 
ATOM     21  H2  <0> d           0.002  -0.004   0.002  0.00  0.00     0.067 H 
ATOM     22  H3  <0> d           0.915   1.629   0.002  0.00  0.00     0.067 H 
ATOM     23  H4  <0> d          -3.165   1.387  -0.897  0.00  0.00     0.040 H 
ATOM     24  H5  <0> d          -3.155   1.378   0.948  0.00  0.00     0.040 H 
ATOM     25  H1  <0> d          -1.920   3.586   0.963  0.00  0.00     0.052 H 
ENDBRANCH   1  17
BRANCH   1  26
ATOM     26  O1  <0> d          -3.257   4.282  -1.529  0.00  0.00    -0.389 OA
ATOM     27  H16 <0> d          -3.338   4.815  -2.331  0.00  0.00     0.210 HD
ENDBRANCH   1  26
TORSDOF 2
