REMARK  7 active torsions:
REMARK  status: ('A' for Active; 'I' for Inactive)
REMARK    1  A    between atoms: C1_1  and  C2_2 
REMARK    2  A    between atoms: C2_2  and  O1_3 
REMARK    3  A    between atoms: C2_2  and  O2_5 
REMARK    4  A    between atoms: C2_2  and  O3_7 
REMARK    5  A    between atoms: O1_3  and  C3_4 
REMARK    6  A    between atoms: O2_5  and  C4_6 
REMARK    7  A    between atoms: O3_7  and  C5_8 
ROOT
ATOM      1  C2  <0> d           0.018   1.094   2.314  0.00  0.00     0.277 C 
ENDROOT
BRANCH   1   2
ATOM      2  C1  <0> d          -0.850   1.548   3.490  0.00  0.00    -0.000 C 
ATOM      3  H1  <0> d          -1.845   1.113   3.396  0.00  0.00     0.038 H 
ATOM      4  H2  <0> d          -0.396   1.218   4.425  0.00  0.00     0.038 H 
ATOM      5  H3  <0> d          -0.926   2.635   3.487  0.00  0.00     0.038 H 
ENDBRANCH   1   2
BRANCH   1   6
ATOM      6  O1  <0> d          -0.576   1.526   1.089  0.00  0.00    -0.338 OA
BRANCH   6   7
ATOM      7  C3  <0> d          -0.619   2.946   0.933  0.00  0.00     0.010 C 
ATOM      8  H4  <0> d           0.385   3.355   1.048  0.00  0.00     0.066 H 
ATOM      9  H5  <0> d          -1.275   3.375   1.690  0.00  0.00     0.066 H 
ATOM     10  H6  <0> d          -1.000   3.191  -0.059  0.00  0.00     0.066 H 
ENDBRANCH   6   7
ENDBRANCH   1   6
BRANCH   1  11
ATOM     11  O2  <0> d           0.118  -0.332   2.318  0.00  0.00    -0.338 OA
BRANCH  11  12
ATOM     12  C4  <0> d          -1.119  -1.002   2.073  0.00  0.00     0.010 C 
ATOM     13  H7  <0> d          -0.976  -2.078   2.174  0.00  0.00     0.066 H 
ATOM     14  H8  <0> d          -1.864  -0.665   2.793  0.00  0.00     0.066 H 
ATOM     15  H9  <0> d          -1.462  -0.775   1.063  0.00  0.00     0.066 H 
ENDBRANCH  11  12
ENDBRANCH   1  11
BRANCH   1  16
ATOM     16  O3  <0> d           1.323   1.664   2.438  0.00  0.00    -0.338 OA
BRANCH  16  17
ATOM     17  C5  <0> d           2.250   1.212   1.449  0.00  0.00     0.010 C 
ATOM     18  H10 <0> d           2.298   0.123   1.467  0.00  0.00     0.066 H 
ATOM     19  H11 <0> d           1.923   1.545   0.464  0.00  0.00     0.066 H 
ATOM     20  H12 <0> d           3.237   1.622   1.662  0.00  0.00     0.066 H 
ENDBRANCH  16  17
ENDBRANCH   1  16
TORSDOF 7
