REMARK  1 active torsions:
REMARK  status: ('A' for Active; 'I' for Inactive)
REMARK    1  A    between atoms: C3_3  and  O1_10 
ROOT
ATOM      1  C1  <0> d          -0.017   1.382   0.010  0.00  0.00    -0.043 A 
ATOM      2  C2  <0> d           1.166   2.097   0.002  0.00  0.00    -0.047 A 
ATOM      3  C3  <0> d           2.381   1.431  -0.013  0.00  0.00     0.086 A 
ATOM      4  C4  <0> d           2.406   0.029  -0.021  0.00  0.00     0.080 A 
ATOM      5  C5  <0> d           1.204  -0.683  -0.013  0.00  0.00    -0.023 A 
ATOM      6  C6  <0> d           0.002  -0.004   0.002  0.00  0.00     0.118 A 
ATOM      7  F1  <0> d          -1.160  -0.693   0.010  0.00  0.00    -0.206 F 
ATOM      8  C7  <0> d           3.656  -0.668  -0.037  0.00  0.00     0.102 C 
ATOM      9  N1  <0> d           4.648  -1.222  -0.050  0.00  0.00    -0.191 NA
ATOM     10  H1  <0> d          -0.961   1.907   0.026  0.00  0.00     0.088 H 
ATOM     11  H2  <0> d           1.143   3.177   0.008  0.00  0.00     0.087 H 
ATOM     12  H3  <0> d           1.215  -1.763  -0.019  0.00  0.00     0.090 H 
ENDROOT
BRANCH   3  13
ATOM     13  O1  <0> d           3.542   2.133  -0.021  0.00  0.00    -0.359 OA
ATOM     14  H4  <0> d           3.888   2.332   0.860  0.00  0.00     0.217 HD
ENDBRANCH   3  13
TORSDOF 1
