REMARK  4 active torsions:
REMARK  status: ('A' for Active; 'I' for Inactive)
REMARK    1  A    between atoms: C1_1  and  C2_2 
REMARK    2  A    between atoms: C3_3  and  C6_8 
REMARK    3  A    between atoms: C4_5  and  C5_7 
REMARK    4  A    between atoms: C6_8  and  O2_9 
ROOT
ATOM      1  C2  <0> d           1.291  -0.398  -0.012  0.00  0.00     0.078 A 
ATOM      2  C3  <0> d           2.044   0.715  -0.014  0.00  0.00     0.089 A 
ATOM      3  N1  <0> d           1.211   1.771   0.000  0.00  0.00    -0.229 NA
ATOM      4  C4  <0> d          -0.016   1.335   0.009  0.00  0.00     0.142 A 
ATOM      5  O1  <0> d           0.002  -0.004   0.002  0.00  0.00    -0.299 OA
ENDROOT
BRANCH   2   6
ATOM      6  C6  <0> d           3.550   0.770  -0.027  0.00  0.00     0.059 C 
ATOM      7  H7  <0> d           3.885   1.669   0.488  0.00  0.00     0.083 H 
ATOM      8  H8  <0> d           3.950  -0.109   0.478  0.00  0.00     0.083 H 
BRANCH   6   9
ATOM      9  O2  <0> d           4.013   0.794  -1.379  0.00  0.00    -0.395 OA
ATOM     10  H9  <0> d           4.976   0.829  -1.464  0.00  0.00     0.209 HD
ENDBRANCH   6   9
ENDBRANCH   2   6
BRANCH   1  11
ATOM     11  C1  <0> d           1.793  -1.818  -0.025  0.00  0.00    -0.029 C 
ATOM     12  H1  <0> d           0.945  -2.503  -0.021  0.00  0.00     0.036 H 
ATOM     13  H2  <0> d           2.390  -1.985  -0.922  0.00  0.00     0.036 H 
ATOM     14  H3  <0> d           2.407  -1.995   0.858  0.00  0.00     0.036 H 
ENDBRANCH   1  11
BRANCH   4  15
ATOM     15  C5  <0> d          -1.253   2.196   0.020  0.00  0.00    -0.015 C 
ATOM     16  H4  <0> d          -2.138   1.560   0.022  0.00  0.00     0.038 H 
ATOM     17  H5  <0> d          -1.253   2.821   0.913  0.00  0.00     0.038 H 
ATOM     18  H6  <0> d          -1.262   2.830  -0.867  0.00  0.00     0.038 H 
ENDBRANCH   4  15
TORSDOF 4
