REMARK  5 active torsions:
REMARK  status: ('A' for Active; 'I' for Inactive)
REMARK    1  A    between atoms: C1_1  and  N1_2 
REMARK    2  A    between atoms: N1_2  and  C2_3 
REMARK    3  A    between atoms: N1_2  and  C3_4 
REMARK    4  A    between atoms: C4_5  and  O1_9 
REMARK    5  A    between atoms: O1_9  and  C7_10 
ROOT
ATOM      1  C3  <0> d           1.741   2.059  -0.004  0.00  0.00     0.085 A 
ATOM      2  C4  <0> d           2.228   0.785  -0.015  0.00  0.00     0.097 A 
ATOM      3  C5  <0> d           1.331  -0.270  -0.012  0.00  0.00    -0.042 A 
ATOM      4  C6  <0> d           0.002  -0.004   0.002  0.00  0.00    -0.041 A 
ATOM      5  S1  <0> d          -0.022   1.781   0.012  0.00  0.00    -0.087 SA
ATOM      6  H7  <0> d           1.686  -1.290  -0.021  0.00  0.00     0.088 H 
ATOM      7  H8  <0> d          -0.829  -0.694   0.006  0.00  0.00     0.095 H 
ENDROOT
BRANCH   1   8
ATOM      8  N1  <0> d           2.443   3.272  -0.003  0.00  0.00    -0.284 NA
BRANCH   8   9
ATOM      9  C1  <0> d           1.520   4.414   0.013  0.00  0.00    -0.029 C 
ATOM     10  H1  <0> d           0.901   4.369   0.909  0.00  0.00     0.048 H 
ATOM     11  H2  <0> d           2.091   5.343   0.013  0.00  0.00     0.048 H 
ATOM     12  H3  <0> d           0.883   4.379  -0.871  0.00  0.00     0.048 H 
ENDBRANCH   8   9
BRANCH   8  13
ATOM     13  C2  <0> d           3.381   3.337   1.125  0.00  0.00    -0.029 C 
ATOM     14  H4  <0> d           4.097   2.518   1.050  0.00  0.00     0.048 H 
ATOM     15  H5  <0> d           3.913   4.288   1.102  0.00  0.00     0.048 H 
ATOM     16  H6  <0> d           2.829   3.252   2.062  0.00  0.00     0.048 H 
ENDBRANCH   8  13
ENDBRANCH   1   8
BRANCH   2  17
ATOM     17  O1  <0> d           3.572   0.555  -0.029  0.00  0.00    -0.354 OA
BRANCH  17  18
ATOM     18  C7  <0> d           3.997  -0.809  -0.039  0.00  0.00     0.010 C 
ATOM     19  H9  <0> d           3.622  -1.313   0.852  0.00  0.00     0.066 H 
ATOM     20  H10 <0> d           3.606  -1.305  -0.928  0.00  0.00     0.066 H 
ATOM     21  H11 <0> d           5.086  -0.851  -0.049  0.00  0.00     0.066 H 
ENDBRANCH  17  18
ENDBRANCH   2  17
TORSDOF 5
