REMARK  2 active torsions:
REMARK  status: ('A' for Active; 'I' for Inactive)
REMARK    1  A    between atoms: C1_1  and  C2_2 
REMARK    2  A    between atoms: C2_2  and  C5_5 
ROOT
ATOM      1  C2  <0> d           0.002  -0.004   0.002  0.00  0.00     0.025 A 
ATOM      2  C3  <0> d          -0.825  -0.728   1.066  0.00  0.00    -0.050 A 
ATOM      3  C4  <0> d           0.701  -0.708   1.167  0.00  0.00    -0.050 A 
ATOM      4  H4  <0> d          -1.384  -0.114   1.773  0.00  0.00     0.034 H 
ATOM      5  H5  <0> d          -1.298  -1.668   0.783  0.00  0.00     0.034 H 
ATOM      6  H6  <0> d           1.232  -1.634   0.950  0.00  0.00     0.034 H 
ATOM      7  H7  <0> d           1.147  -0.080   1.939  0.00  0.00     0.034 H 
ENDROOT
BRANCH   1   8
ATOM      8  C1  <0> d          -0.019   1.526   0.010  0.00  0.00    -0.062 C 
ATOM      9  H1  <0> d           1.004   1.903   0.003  0.00  0.00     0.029 H 
ATOM     10  H2  <0> d          -0.546   1.887  -0.873  0.00  0.00     0.029 H 
ATOM     11  H3  <0> d          -0.529   1.877   0.907  0.00  0.00     0.029 H 
ENDBRANCH   1   8
BRANCH   1  12
ATOM     12  C5  <0> d           0.101  -0.645  -1.358  0.00  0.00     0.176 A 
ATOM     13  O1  <0> d          -0.926  -1.073  -2.112  0.00  0.00    -0.285 OA
ATOM     14  C6  <0> d          -0.388  -1.571  -3.238  0.00  0.00     0.126 A 
ATOM     15  N2  <0> d           0.905  -1.445  -3.141  0.00  0.00    -0.136 NA
ATOM     16  H8  <0> d          -0.928  -2.000  -4.069  0.00  0.00     0.158 H 
ATOM     17  N1  <0> d           1.197  -0.891  -2.017  0.00  0.00    -0.127 NA
ENDBRANCH   1  12
TORSDOF 2
