REMARK  4 active torsions:
REMARK  status: ('A' for Active; 'I' for Inactive)
REMARK    1  A    between atoms: C1_1  and  C2_2 
REMARK    2  A    between atoms: C2_2  and  C6_7 
REMARK    3  A    between atoms: C3_3  and  C4_4 
REMARK    4  A    between atoms: C4_4  and  C5_5 
ROOT
ATOM      1  C2  <0> d           3.122   4.282  -0.987  0.00  0.00    -0.091 C 
ATOM      2  C3  <0> d           2.654   3.707   0.092  0.00  0.00    -0.092 C 
ATOM      3  H4  <0> d           3.326   3.426   0.889  0.00  0.00     0.077 H 
ENDROOT
BRANCH   1   4
ATOM      4  C1  <0> d           2.174   4.782  -2.047  0.00  0.00    -0.055 C 
ATOM      5  H1  <0> d           1.456   5.468  -1.598  0.00  0.00     0.033 H 
ATOM      6  H2  <0> d           2.737   5.302  -2.822  0.00  0.00     0.033 H 
ATOM      7  H3  <0> d           1.644   3.938  -2.487  0.00  0.00     0.033 H 
ENDBRANCH   1   4
BRANCH   1   8
ATOM      8  C6  <0> d           4.609   4.445  -1.170  0.00  0.00    -0.055 C 
ATOM      9  H7  <0> d           5.129   4.027  -0.307  0.00  0.00     0.033 H 
ATOM     10  H8  <0> d           4.924   3.921  -2.072  0.00  0.00     0.033 H 
ATOM     11  H9  <0> d           4.851   5.504  -1.261  0.00  0.00     0.033 H 
ENDBRANCH   1   8
BRANCH   2  12
ATOM     12  C4  <0> d           1.177   3.437   0.222  0.00  0.00     0.031 C 
ATOM     13  H5  <0> d           0.675   3.704  -0.709  0.00  0.00     0.055 H 
ATOM     14  H6  <0> d           0.768   4.033   1.038  0.00  0.00     0.055 H 
BRANCH  12  15
ATOM     15  C5  <0> d           0.956   1.974   0.509  0.00  0.00     0.176 C 
ATOM     16  O1  <0> d           1.902   1.227   0.599  0.00  0.00    -0.648 OA
ATOM     17  O2  <0> d          -0.290   1.501   0.664  0.00  0.00    -0.648 OA
ENDBRANCH  12  15
ENDBRANCH   2  12
TORSDOF 4
