REMARK  0 active torsions:
REMARK  status: ('A' for Active; 'I' for Inactive)
ROOT
ATOM      1  C1  <0> d          -0.016   1.344   0.009  0.00  0.00    -0.064 A 
ATOM      2  C2  <0> d           1.316   1.795  -0.001  0.00  0.00    -0.037 A 
ATOM      3  C3  <0> d           2.121   0.694  -0.015  0.00  0.00     0.142 A 
ATOM      4  N1  <0> d           3.473   0.547  -0.028  0.00  0.00    -0.188 NA
ATOM      5  C4  <0> d           4.007  -0.649  -0.040  0.00  0.00     0.283 A 
ATOM      6  O1  <0> d           5.351  -0.783  -0.053  0.00  0.00    -0.149 OA
ATOM      7  N2  <0> d           3.212  -1.769  -0.038  0.00  0.00    -0.270 N 
ATOM      8  H1  <0> d           3.618  -2.650  -0.046  0.00  0.00     0.174 HD
ATOM      9  C5  <0> d           1.869  -1.648  -0.024  0.00  0.00     0.335 A 
ATOM     10  O2  <0> d           1.167  -2.640  -0.022  0.00  0.00    -0.246 OA
ATOM     11  N3  <0> d           1.309  -0.421  -0.013  0.00  0.00    -0.258 N 
ATOM     12  C6  <0> d           0.002  -0.004   0.002  0.00  0.00    -0.009 A 
ATOM     13  H2  <0> d          -0.898   1.968   0.025  0.00  0.00     0.085 H 
ATOM     14  H3  <0> d           1.643   2.824   0.001  0.00  0.00     0.089 H 
ATOM     15  H4  <0> d          -0.866  -0.647   0.007  0.00  0.00     0.112 H 
ENDROOT
TORSDOF 0
