REMARK  2 active torsions:
REMARK  status: ('A' for Active; 'I' for Inactive)
REMARK    1  A    between atoms: C1_1  and  C2_2 
REMARK    2  A    between atoms: C4_4  and  C7_8 
REMARK       I    between atoms: C7_8  and  N2_10 
ROOT
ATOM      1  C2  <0> d          -0.718   1.572   1.248  0.00  0.00    -0.043 A 
ATOM      2  C3  <0> d          -0.005   1.808   2.410  0.00  0.00    -0.059 A 
ATOM      3  C4  <0> d          -0.704   2.259   3.537  0.00  0.00     0.049 A 
ATOM      4  C5  <0> d          -2.083   2.451   3.442  0.00  0.00     0.017 A 
ATOM      5  N1  <0> d          -2.716   2.213   2.313  0.00  0.00    -0.272 NA
ATOM      6  C6  <0> d          -2.083   1.792   1.234  0.00  0.00     0.007 A 
ATOM      7  H4  <0> d           1.062   1.648   2.448  0.00  0.00     0.086 H 
ATOM      8  H5  <0> d          -2.635   2.800   4.303  0.00  0.00     0.116 H 
ATOM      9  H6  <0> d          -2.641   1.612   0.327  0.00  0.00     0.115 H 
ENDROOT
BRANCH   3  10
ATOM     10  C7  <0> d           0.007   2.528   4.804  0.00  0.00     0.250 C 
ATOM     11  O1  <0> d           1.209   2.358   4.875  0.00  0.00    -0.268 OA
ATOM     12  N2  <0> d          -0.676   2.962   5.882  0.00  0.00    -0.366 N 
ATOM     13  H7  <0> d          -1.635   3.098   5.825  0.00  0.00     0.159 HD
ATOM     14  H8  <0> d          -0.210   3.139   6.714  0.00  0.00     0.159 HD
ENDBRANCH   3  10
BRANCH   1  15
ATOM     15  C1  <0> d          -0.013   1.086   0.008  0.00  0.00    -0.050 C 
ATOM     16  H1  <0> d           0.002  -0.004   0.002  0.00  0.00     0.033 H 
ATOM     17  H2  <0> d           1.010   1.463   0.000  0.00  0.00     0.033 H 
ATOM     18  H3  <0> d          -0.540   1.447  -0.875  0.00  0.00     0.033 H 
ENDBRANCH   1  15
TORSDOF 2
