REMARK  2 active torsions:
REMARK  status: ('A' for Active; 'I' for Inactive)
REMARK    1  A    between atoms: C1_1  and  C2_2 
REMARK    2  A    between atoms: C4_5  and  C7_9 
ROOT
ATOM      1  C2  <0> d           0.002  -0.004   0.002  0.00  0.00     0.051 C 
ATOM      2  H1  <0> d           0.513  -0.354  -0.895  0.00  0.00     0.089 H 
ATOM      3  C3  <0> d          -1.408  -0.521   0.006  0.00  0.00    -0.074 C 
ATOM      4  C4  <0> d          -1.798  -1.503   0.764  0.00  0.00    -0.083 C 
ATOM      5  C5  <0> d          -0.869  -2.207   1.715  0.00  0.00    -0.025 C 
ATOM      6  C6  <0> d           0.582  -1.890   1.344  0.00  0.00     0.024 C 
ATOM      7  O1  <0> d           0.699  -0.475   1.157  0.00  0.00    -0.382 OA
ATOM      8  H5  <0> d          -2.131  -0.057  -0.649  0.00  0.00     0.081 H 
ATOM      9  H6  <0> d          -1.067  -1.869   2.732  0.00  0.00     0.042 H 
ATOM     10  H7  <0> d          -1.033  -3.283   1.652  0.00  0.00     0.042 H 
ATOM     11  H8  <0> d           1.245  -2.211   2.149  0.00  0.00     0.074 H 
ATOM     12  H9  <0> d           0.847  -2.407   0.422  0.00  0.00     0.074 H 
ENDROOT
BRANCH   1  13
ATOM     13  C1  <0> d          -0.019   1.526   0.010  0.00  0.00    -0.049 C 
ATOM     14  H2  <0> d           1.004   1.903   0.003  0.00  0.00     0.031 H 
ATOM     15  H3  <0> d          -0.546   1.887  -0.873  0.00  0.00     0.031 H 
ATOM     16  H4  <0> d          -0.529   1.877   0.907  0.00  0.00     0.031 H 
ENDBRANCH   1  13
BRANCH   4  17
ATOM     17  C7  <0> d          -3.233  -1.954   0.686  0.00  0.00    -0.055 C 
ATOM     18  H10 <0> d          -3.766  -1.345  -0.045  0.00  0.00     0.033 H 
ATOM     19  H11 <0> d          -3.270  -3.000   0.383  0.00  0.00     0.033 H 
ATOM     20  H12 <0> d          -3.703  -1.841   1.663  0.00  0.00     0.033 H 
ENDBRANCH   4  17
TORSDOF 2
