REMARK  0 active torsions:
REMARK  status: ('A' for Active; 'I' for Inactive)
ROOT
ATOM      1  C1  <0> d          -0.019   1.532   0.011  0.00  0.00    -0.045 C 
ATOM      2  C2  <0> d           0.002  -0.004   0.002  0.00  0.00    -0.019 C 
ATOM      3  C3  <0> d           0.993  -0.447   1.053  0.00  0.00     0.085 A 
ATOM      4  C4  <0> d           1.938   0.419   1.632  0.00  0.00     0.110 A 
ATOM      5  C5  <0> d           2.657  -0.294   2.533  0.00  0.00     0.223 A 
ATOM      6  N1  <0> d           2.179  -1.569   2.518  0.00  0.00    -0.253 N 
ATOM      7  H1  <0> d           2.621  -2.330   3.178  0.00  0.00     0.191 HD
ATOM      8  N2  <0> d           1.138  -1.629   1.579  0.00  0.00    -0.175 NA
ATOM      9  O1  <0> d           3.669   0.177   3.309  0.00  0.00    -0.168 OA
ATOM     10  N3  <0> d           2.066   1.786   1.293  0.00  0.00    -0.385 N 
ATOM     11  C6  <0> d           1.420   2.055  -0.001  0.00  0.00    -0.007 C 
ATOM     12  H2  <0> d          -0.532   1.889   0.916  0.00  0.00     0.035 H 
ATOM     13  H3  <0> d          -0.549   1.899  -0.881  0.00  0.00     0.035 H 
ATOM     14  H4  <0> d          -1.003  -0.386   0.234  0.00  0.00     0.042 H 
ATOM     15  H5  <0> d           0.309  -0.361  -0.992  0.00  0.00     0.042 H 
ATOM     16  H6  <0> d           2.556   2.602   1.844  0.00  0.00     0.159 HD
ATOM     17  H7  <0> d           1.986   1.554  -0.799  0.00  0.00     0.064 H 
ATOM     18  H8  <0> d           1.414   3.140  -0.181  0.00  0.00     0.064 H 
ENDROOT
TORSDOF 0
