REMARK  0 active torsions:
REMARK  status: ('A' for Active; 'I' for Inactive)
ROOT
ATOM      1  C1  <0> d           1.296   2.058   0.001  0.00  0.00    -0.054 A 
ATOM      2  C2  <0> d          -0.021   1.729   0.012  0.00  0.00    -0.042 A 
ATOM      3  S1  <0> d           0.002  -0.004   0.002  0.00  0.00    -0.089 SA
ATOM      4  C3  <0> d           1.769  -0.249  -0.016  0.00  0.00     0.106 A 
ATOM      5  C4  <0> d           2.238   1.057  -0.014  0.00  0.00     0.062 A 
ATOM      6 Cl1  <0> d           3.937   1.411  -0.027  0.00  0.00    -0.082 Cl
ATOM      7  C5  <0> d           2.511  -1.474  -0.029  0.00  0.00     0.108 C 
ATOM      8  N1  <0> d           3.099  -2.446  -0.040  0.00  0.00    -0.191 NA
ATOM      9  H1  <0> d           1.600   3.095   0.003  0.00  0.00     0.086 H 
ATOM     10  H2  <0> d          -0.877   2.388   0.019  0.00  0.00     0.095 H 
ENDROOT
TORSDOF 0
