REMARK  3 active torsions:
REMARK  status: ('A' for Active; 'I' for Inactive)
REMARK    1  A    between atoms: C1_1  and  C2_2 
REMARK    2  A    between atoms: C3_3  and  C4_4 
REMARK    3  A    between atoms: C4_4  and  O1_9 
ROOT
ATOM      1  C4  <0> d           0.038  -2.650  -0.013  0.00  0.00     0.121 C 
ATOM      2  C5  <0> d           0.695  -3.162  -1.311  0.00  0.00    -0.026 C 
ATOM      3  C6  <0> d          -0.122  -4.427  -1.676  0.00  0.00    -0.061 C 
ATOM      4  C7  <0> d          -1.568  -4.022  -1.294  0.00  0.00    -0.061 C 
ATOM      5  C8  <0> d          -1.400  -3.196  -0.002  0.00  0.00    -0.026 C 
ATOM      6  H4  <0> d           0.614  -2.415  -2.100  0.00  0.00     0.038 H 
ATOM      7  H5  <0> d           1.739  -3.420  -1.135  0.00  0.00     0.038 H 
ATOM      8  H6  <0> d          -0.050  -4.639  -2.743  0.00  0.00     0.033 H 
ATOM      9  H7  <0> d           0.208  -5.283  -1.088  0.00  0.00     0.033 H 
ATOM     10  H8  <0> d          -2.014  -3.413  -2.080  0.00  0.00     0.033 H 
ATOM     11  H9  <0> d          -2.174  -4.908  -1.105  0.00  0.00     0.033 H 
ATOM     12  H10 <0> d          -1.551  -3.833   0.870  0.00  0.00     0.038 H 
ATOM     13  H11 <0> d          -2.113  -2.372   0.009  0.00  0.00     0.038 H 
ENDROOT
BRANCH   1  14
ATOM     14  C3  <0> d           0.018  -1.178  -0.004  0.00  0.00    -0.069 C 
ATOM     15  C2  <0> d           0.002  -0.004   0.002  0.00  0.00    -0.108 C 
BRANCH  15  16
ATOM     16  C1  <0> d          -0.018   1.468   0.010  0.00  0.00    -0.021 C 
ATOM     17  H1  <0> d           1.005   1.845   0.002  0.00  0.00     0.044 H 
ATOM     18  H2  <0> d          -0.545   1.829  -0.873  0.00  0.00     0.044 H 
ATOM     19  H3  <0> d          -0.528   1.819   0.907  0.00  0.00     0.044 H 
ENDBRANCH  15  16
ENDBRANCH   1  14
BRANCH   1  20
ATOM     20  O1  <0> d           0.755  -3.135   1.124  0.00  0.00    -0.378 OA
ATOM     21  H12 <0> d           1.673  -2.834   1.169  0.00  0.00     0.211 HD
ENDBRANCH   1  20
TORSDOF 3
