REMARK  4 active torsions:
REMARK  status: ('A' for Active; 'I' for Inactive)
REMARK    1  A    between atoms: C1_1  and  O1_2 
REMARK    2  A    between atoms: O1_2  and  C2_3 
REMARK    3  A    between atoms: C2_3  and  C3_5 
REMARK    4  A    between atoms: C3_5  and  N1_6 
ROOT
ATOM      1  C3  <0> d          -1.329   1.940   0.019  0.00  0.00     0.080 C 
ATOM      2  H4  <0> d          -1.392   2.566   0.921  0.00  0.00     0.080 H 
ATOM      3  H5  <0> d          -1.401   2.576  -0.875  0.00  0.00     0.080 H 
ENDROOT
BRANCH   1   4
ATOM      4  C2  <0> d          -0.014   1.204   0.009  0.00  0.00     0.276 C 
ATOM      5  O2  <0> d           0.002  -0.004   0.002  0.00  0.00    -0.263 OA
BRANCH   4   6
ATOM      6  O1  <0> d           1.139   1.891   0.001  0.00  0.00    -0.325 OA
BRANCH   6   7
ATOM      7  C1  <0> d           2.367   1.117  -0.015  0.00  0.00     0.013 C 
ATOM      8  H1  <0> d           3.230   1.799  -0.019  0.00  0.00     0.067 H 
ATOM      9  H2  <0> d           2.392   0.487  -0.916  0.00  0.00     0.067 H 
ATOM     10  H3  <0> d           2.409   0.478   0.880  0.00  0.00     0.067 H 
ENDBRANCH   6   7
ENDBRANCH   4   6
ENDBRANCH   1   4
BRANCH   1  11
ATOM     11  N1  <0> d          -2.430   0.973   0.019  0.00  0.00    -0.341 N 
ATOM     12  C6  <0> d          -3.027   0.438   1.106  0.00  0.00     0.066 A 
ATOM     13  N2  <0> d          -3.963  -0.380   0.709  0.00  0.00    -0.255 NA
ATOM     14  H8  <0> d          -2.772   0.652   2.133  0.00  0.00     0.143 H 
ATOM     15  C5  <0> d          -3.996  -0.398  -0.632  0.00  0.00     0.018 A 
ATOM     16  C4  <0> d          -3.049   0.447  -1.083  0.00  0.00    -0.002 A 
ATOM     17  H7  <0> d          -4.668  -0.982  -1.242  0.00  0.00     0.117 H 
ATOM     18  H6  <0> d          -2.820   0.665  -2.115  0.00  0.00     0.113 H 
ENDBRANCH   1  11
TORSDOF 4
