REMARK  4 active torsions:
REMARK  status: ('A' for Active; 'I' for Inactive)
REMARK    1  A    between atoms: C1_1  and  C2_2 
REMARK    2  A    between atoms: C3_5  and  C5_8 
REMARK    3  A    between atoms: N3_6  and  C4_7 
REMARK    4  A    between atoms: C5_8  and  O1_9 
ROOT
ATOM      1  C2  <0> d           0.002  -0.004   0.002  0.00  0.00     0.126 A 
ATOM      2  N1  <0> d           1.253  -0.375  -0.012  0.00  0.00    -0.135 NA
ATOM      3  N2  <0> d           2.013   0.662  -0.014  0.00  0.00    -0.133 NA
ATOM      4  C3  <0> d           1.281   1.743  -0.001  0.00  0.00     0.153 A 
ATOM      5  N3  <0> d          -0.016   1.351   0.009  0.00  0.00    -0.323 N 
ENDROOT
BRANCH   4   6
ATOM      6  C5  <0> d           1.784   3.163   0.002  0.00  0.00     0.073 C 
ATOM      7  H7  <0> d           2.748   3.211  -0.525  0.00  0.00     0.086 H 
ATOM      8  H8  <0> d           1.056   3.812  -0.506  0.00  0.00     0.086 H 
BRANCH   6   9
ATOM      9  O1  <0> d           1.956   3.605   1.350  0.00  0.00    -0.393 OA
ATOM     10  H9  <0> d           2.320   4.623   1.553  0.00  0.00     0.209 HD
ENDBRANCH   6   9
ENDBRANCH   4   6
BRANCH   5  11
ATOM     11  C4  <0> d          -1.198   2.216   0.020  0.00  0.00    -0.011 C 
ATOM     12  H4  <0> d          -0.882   3.269   0.024  0.00  0.00     0.057 H 
ATOM     13  H5  <0> d          -1.796   2.009   0.920  0.00  0.00     0.057 H 
ATOM     14  H6  <0> d          -1.805   2.019  -0.876  0.00  0.00     0.057 H 
ENDBRANCH   5  11
BRANCH   1  15
ATOM     15  C1  <0> d          -1.200  -0.914   0.008  0.00  0.00    -0.019 C 
ATOM     16  H1  <0> d          -0.866  -1.962  -0.001  0.00  0.00     0.037 H 
ATOM     17  H2  <0> d          -1.813  -0.717  -0.884  0.00  0.00     0.037 H 
ATOM     18  H3  <0> d          -1.797  -0.726   0.912  0.00  0.00     0.037 H 
ENDBRANCH   1  15
TORSDOF 4
