REMARK  5 active torsions:
REMARK  status: ('A' for Active; 'I' for Inactive)
REMARK    1  A    between atoms: C1_1  and  C2_2 
REMARK    2  A    between atoms: C2_2  and  O1_3 
REMARK    3  A    between atoms: O1_3  and  C3_4 
REMARK    4  A    between atoms: C3_4  and  C4_6 
REMARK    5  A    between atoms: C6_8  and  C7_12 
ROOT
ATOM      1  C4  <0> d           1.451  -2.346  -2.521  0.00  0.00     0.127 A 
ATOM      2  C5  <0> d           1.634  -3.683  -2.831  0.00  0.00    -0.025 A 
ATOM      3  C6  <0> d           2.323  -3.689  -4.046  0.00  0.00     0.053 A 
ATOM      4  N1  <0> d           2.519  -2.446  -4.404  0.00  0.00    -0.179 NA
ATOM      5  N2  <0> d           2.020  -1.636  -3.541  0.00  0.00    -0.272 N 
ATOM      6  H1  <0> d           2.044  -0.668  -3.603  0.00  0.00     0.189 HD
ATOM      7  H7  <0> d           1.313  -4.538  -2.256  0.00  0.00     0.090 H 
ENDROOT
BRANCH   1   8
ATOM      8  C3  <0> d           0.776  -1.799  -1.335  0.00  0.00     0.311 C 
ATOM      9  O2  <0> d           0.312  -2.551  -0.500  0.00  0.00    -0.258 OA
BRANCH   8  10
ATOM     10  O1  <0> d           0.671  -0.465  -1.174  0.00  0.00    -0.317 OA
BRANCH  10  11
ATOM     11  C2  <0> d           0.002  -0.004   0.002  0.00  0.00     0.026 C 
ATOM     12  H5  <0> d           0.529  -0.365   0.885  0.00  0.00     0.074 H 
ATOM     13  H6  <0> d          -1.020  -0.381   0.010  0.00  0.00     0.074 H 
BRANCH  11  14
ATOM     14  C1  <0> d          -0.019   1.526   0.010  0.00  0.00    -0.056 C 
ATOM     15  H2  <0> d           1.004   1.903   0.003  0.00  0.00     0.030 H 
ATOM     16  H3  <0> d          -0.546   1.887  -0.873  0.00  0.00     0.030 H 
ATOM     17  H4  <0> d          -0.529   1.877   0.907  0.00  0.00     0.030 H 
ENDBRANCH  11  14
ENDBRANCH  10  11
ENDBRANCH   8  10
ENDBRANCH   1   8
BRANCH   3  18
ATOM     18  C7  <0> d           2.763  -4.912  -4.810  0.00  0.00    -0.034 C 
ATOM     19  H8  <0> d           1.975  -5.212  -5.501  0.00  0.00     0.035 H 
ATOM     20  H9  <0> d           3.669  -4.684  -5.370  0.00  0.00     0.035 H 
ATOM     21  H10 <0> d           2.962  -5.725  -4.111  0.00  0.00     0.035 H 
ENDBRANCH   3  18
TORSDOF 5
