REMARK  4 active torsions:
REMARK  status: ('A' for Active; 'I' for Inactive)
REMARK    1  A    between atoms: C1_1  and  O1_2 
REMARK    2  A    between atoms: O1_2  and  C2_3 
REMARK    3  A    between atoms: C2_3  and  C3_5 
REMARK    4  A    between atoms: C3_5  and  N1_10 
ROOT
ATOM      1  C3  <0> d          -1.244  -2.135   0.003  0.00  0.00     0.241 C 
ATOM      2  C4  <0> d          -1.224  -2.658  -1.449  0.00  0.00    -0.022 C 
ATOM      3  C5  <0> d          -2.179  -3.877  -1.427  0.00  0.00    -0.062 C 
ATOM      4  C6  <0> d          -3.305  -3.412  -0.472  0.00  0.00    -0.062 C 
ATOM      5  C7  <0> d          -2.568  -2.615   0.624  0.00  0.00    -0.022 C 
ATOM      6  H4  <0> d          -1.594  -1.895  -2.134  0.00  0.00     0.037 H 
ATOM      7  H5  <0> d          -0.216  -2.967  -1.729  0.00  0.00     0.037 H 
ATOM      8  H6  <0> d          -2.574  -4.076  -2.423  0.00  0.00     0.033 H 
ATOM      9  H7  <0> d          -1.673  -4.757  -1.029  0.00  0.00     0.033 H 
ATOM     10  H8  <0> d          -4.012  -2.771  -1.000  0.00  0.00     0.033 H 
ATOM     11  H9  <0> d          -3.818  -4.271  -0.039  0.00  0.00     0.033 H 
ATOM     12  H10 <0> d          -2.367  -3.257   1.481  0.00  0.00     0.037 H 
ATOM     13  H11 <0> d          -3.168  -1.758   0.930  0.00  0.00     0.037 H 
ENDROOT
BRANCH   1  14
ATOM     14  C2  <0> d          -1.185  -0.630   0.010  0.00  0.00     0.297 C 
ATOM     15  O2  <0> d          -2.208   0.015   0.023  0.00  0.00    -0.262 OA
BRANCH  14  16
ATOM     16  O1  <0> d           0.002  -0.004   0.002  0.00  0.00    -0.324 OA
BRANCH  16  17
ATOM     17  C1  <0> d          -0.017   1.425   0.010  0.00  0.00     0.013 C 
ATOM     18  H1  <0> d           1.005   1.802   0.002  0.00  0.00     0.067 H 
ATOM     19  H2  <0> d          -0.544   1.786  -0.873  0.00  0.00     0.067 H 
ATOM     20  H3  <0> d          -0.527   1.776   0.907  0.00  0.00     0.067 H 
ENDBRANCH  16  17
ENDBRANCH  14  16
ENDBRANCH   1  14
BRANCH   1  21
ATOM     21  N1  <0> d          -0.107  -2.687   0.753  0.00  0.00     0.098 N 
ATOM     22  H12 <0> d           0.769  -2.390   0.350  0.00  0.00     0.314 HD
ATOM     23  H13 <0> d          -0.162  -2.434   1.728  0.00  0.00     0.314 HD
ENDBRANCH   1  21
TORSDOF 4
