REMARK  3 active torsions:
REMARK  status: ('A' for Active; 'I' for Inactive)
REMARK    1  A    between atoms: C1_1  and  C2_2 
REMARK    2  A    between atoms: C7_8  and  O1_10 
REMARK    3  A    between atoms: O1_10  and  C8_11 
ROOT
ATOM      1  C8  <0> d          -0.622   3.807  -3.515  0.00  0.00     0.098 C 
ATOM      2  C9  <0> d          -1.431   4.292  -4.645  0.00  0.00     0.085 C 
ATOM      3  N1  <0> d          -2.056   4.666  -5.517  0.00  0.00    -0.195 NA
ATOM      4  H14 <0> d           0.146   4.555  -3.267  0.00  0.00     0.097 H 
ATOM      5  H15 <0> d          -0.135   2.860  -3.792  0.00  0.00     0.097 H 
ENDROOT
BRANCH   1   6
ATOM      6  O1  <0> d          -1.465   3.596  -2.381  0.00  0.00    -0.372 OA
BRANCH   6   7
ATOM      7  C7  <0> d          -0.773   3.123  -1.223  0.00  0.00     0.043 C 
ATOM      8  C2  <0> d          -1.490   3.616   0.036  0.00  0.00    -0.032 C 
ATOM      9  H1  <0> d          -2.522   3.235   0.043  0.00  0.00     0.043 H 
ATOM     10  C3  <0> d          -0.750   3.109   1.275  0.00  0.00    -0.060 C 
ATOM     11  C4  <0> d          -0.729   1.579   1.267  0.00  0.00    -0.065 C 
ATOM     12  H6  <0> d           0.282   3.490   1.267  0.00  0.00     0.033 H 
ATOM     13  H7  <0> d          -1.264   3.464   2.180  0.00  0.00     0.033 H 
ATOM     14  C5  <0> d          -0.013   1.086   0.008  0.00  0.00    -0.063 C 
ATOM     15  H8  <0> d          -0.197   1.215   2.158  0.00  0.00     0.033 H 
ATOM     16  H9  <0> d          -1.761   1.198   1.275  0.00  0.00     0.033 H 
ATOM     17  C6  <0> d          -0.753   1.593  -1.232  0.00  0.00    -0.040 C 
ATOM     18  H10 <0> d           1.019   1.466   0.000  0.00  0.00     0.033 H 
ATOM     19  H11 <0> d           0.002  -0.014   0.002  0.00  0.00     0.033 H 
ATOM     20  H12 <0> d          -0.238   1.238  -2.136  0.00  0.00     0.036 H 
ATOM     21  H13 <0> d          -1.785   1.212  -1.224  0.00  0.00     0.036 H 
ATOM     22  H2  <0> d           0.244   3.535  -1.291  0.00  0.00     0.083 H 
BRANCH   8  23
ATOM     23  C1  <0> d          -1.510   5.146   0.044  0.00  0.00    -0.071 C 
ATOM     24  H3  <0> d          -2.025   5.500   0.949  0.00  0.00     0.028 H 
ATOM     25  H4  <0> d          -2.042   5.510  -0.847  0.00  0.00     0.028 H 
ATOM     26  H5  <0> d          -0.478   5.526   0.036  0.00  0.00     0.028 H 
ENDBRANCH   8  23
ENDBRANCH   6   7
ENDBRANCH   1   6
TORSDOF 3
