REMARK  3 active torsions:
REMARK  status: ('A' for Active; 'I' for Inactive)
REMARK    1  A    between atoms: C1_1  and  O1_2 
REMARK    2  A    between atoms: O1_2  and  C2_3 
REMARK    3  A    between atoms: C2_3  and  C3_4 
REMARK       I    between atoms: C3_4  and  N1_6 
ROOT
ATOM      1  C3  <0> d          -0.037   2.199   2.193  0.00  0.00     0.243 C 
ATOM      2  O2  <0> d           1.157   2.383   2.090  0.00  0.00    -0.271 OA
ATOM      3  N1  <0> d          -0.709   1.564   1.212  0.00  0.00    -0.347 N 
ATOM      4  C4  <0> d          -0.013   1.086   0.008  0.00  0.00     0.022 C 
ATOM      5  C5  <0> d          -0.762   1.597  -1.227  0.00  0.00     0.126 C 
ATOM      6  N2  <0> d          -2.175   1.208  -1.135  0.00  0.00     0.086 N 
ATOM      7  C6  <0> d          -2.826   1.832   0.024  0.00  0.00     0.126 C 
ATOM      8  C7  <0> d          -2.162   1.331   1.310  0.00  0.00     0.022 C 
ATOM      9  H6  <0> d           1.019   1.468   0.005  0.00  0.00     0.067 H 
ATOM     10  H7  <0> d           0.004  -0.014   0.006  0.00  0.00     0.067 H 
ATOM     11  H8  <0> d          -0.685   2.694  -1.275  0.00  0.00     0.082 H 
ATOM     12  H9  <0> d          -0.317   1.159  -2.133  0.00  0.00     0.082 H 
ATOM     13  H10 <0> d          -2.703   1.525  -2.047  0.00  0.00     0.316 HD
ATOM     14  H11 <0> d          -2.721   2.925  -0.042  0.00  0.00     0.082 H 
ATOM     15  H12 <0> d          -3.893   1.566   0.033  0.00  0.00     0.082 H 
ATOM     16  H13 <0> d          -2.353   0.255   1.435  0.00  0.00     0.067 H 
ATOM     17  H14 <0> d          -2.563   1.877   2.177  0.00  0.00     0.067 H 
ENDROOT
BRANCH   1  18
ATOM     18  C2  <0> d          -0.770   2.680   3.419  0.00  0.00     0.092 C 
ATOM     19  H4  <0> d          -1.236   1.824   3.927  0.00  0.00     0.088 H 
ATOM     20  H5  <0> d          -1.549   3.398   3.122  0.00  0.00     0.088 H 
BRANCH  18  21
ATOM     21  O1  <0> d           0.152   3.317   4.306  0.00  0.00    -0.387 OA
BRANCH  21  22
ATOM     22  C1  <0> d          -0.444   3.813   5.506  0.00  0.00     0.005 C 
ATOM     23  H1  <0> d           0.328   4.286   6.131  0.00  0.00     0.066 H 
ATOM     24  H2  <0> d          -0.904   2.980   6.058  0.00  0.00     0.066 H 
ATOM     25  H3  <0> d          -1.216   4.555   5.253  0.00  0.00     0.066 H 
ENDBRANCH  21  22
ENDBRANCH  18  21
ENDBRANCH   1  18
TORSDOF 3
