REMARK  4 active torsions:
REMARK  status: ('A' for Active; 'I' for Inactive)
REMARK    1  A    between atoms: C1_1  and  C2_2 
REMARK    2  A    between atoms: C2_2  and  C3_3 
REMARK    3  A    between atoms: C4_4  and  C7_11 
REMARK    4  A    between atoms: C5_5  and  C6_9 
ROOT
ATOM      1  C3  <0> d          -3.458   2.390   0.032  0.00  0.00     0.036 A 
ATOM      2  C4  <0> d          -2.593   1.350   0.022  0.00  0.00    -0.001 A 
ATOM      3  C5  <0> d          -1.302   1.931   0.019  0.00  0.00     0.161 A 
ATOM      4  N1  <0> d          -1.470   3.239   0.032  0.00  0.00    -0.167 NA
ATOM      5  N2  <0> d          -2.723   3.523   0.035  0.00  0.00    -0.281 N 
ATOM      6  H1  <0> d          -3.099   4.449   0.038  0.00  0.00     0.189 HD
ENDROOT
BRANCH   1   7
ATOM      7  C2  <0> d          -4.963   2.301   0.039  0.00  0.00    -0.028 C 
ATOM      8  H5  <0> d          -5.383   3.212  -0.388  0.00  0.00     0.041 H 
ATOM      9  H6  <0> d          -5.279   1.443  -0.554  0.00  0.00     0.041 H 
BRANCH   7  10
ATOM     10  C1  <0> d          -5.457   2.138   1.477  0.00  0.00    -0.071 C 
ATOM     11  H2  <0> d          -5.038   1.227   1.904  0.00  0.00     0.028 H 
ATOM     12  H3  <0> d          -5.141   2.996   2.070  0.00  0.00     0.028 H 
ATOM     13  H4  <0> d          -6.546   2.073   1.482  0.00  0.00     0.028 H 
ENDBRANCH   7  10
ENDBRANCH   1   7
BRANCH   2  14
ATOM     14  C7  <0> d          -2.932  -0.119   0.016  0.00  0.00    -0.047 C 
ATOM     15  H7  <0> d          -3.008  -0.478   1.042  0.00  0.00     0.033 H 
ATOM     16  H8  <0> d          -3.883  -0.270  -0.494  0.00  0.00     0.033 H 
ATOM     17  H9  <0> d          -2.149  -0.670  -0.505  0.00  0.00     0.033 H 
ENDBRANCH   2  14
BRANCH   3  18
ATOM     18  C6  <0> d          -0.014   1.211   0.009  0.00  0.00     0.231 C 
ATOM     19  O1  <0> d           0.002  -0.004   0.002  0.00  0.00    -0.643 OA
ATOM     20  O2  <0> d           1.143   1.900   0.001  0.00  0.00    -0.643 OA
ENDBRANCH   3  18
TORSDOF 4
