REMARK  4 active torsions:
REMARK  status: ('A' for Active; 'I' for Inactive)
REMARK    1  A    between atoms: C1_1  and  C2_2 
REMARK    2  A    between atoms: C5_6  and  C8_12 
REMARK    3  A    between atoms: C6_8  and  O1_11 
REMARK    4  A    between atoms: C8_12  and  C10_14 
ROOT
ATOM      1  C2  <0> d           3.453   1.755   1.228  0.00  0.00    -0.055 C 
ATOM      2  H1  <0> d           4.006   1.436   2.111  0.00  0.00     0.039 H 
ATOM      3  C3  <0> d           3.311   3.279   1.237  0.00  0.00    -0.061 C 
ATOM      4  C4  <0> d           2.534   3.726  -0.002  0.00  0.00    -0.056 C 
ATOM      5  C5  <0> d           1.145   3.085   0.008  0.00  0.00    -0.008 C 
ATOM      6  H2  <0> d           0.608   3.395   0.904  0.00  0.00     0.050 H 
ATOM      7  C6  <0> d           1.286   1.562  -0.002  0.00  0.00     0.043 C 
ATOM      8  H3  <0> d           1.823   1.252  -0.899  0.00  0.00     0.084 H 
ATOM      9  C7  <0> d           2.064   1.114   1.238  0.00  0.00    -0.037 C 
ATOM     10  H7  <0> d           2.775   3.588   2.134  0.00  0.00     0.033 H 
ATOM     11  H8  <0> d           4.301   3.736   1.230  0.00  0.00     0.033 H 
ATOM     12  H9  <0> d           2.433   4.812   0.005  0.00  0.00     0.034 H 
ATOM     13  H10 <0> d           3.071   3.417  -0.899  0.00  0.00     0.034 H 
ATOM     14  H11 <0> d           1.527   1.423   2.135  0.00  0.00     0.037 H 
ATOM     15  H12 <0> d           2.164   0.029   1.231  0.00  0.00     0.037 H 
ENDROOT
BRANCH   5  16
ATOM     16  C8  <0> d           0.379   3.526  -1.213  0.00  0.00    -0.086 C 
ATOM     17  C9  <0> d          -0.750   4.177  -1.079  0.00  0.00    -0.119 C 
ATOM     18  H14 <0> d          -1.298   4.493  -1.954  0.00  0.00     0.067 H 
ATOM     19  H15 <0> d          -1.132   4.397  -0.093  0.00  0.00     0.067 H 
BRANCH  16  20
ATOM     20  C10 <0> d           0.913   3.219  -2.589  0.00  0.00    -0.055 C 
ATOM     21  H16 <0> d           1.003   2.139  -2.710  0.00  0.00     0.033 H 
ATOM     22  H17 <0> d           0.228   3.613  -3.340  0.00  0.00     0.033 H 
ATOM     23  H18 <0> d           1.892   3.682  -2.711  0.00  0.00     0.033 H 
ENDBRANCH  16  20
ENDBRANCH   5  16
BRANCH   7  24
ATOM     24  O1  <0> d          -0.011   0.963   0.007  0.00  0.00    -0.395 OA
ATOM     25  H13 <0> d           0.002  -0.004   0.002  0.00  0.00     0.210 HD
ENDBRANCH   7  24
BRANCH   1  26
ATOM     26  C1  <0> d           4.206   1.321  -0.031  0.00  0.00    -0.073 C 
ATOM     27  H4  <0> d           3.652   1.640  -0.914  0.00  0.00     0.028 H 
ATOM     28  H5  <0> d           5.196   1.778  -0.038  0.00  0.00     0.028 H 
ATOM     29  H6  <0> d           4.307   0.236  -0.038  0.00  0.00     0.028 H 
ENDBRANCH   1  26
TORSDOF 4
