REMARK  4 active torsions:
REMARK  status: ('A' for Active; 'I' for Inactive)
REMARK    1  A    between atoms: C1_1  and  C2_2 
REMARK    2  A    between atoms: C6_7  and  C9_12 
REMARK    3  A    between atoms: C7_9  and  C8_10 
REMARK    4  A    between atoms: C8_10  and  O1_11 
ROOT
ATOM      1  C2  <0> d          -0.019   1.526   0.010  0.00  0.00    -0.052 C 
ATOM      2  H1  <0> d          -0.529   1.877   0.907  0.00  0.00     0.040 H 
ATOM      3  C3  <0> d           1.417   2.055  -0.000  0.00  0.00    -0.062 C 
ATOM      4  C4  <0> d           1.396   3.585   0.008  0.00  0.00    -0.064 C 
ATOM      5  C5  <0> d           0.656   4.092  -1.232  0.00  0.00    -0.062 C 
ATOM      6  C6  <0> d          -0.779   3.562  -1.221  0.00  0.00    -0.052 C 
ATOM      7  H2  <0> d          -1.307   3.924  -2.104  0.00  0.00     0.040 H 
ATOM      8  C7  <0> d          -0.759   2.033  -1.229  0.00  0.00    -0.027 C 
ATOM      9  H6  <0> d           1.944   1.694   0.883  0.00  0.00     0.033 H 
ATOM     10  H7  <0> d           1.927   1.704  -0.897  0.00  0.00     0.033 H 
ATOM     11  H8  <0> d           0.886   3.937   0.905  0.00  0.00     0.033 H 
ATOM     12  H9  <0> d           2.419   3.962   0.000  0.00  0.00     0.033 H 
ATOM     13  H10 <0> d           0.641   5.182  -1.226  0.00  0.00     0.033 H 
ATOM     14  H11 <0> d           1.166   3.740  -2.128  0.00  0.00     0.033 H 
ATOM     15  H12 <0> d          -0.248   1.681  -2.126  0.00  0.00     0.044 H 
ENDROOT
BRANCH   8  16
ATOM     16  C8  <0> d          -2.194   1.503  -1.218  0.00  0.00     0.021 C 
ATOM     17  H13 <0> d          -2.180   0.416  -1.135  0.00  0.00     0.074 H 
ATOM     18  H14 <0> d          -2.731   1.926  -0.369  0.00  0.00     0.074 H 
BRANCH  16  19
ATOM     19  O1  <0> d          -2.850   1.879  -2.431  0.00  0.00    -0.400 OA
ATOM     20  H15 <0> d          -3.766   1.576  -2.493  0.00  0.00     0.209 HD
ENDBRANCH  16  19
ENDBRANCH   8  16
BRANCH   1  21
ATOM     21  C1  <0> d           0.002  -0.004   0.002  0.00  0.00    -0.072 C 
ATOM     22  H3  <0> d           0.529  -0.365   0.885  0.00  0.00     0.028 H 
ATOM     23  H4  <0> d          -1.020  -0.381   0.010  0.00  0.00     0.028 H 
ATOM     24  H5  <0> d           0.512  -0.356  -0.895  0.00  0.00     0.028 H 
ENDBRANCH   1  21
BRANCH   6  25
ATOM     25  C9  <0> d          -1.496   4.056   0.038  0.00  0.00    -0.072 C 
ATOM     26  H16 <0> d          -1.510   5.146   0.044  0.00  0.00     0.028 H 
ATOM     27  H17 <0> d          -2.518   3.679   0.046  0.00  0.00     0.028 H 
ATOM     28  H18 <0> d          -0.968   3.695   0.921  0.00  0.00     0.028 H 
ENDBRANCH   6  25
TORSDOF 4
