REMARK  5 active torsions:
REMARK  status: ('A' for Active; 'I' for Inactive)
REMARK    1  A    between atoms: C1_1  and  C2_2 
REMARK    2  A    between atoms: C3_3  and  C7_10 
REMARK    3  A    between atoms: C4_4  and  C6_9 
REMARK    4  A    between atoms: C5_7  and  O1_8 
REMARK    5  A    between atoms: C7_10  and  C8_12 
ROOT
ATOM      1  C2  <0> d          -0.136  -0.031   0.178  0.00  0.00     0.005 A 
ATOM      2  C3  <0> d           0.129  -0.702  -1.103  0.00  0.00     0.042 A 
ATOM      3  C4  <0> d           0.204  -2.051  -0.816  0.00  0.00     0.022 A 
ATOM      4  N1  <0> d           0.007  -2.213   0.508  0.00  0.00    -0.340 N 
ATOM      5  H1  <0> d           0.010  -3.067   0.968  0.00  0.00     0.168 HD
ATOM      6  C5  <0> d          -0.193  -1.004   1.111  0.00  0.00     0.147 A 
ENDROOT
BRANCH   2   7
ATOM      7  C7  <0> d           0.282  -0.069  -2.414  0.00  0.00     0.158 C 
ATOM      8  O2  <0> d          -0.696   0.156  -3.097  0.00  0.00    -0.293 OA
BRANCH   7   9
ATOM      9  C8  <0> d           1.653   0.302  -2.917  0.00  0.00    -0.017 C 
ATOM     10  H9  <0> d           2.406  -0.056  -2.215  0.00  0.00     0.038 H 
ATOM     11  H10 <0> d           1.819  -0.155  -3.892  0.00  0.00     0.038 H 
ATOM     12  H11 <0> d           1.726   1.386  -3.006  0.00  0.00     0.038 H 
ENDBRANCH   7   9
ENDBRANCH   2   7
BRANCH   1  13
ATOM     13  C1  <0> d          -0.304   1.449   0.405  0.00  0.00    -0.046 C 
ATOM     14  H2  <0> d           0.667   1.897   0.617  0.00  0.00     0.033 H 
ATOM     15  H3  <0> d          -0.729   1.907  -0.488  0.00  0.00     0.033 H 
ATOM     16  H4  <0> d          -0.972   1.613   1.251  0.00  0.00     0.033 H 
ENDBRANCH   1  13
BRANCH   3  17
ATOM     17  C6  <0> d           0.462  -3.153  -1.812  0.00  0.00    -0.036 C 
ATOM     18  H6  <0> d           1.536  -3.305  -1.916  0.00  0.00     0.035 H 
ATOM     19  H7  <0> d          -0.003  -4.074  -1.463  0.00  0.00     0.035 H 
ATOM     20  H8  <0> d           0.040  -2.875  -2.778  0.00  0.00     0.035 H 
ENDBRANCH   3  17
BRANCH   6  21
ATOM     21  O1  <0> d          -0.415  -0.813   2.438  0.00  0.00    -0.346 OA
ATOM     22  H5  <0> d          -1.350  -0.836   2.687  0.00  0.00     0.219 HD
ENDBRANCH   6  21
TORSDOF 5
