REMARK  2 active torsions:
REMARK  status: ('A' for Active; 'I' for Inactive)
REMARK    1  A    between atoms: C1_1  and  C2_2 
REMARK    2  A    between atoms: C5_5  and  C8_8 
ROOT
ATOM      1  C2  <0> d           0.002  -0.004   0.002  0.00  0.00    -0.062 A 
ATOM      2  C3  <0> d           0.006  -0.686  -1.202  0.00  0.00    -0.076 A 
ATOM      3  C4  <0> d           0.024  -2.066  -1.216  0.00  0.00    -0.070 A 
ATOM      4  C5  <0> d           0.039  -2.773  -0.013  0.00  0.00    -0.001 A 
ATOM      5  C6  <0> d           0.036  -2.079   1.198  0.00  0.00    -0.070 A 
ATOM      6  C7  <0> d           0.023  -0.699   1.198  0.00  0.00    -0.076 A 
ATOM      7  H4  <0> d          -0.006  -0.138  -2.132  0.00  0.00     0.084 H 
ATOM      8  H5  <0> d           0.026  -2.597  -2.157  0.00  0.00     0.084 H 
ATOM      9  H6  <0> d           0.048  -2.620   2.132  0.00  0.00     0.084 H 
ATOM     10  H7  <0> d           0.025  -0.161   2.134  0.00  0.00     0.084 H 
ENDROOT
BRANCH   4  11
ATOM     11  C8  <0> d           0.058  -4.251  -0.021  0.00  0.00     0.104 A 
ATOM     12  O1  <0> d           0.062  -5.050  -1.111  0.00  0.00    -0.302 OA
ATOM     13  C10 <0> d           0.084  -6.321  -0.684  0.00  0.00     0.103 A 
ATOM     14  N1  <0> d           0.084  -6.332   0.619  0.00  0.00    -0.246 NA
ATOM     15  H9  <0> d           0.095  -7.195  -1.319  0.00  0.00     0.155 H 
ATOM     16  C9  <0> d           0.069  -5.066   1.064  0.00  0.00     0.037 A 
ATOM     17  H8  <0> d           0.065  -4.753   2.098  0.00  0.00     0.119 H 
ENDBRANCH   4  11
BRANCH   1  18
ATOM     18  C1  <0> d          -0.018   1.503   0.010  0.00  0.00    -0.051 C 
ATOM     19  H1  <0> d           1.004   1.880   0.003  0.00  0.00     0.033 H 
ATOM     20  H2  <0> d          -0.545   1.864  -0.873  0.00  0.00     0.033 H 
ATOM     21  H3  <0> d          -0.529   1.854   0.907  0.00  0.00     0.033 H 
ENDBRANCH   1  18
TORSDOF 2
