REMARK  2 active torsions:
REMARK  status: ('A' for Active; 'I' for Inactive)
REMARK    1  A    between atoms: C1_1  and  C2_2 
REMARK    2  A    between atoms: C4_4  and  C8_12 
ROOT
ATOM      1  C2  <0> d          -0.718   1.572   1.248  0.00  0.00    -0.034 A 
ATOM      2  C3  <0> d          -0.003   1.811   2.422  0.00  0.00    -0.054 A 
ATOM      3  C4  <0> d          -0.646   2.249   3.534  0.00  0.00     0.009 A 
ATOM      4  N1  <0> d          -1.984   2.463   3.533  0.00  0.00    -0.326 N 
ATOM      5  H1  <0> d          -2.485   2.819   4.446  0.00  0.00     0.169 HD
ATOM      6  C5  <0> d          -2.721   2.248   2.427  0.00  0.00     0.267 A 
ATOM      7  O1  <0> d          -3.924   2.446   2.446  0.00  0.00    -0.267 OA
ATOM      8  C6  <0> d          -2.093   1.794   1.238  0.00  0.00     0.118 A 
ATOM      9  C7  <0> d          -2.859   1.566   0.050  0.00  0.00     0.105 C 
ATOM     10  N2  <0> d          -3.468   1.384  -0.892  0.00  0.00    -0.191 NA
ATOM     11  H5  <0> d           1.064   1.648   2.446  0.00  0.00     0.087 H 
ENDROOT
BRANCH   1  12
ATOM     12  C1  <0> d          -0.013   1.086   0.008  0.00  0.00    -0.050 C 
ATOM     13  H2  <0> d           1.061   0.972   0.218  0.00  0.00     0.033 H 
ATOM     14  H3  <0> d          -0.153   1.815  -0.803  0.00  0.00     0.033 H 
ATOM     15  H4  <0> d          -0.432   0.115  -0.296  0.00  0.00     0.033 H 
ENDBRANCH   1  12
BRANCH   3  16
ATOM     16  C8  <0> d           0.143   2.502   4.793  0.00  0.00    -0.037 C 
ATOM     17  H6  <0> d          -0.535   2.849   5.587  0.00  0.00     0.035 H 
ATOM     18  H7  <0> d           0.905   3.270   4.600  0.00  0.00     0.035 H 
ATOM     19  H8  <0> d           0.633   1.570   5.112  0.00  0.00     0.035 H 
ENDBRANCH   3  16
TORSDOF 2
