REMARK  4 active torsions:
REMARK  status: ('A' for Active; 'I' for Inactive)
REMARK    1  A    between atoms: C1_1  and  C2_2 
REMARK    2  A    between atoms: C2_2  and  O1_3 
REMARK    3  A    between atoms: O1_3  and  C3_4 
REMARK    4  A    between atoms: C3_4  and  C4_6 
ROOT
ATOM      1  C3  <0> d          -2.164   0.907  -1.435  0.00  0.00     0.265 C 
ATOM      2  O2  <0> d          -2.060  -0.296  -1.383  0.00  0.00    -0.265 OA
ENDROOT
BRANCH   1   3
ATOM      3  O1  <0> d          -3.183   1.464  -2.108  0.00  0.00    -0.321 OA
BRANCH   3   4
ATOM      4  C2  <0> d          -4.121   0.560  -2.749  0.00  0.00     0.025 C 
ATOM      5  H6  <0> d          -3.593  -0.057  -3.476  0.00  0.00     0.074 H 
ATOM      6  H7  <0> d          -4.583  -0.079  -1.997  0.00  0.00     0.074 H 
BRANCH   4   7
ATOM      7  C1  <0> d          -5.205   1.372  -3.462  0.00  0.00    -0.056 C 
ATOM      8  H3  <0> d          -5.733   1.990  -2.736  0.00  0.00     0.030 H 
ATOM      9  H4  <0> d          -4.743   2.012  -4.215  0.00  0.00     0.030 H 
ATOM     10  H5  <0> d          -5.909   0.694  -3.944  0.00  0.00     0.030 H 
ENDBRANCH   4   7
ENDBRANCH   3   4
ENDBRANCH   1   3
BRANCH   1  11
ATOM     11  C4  <0> d          -1.150   1.781  -0.743  0.00  0.00     0.062 A 
ATOM     12  H1  <0> d          -0.922   2.722  -1.243  0.00  0.00     0.060 H 
ATOM     13  C6  <0> d          -0.013   1.086   0.008  0.00  0.00     0.092 A 
ATOM     14  C5  <0> d          -1.136   1.773   0.788  0.00  0.00    -0.021 A 
ATOM     15  H2  <0> d           0.002  -0.004   0.002  0.00  0.00     0.092 H 
ATOM     16  F1  <0> d           1.241   1.706  -0.001  0.00  0.00    -0.248 F 
ATOM     17  H8  <0> d          -1.859   1.135   1.295  0.00  0.00     0.038 H 
ATOM     18  H9  <0> d          -0.897   2.708   1.294  0.00  0.00     0.038 H 
ENDBRANCH   1  11
TORSDOF 4
