REMARK  5 active torsions:
REMARK  status: ('A' for Active; 'I' for Inactive)
REMARK    1  A    between atoms: C1_1  and  C2_2 
REMARK    2  A    between atoms: C3_3  and  C7_10 
REMARK    3  A    between atoms: C4_4  and  N3_9 
REMARK    4  A    between atoms: C5_6  and  C6_8 
REMARK    5  A    between atoms: C7_10  and  O1_11 
ROOT
ATOM      1  C2  <0> d           2.369   1.287  -0.013  0.00  0.00     0.045 A 
ATOM      2  C3  <0> d           1.197   2.018   0.002  0.00  0.00     0.035 A 
ATOM      3  C4  <0> d          -0.016   1.326   0.009  0.00  0.00     0.133 A 
ATOM      4  N1  <0> d           0.002  -0.004   0.002  0.00  0.00    -0.216 NA
ATOM      5  C5  <0> d           1.144  -0.661  -0.012  0.00  0.00     0.124 A 
ATOM      6  N2  <0> d           2.305  -0.037  -0.020  0.00  0.00    -0.238 NA
ENDROOT
BRANCH   2   7
ATOM      7  C7  <0> d           1.226   3.525   0.009  0.00  0.00     0.046 C 
ATOM      8  H9  <0> d           2.126   3.876  -0.516  0.00  0.00     0.081 H 
ATOM      9  H10 <0> d           0.330   3.911  -0.499  0.00  0.00     0.081 H 
BRANCH   7  10
ATOM     10  O1  <0> d           1.248   3.994   1.359  0.00  0.00    -0.396 OA
ATOM     11  H11 <0> d           1.271   5.074   1.565  0.00  0.00     0.209 HD
ENDBRANCH   7  10
ENDBRANCH   2   7
BRANCH   1  12
ATOM     12  C1  <0> d           3.703   1.986  -0.022  0.00  0.00    -0.035 C 
ATOM     13  H1  <0> d           3.547   3.075  -0.015  0.00  0.00     0.035 H 
ATOM     14  H2  <0> d           4.260   1.702  -0.927  0.00  0.00     0.035 H 
ATOM     15  H3  <0> d           4.277   1.692   0.869  0.00  0.00     0.035 H 
ENDBRANCH   1  12
BRANCH   3  16
ATOM     16  N3  <0> d          -1.219   2.013   0.019  0.00  0.00    -0.383 N 
ATOM     17  H7  <0> d          -2.169   1.459   0.025  0.00  0.00     0.157 HD
ATOM     18  H8  <0> d          -1.223   3.113   0.020  0.00  0.00     0.157 HD
ENDBRANCH   3  16
BRANCH   5  19
ATOM     19  C6  <0> d           1.122  -2.168  -0.020  0.00  0.00    -0.019 C 
ATOM     20  H4  <0> d           2.154  -2.549  -0.032  0.00  0.00     0.037 H 
ATOM     21  H5  <0> d           0.590  -2.522  -0.915  0.00  0.00     0.037 H 
ATOM     22  H6  <0> d           0.607  -2.532   0.881  0.00  0.00     0.037 H 
ENDBRANCH   5  19
TORSDOF 5
