REMARK  3 active torsions:
REMARK  status: ('A' for Active; 'I' for Inactive)
REMARK    1  A    between atoms: C1_1  and  O1_2 
REMARK    2  A    between atoms: O1_2  and  C2_3 
REMARK    3  A    between atoms: C4_5  and  O2_10 
ROOT
ATOM      1  C2  <0> d           0.606  -0.607  -1.056  0.00  0.00     0.073 A 
ATOM      2  C3  <0> d           0.655  -1.991  -1.130  0.00  0.00    -0.019 A 
ATOM      3  C4  <0> d           1.272  -2.604  -2.209  0.00  0.00     0.071 A 
ATOM      4  C5  <0> d           1.838  -1.833  -3.214  0.00  0.00    -0.014 A 
ATOM      5  C6  <0> d           1.788  -0.453  -3.139  0.00  0.00     0.121 A 
ATOM      6  C7  <0> d           1.168   0.161  -2.065  0.00  0.00    -0.013 A 
ATOM      7  F1  <0> d           2.341   0.297  -4.118  0.00  0.00    -0.206 F 
ATOM      8  H4  <0> d           0.215  -2.590  -0.347  0.00  0.00     0.092 H 
ATOM      9  H5  <0> d           2.318  -2.311  -4.055  0.00  0.00     0.092 H 
ATOM     10  H6  <0> d           1.125   1.239  -2.010  0.00  0.00     0.092 H 
ENDROOT
BRANCH   1  11
ATOM     11  O1  <0> d           0.002  -0.004   0.002  0.00  0.00    -0.356 OA
BRANCH  11  12
ATOM     12  C1  <0> d          -0.017   1.425   0.010  0.00  0.00     0.010 C 
ATOM     13  H1  <0> d           1.005   1.802   0.002  0.00  0.00     0.066 H 
ATOM     14  H2  <0> d          -0.544   1.786  -0.873  0.00  0.00     0.066 H 
ATOM     15  H3  <0> d          -0.527   1.776   0.907  0.00  0.00     0.066 H 
ENDBRANCH  11  12
ENDBRANCH   1  11
BRANCH   3  16
ATOM     16  O2  <0> d           1.322  -3.961  -2.283  0.00  0.00    -0.361 OA
ATOM     17  H7  <0> d           0.568  -4.357  -2.740  0.00  0.00     0.217 HD
ENDBRANCH   3  16
TORSDOF 3
