REMARK  2 active torsions:
REMARK  status: ('A' for Active; 'I' for Inactive)
REMARK    1  A    between atoms: C1_1  and  C2_2 
REMARK    2  A    between atoms: C7_8  and  N1_10 
REMARK       I    between atoms: N1_10  and  C8_11 
REMARK       I    between atoms: C8_11  and  N2_13 
ROOT
ATOM      1  C2  <0> d           0.742  -0.511   1.242  0.00  0.00    -0.038 C 
ATOM      2  H1  <0> d           0.232  -0.159   2.138  0.00  0.00     0.042 H 
ATOM      3  C3  <0> d           0.002  -0.004   0.002  0.00  0.00    -0.060 C 
ATOM      4  C4  <0> d          -0.019   1.526   0.010  0.00  0.00    -0.065 C 
ATOM      5  C5  <0> d           1.417   2.055  -0.000  0.00  0.00    -0.063 C 
ATOM      6  C6  <0> d           2.157   1.548   1.239  0.00  0.00    -0.046 C 
ATOM      7  C7  <0> d           2.178   0.019   1.231  0.00  0.00     0.017 C 
ATOM      8  H2  <0> d           2.688  -0.333   0.334  0.00  0.00     0.073 H 
ATOM      9  H6  <0> d          -1.020  -0.381   0.010  0.00  0.00     0.033 H 
ATOM     10  H7  <0> d           0.512  -0.356  -0.895  0.00  0.00     0.033 H 
ATOM     11  H8  <0> d          -0.546   1.887  -0.873  0.00  0.00     0.033 H 
ATOM     12  H9  <0> d          -0.529   1.877   0.907  0.00  0.00     0.033 H 
ATOM     13  H10 <0> d           1.927   1.704  -0.897  0.00  0.00     0.033 H 
ATOM     14  H11 <0> d           1.402   3.145   0.006  0.00  0.00     0.033 H 
ATOM     15  H12 <0> d           1.647   1.900   2.136  0.00  0.00     0.036 H 
ATOM     16  H13 <0> d           3.179   1.926   1.231  0.00  0.00     0.036 H 
ENDROOT
BRANCH   7  17
ATOM     17  N1  <0> d           2.886  -0.467   2.418  0.00  0.00    -0.338 N 
ATOM     18  C8  <0> d           4.229  -0.577   2.402  0.00  0.00     0.314 C 
ATOM     19  O1  <0> d           4.853  -0.274   1.404  0.00  0.00    -0.248 OA
ATOM     20  N2  <0> d           4.881  -1.024   3.494  0.00  0.00    -0.352 N 
ATOM     21  H15 <0> d           4.383  -1.265   4.291  0.00  0.00     0.160 HD
ATOM     22  H16 <0> d           5.848  -1.103   3.483  0.00  0.00     0.160 HD
ATOM     23  H14 <0> d           2.389  -0.709   3.214  0.00  0.00     0.164 HD
ENDBRANCH   7  17
BRANCH   1  24
ATOM     24  C1  <0> d           0.763  -2.041   1.233  0.00  0.00    -0.071 C 
ATOM     25  H3  <0> d           1.273  -2.392   0.336  0.00  0.00     0.028 H 
ATOM     26  H4  <0> d           1.290  -2.402   2.116  0.00  0.00     0.028 H 
ATOM     27  H5  <0> d          -0.260  -2.418   1.241  0.00  0.00     0.028 H 
ENDBRANCH   1  24
TORSDOF 2
