REMARK  4 active torsions:
REMARK  status: ('A' for Active; 'I' for Inactive)
REMARK    1  A    between atoms: C1_1  and  C2_2 
REMARK    2  A    between atoms: C6_6  and  C10_11 
REMARK    3  A    between atoms: C7_7  and  C8_8 
REMARK    4  A    between atoms: C8_8  and  C9_10 
ROOT
ATOM      1  C2  <0> d          -1.312   2.235   0.233  0.00  0.00    -0.048 A 
ATOM      2  C3  <0> d          -1.191   3.596   0.413  0.00  0.00    -0.076 A 
ATOM      3  C4  <0> d           0.043   4.209   0.281  0.00  0.00    -0.082 A 
ATOM      4  C5  <0> d           1.166   3.461  -0.028  0.00  0.00    -0.076 A 
ATOM      5  C6  <0> d           1.062   2.097  -0.205  0.00  0.00    -0.048 A 
ATOM      6  C7  <0> d          -0.181   1.471  -0.073  0.00  0.00     0.021 A 
ATOM      7  H4  <0> d          -2.062   4.187   0.654  0.00  0.00     0.084 H 
ATOM      8  H5  <0> d           0.130   5.276   0.419  0.00  0.00     0.083 H 
ATOM      9  H6  <0> d           2.125   3.946  -0.130  0.00  0.00     0.084 H 
ENDROOT
BRANCH   6  10
ATOM     10  C8  <0> d          -0.300   0.016  -0.262  0.00  0.00     0.156 C 
ATOM     11  O1  <0> d          -0.428  -0.442  -1.377  0.00  0.00    -0.293 OA
BRANCH  10  12
ATOM     12  C9  <0> d          -0.263  -0.904   0.931  0.00  0.00    -0.017 C 
ATOM     13  H7  <0> d          -0.366  -1.946   0.594  0.00  0.00     0.038 H 
ATOM     14  H8  <0> d          -1.091  -0.655   1.612  0.00  0.00     0.038 H 
ATOM     15  H9  <0> d           0.694  -0.782   1.459  0.00  0.00     0.038 H 
ENDBRANCH  10  12
ENDBRANCH   6  10
BRANCH   1  16
ATOM     16  C1  <0> d          -2.657   1.571   0.372  0.00  0.00    -0.050 C 
ATOM     17  H1  <0> d          -3.417   2.328   0.613  0.00  0.00     0.033 H 
ATOM     18  H2  <0> d          -2.616   0.823   1.179  0.00  0.00     0.033 H 
ATOM     19  H3  <0> d          -2.921   1.075  -0.574  0.00  0.00     0.033 H 
ENDBRANCH   1  16
BRANCH   5  20
ATOM     20  C10 <0> d           2.286   1.284  -0.541  0.00  0.00    -0.050 C 
ATOM     21  H10 <0> d           2.006   0.225  -0.643  0.00  0.00     0.033 H 
ATOM     22  H11 <0> d           3.029   1.391   0.264  0.00  0.00     0.033 H 
ATOM     23  H12 <0> d           2.716   1.643  -1.487  0.00  0.00     0.033 H 
ENDBRANCH   5  20
TORSDOF 4
