REMARK  4 active torsions:
REMARK  status: ('A' for Active; 'I' for Inactive)
REMARK    1  A    between atoms: C1_1  and  C2_2 
REMARK    2  A    between atoms: C2_2  and  C3_3 
REMARK    3  A    between atoms: C4_4  and  C8_10 
REMARK    4  A    between atoms: C5_5  and  C7_9 
ROOT
ATOM      1  C3  <0> d          -1.412  -0.526   0.013  0.00  0.00     0.015 A 
ATOM      2  C4  <0> d          -2.195  -0.709  -1.070  0.00  0.00    -0.032 A 
ATOM      3  C5  <0> d          -3.432  -1.208  -0.616  0.00  0.00    -0.039 A 
ATOM      4  C6  <0> d          -3.357  -1.311   0.727  0.00  0.00    -0.017 A 
ATOM      5  N1  <0> d          -2.118  -0.899   1.118  0.00  0.00    -0.368 N 
ATOM      6  H1  <0> d          -1.793  -0.873   2.031  0.00  0.00     0.165 HD
ATOM      7  H7  <0> d          -4.142  -1.663   1.380  0.00  0.00     0.112 H 
ENDROOT
BRANCH   1   8
ATOM      8  C2  <0> d           0.002  -0.004   0.002  0.00  0.00    -0.030 C 
ATOM      9  H5  <0> d           0.512  -0.356  -0.895  0.00  0.00     0.041 H 
ATOM     10  H6  <0> d           0.529  -0.365   0.885  0.00  0.00     0.041 H 
BRANCH   8  11
ATOM     11  C1  <0> d          -0.019   1.526   0.010  0.00  0.00    -0.071 C 
ATOM     12  H2  <0> d           1.004   1.903   0.003  0.00  0.00     0.028 H 
ATOM     13  H3  <0> d          -0.546   1.887  -0.873  0.00  0.00     0.028 H 
ATOM     14  H4  <0> d          -0.529   1.877   0.907  0.00  0.00     0.028 H 
ENDBRANCH   8  11
ENDBRANCH   1   8
BRANCH   2  15
ATOM     15  C8  <0> d          -1.817  -0.431  -2.502  0.00  0.00    -0.049 C 
ATOM     16  H11 <0> d          -1.372  -1.324  -2.940  0.00  0.00     0.033 H 
ATOM     17  H12 <0> d          -2.708  -0.154  -3.066  0.00  0.00     0.033 H 
ATOM     18  H13 <0> d          -1.097   0.387  -2.535  0.00  0.00     0.033 H 
ENDBRANCH   2  15
BRANCH   3  19
ATOM     19  C7  <0> d          -4.620  -1.562  -1.473  0.00  0.00    -0.049 C 
ATOM     20  H8  <0> d          -4.553  -2.608  -1.773  0.00  0.00     0.033 H 
ATOM     21  H9  <0> d          -5.537  -1.405  -0.905  0.00  0.00     0.033 H 
ATOM     22  H10 <0> d          -4.629  -0.930  -2.360  0.00  0.00     0.033 H 
ENDBRANCH   3  19
TORSDOF 4
