REMARK  4 active torsions:
REMARK  status: ('A' for Active; 'I' for Inactive)
REMARK    1  A    between atoms: C1_1  and  C2_2 
REMARK    2  A    between atoms: C2_2  and  C3_3 
REMARK    3  A    between atoms: C7_7  and  C8_9 
REMARK    4  A    between atoms: C8_9  and  C9_10 
ROOT
ATOM      1  C3  <0> d           0.707  -0.490  -1.238  0.00  0.00     0.012 A 
ATOM      2  C4  <0> d           2.023  -0.792  -1.183  0.00  0.00    -0.013 A 
ATOM      3  C5  <0> d           2.677  -1.248  -2.352  0.00  0.00     0.175 A 
ATOM      4  C6  <0> d           1.925  -1.373  -3.545  0.00  0.00    -0.013 A 
ATOM      5  C7  <0> d           0.612  -1.055  -3.533  0.00  0.00     0.012 A 
ATOM      6  N1  <0> d           0.013  -0.625  -2.395  0.00  0.00    -0.363 N 
ATOM      7  O1  <0> d           3.866  -1.528  -2.333  0.00  0.00    -0.288 OA
ATOM      8  H6  <0> d           2.570  -0.686  -0.258  0.00  0.00     0.092 H 
ATOM      9  H7  <0> d           2.396  -1.718  -4.453  0.00  0.00     0.092 H 
ATOM     10  H13 <0> d          -0.931  -0.406  -2.410  0.00  0.00     0.165 HD
ENDROOT
BRANCH   1  11
ATOM     11  C2  <0> d           0.002  -0.004   0.002  0.00  0.00    -0.030 C 
ATOM     12  H4  <0> d           0.529  -0.365   0.885  0.00  0.00     0.041 H 
ATOM     13  H5  <0> d          -1.020  -0.381   0.010  0.00  0.00     0.041 H 
BRANCH  11  14
ATOM     14  C1  <0> d          -0.019   1.526   0.010  0.00  0.00    -0.071 C 
ATOM     15  H1  <0> d           1.004   1.903   0.003  0.00  0.00     0.028 H 
ATOM     16  H2  <0> d          -0.546   1.887  -0.873  0.00  0.00     0.028 H 
ATOM     17  H3  <0> d          -0.529   1.877   0.907  0.00  0.00     0.028 H 
ENDBRANCH  11  14
ENDBRANCH   1  11
BRANCH   5  18
ATOM     18  C8  <0> d          -0.197  -1.184  -4.798  0.00  0.00    -0.030 C 
ATOM     19  H8  <0> d          -0.943  -0.390  -4.835  0.00  0.00     0.041 H 
ATOM     20  H9  <0> d           0.463  -1.103  -5.662  0.00  0.00     0.041 H 
BRANCH  18  21
ATOM     21  C9  <0> d          -0.898  -2.544  -4.818  0.00  0.00    -0.071 C 
ATOM     22  H10 <0> d          -0.153  -3.338  -4.781  0.00  0.00     0.028 H 
ATOM     23  H11 <0> d          -1.558  -2.625  -3.954  0.00  0.00     0.028 H 
ATOM     24  H12 <0> d          -1.484  -2.637  -5.733  0.00  0.00     0.028 H 
ENDBRANCH  18  21
ENDBRANCH   5  18
TORSDOF 4
