REMARK  1 active torsions:
REMARK  status: ('A' for Active; 'I' for Inactive)
REMARK    1  A    between atoms: C3_3  and  O1_10 
ROOT
ATOM      1  C1  <0> d          -0.558  -2.320  -0.004  0.00  0.00    -0.079 A 
ATOM      2  C2  <0> d           0.794  -2.631  -0.019  0.00  0.00    -0.049 A 
ATOM      3  C3  <0> d           1.756  -1.649  -0.023  0.00  0.00     0.095 A 
ATOM      4  C4  <0> d           1.387  -0.281  -0.013  0.00  0.00     0.107 A 
ATOM      5  C5  <0> d           0.002  -0.004   0.002  0.00  0.00     0.037 A 
ATOM      6  C6  <0> d          -0.951  -0.995   0.006  0.00  0.00    -0.064 A 
ATOM      7  S1  <0> d          -0.022   1.771   0.012  0.00  0.00    -0.080 SA
ATOM      8  C7  <0> d           1.696   2.024  -0.003  0.00  0.00     0.041 A 
ATOM      9  N1  <0> d           2.177   0.813  -0.014  0.00  0.00    -0.250 NA
ATOM     10  H1  <0> d          -1.298  -3.107  -0.000  0.00  0.00     0.083 H 
ATOM     11  H2  <0> d           1.098  -3.668  -0.027  0.00  0.00     0.087 H 
ATOM     12  H3  <0> d          -2.000  -0.740   0.018  0.00  0.00     0.085 H 
ATOM     13  H4  <0> d           2.235   2.960  -0.003  0.00  0.00     0.126 H 
ENDROOT
BRANCH   3  14
ATOM     14  O1  <0> d           3.071  -1.992  -0.038  0.00  0.00    -0.358 OA
ATOM     15  H5  <0> d           3.461  -2.095   0.841  0.00  0.00     0.217 HD
ENDBRANCH   3  14
TORSDOF 1
