REMARK  7 active torsions:
REMARK  status: ('A' for Active; 'I' for Inactive)
REMARK    1  A    between atoms: C1_1  and  C2_2 
REMARK    2  A    between atoms: C2_2  and  C3_3 
REMARK    3  A    between atoms: C2_2  and  C4_4 
REMARK    4  A    between atoms: C5_5  and  C6_6 
REMARK    5  A    between atoms: C5_5  and  O1_7 
REMARK    6  A    between atoms: O1_7  and  C7_8 
REMARK    7  A    between atoms: C7_8  and  C8_10 
ROOT
ATOM      1  C4  <0> d          -2.158   1.127   1.404  0.00  0.00    -0.071 C 
ATOM      2  C5  <0> d          -2.533   0.172   2.229  0.00  0.00     0.049 C 
ATOM      3  H8  <0> d          -2.860   1.530   0.690  0.00  0.00     0.081 H 
ENDROOT
BRANCH   1   4
ATOM      4  C2  <0> d          -0.748   1.658   1.457  0.00  0.00    -0.043 C 
ATOM      5  H4  <0> d          -0.223   1.211   2.301  0.00  0.00     0.045 H 
BRANCH   4   6
ATOM      6  C1  <0> d          -0.021   1.303   0.158  0.00  0.00    -0.070 C 
ATOM      7  H1  <0> d           0.003   0.220   0.039  0.00  0.00     0.028 H 
ATOM      8  H2  <0> d           0.999   1.687   0.196  0.00  0.00     0.028 H 
ATOM      9  H3  <0> d          -0.546   1.750  -0.686  0.00  0.00     0.028 H 
ENDBRANCH   4   6
BRANCH   4  10
ATOM     10  C3  <0> d          -0.782   3.178   1.623  0.00  0.00    -0.070 C 
ATOM     11  H5  <0> d          -1.307   3.625   0.779  0.00  0.00     0.028 H 
ATOM     12  H6  <0> d          -1.300   3.431   2.549  0.00  0.00     0.028 H 
ATOM     13  H7  <0> d           0.238   3.562   1.661  0.00  0.00     0.028 H 
ENDBRANCH   4  10
ENDBRANCH   1   4
BRANCH   2  14
ATOM     14  C6  <0> d          -1.588  -0.315   3.297  0.00  0.00    -0.032 C 
ATOM     15  H9  <0> d          -1.358   0.503   3.979  0.00  0.00     0.036 H 
ATOM     16  H10 <0> d          -2.054  -1.130   3.852  0.00  0.00     0.036 H 
ATOM     17  H11 <0> d          -0.668  -0.672   2.834  0.00  0.00     0.036 H 
ENDBRANCH   2  14
BRANCH   2  18
ATOM     18  O1  <0> d          -3.770  -0.375   2.117  0.00  0.00    -0.284 OA
BRANCH  18  19
ATOM     19  C7  <0> d          -3.836  -1.664   1.749  0.00  0.00     0.259 C 
ATOM     20  O2  <0> d          -2.821  -2.303   1.600  0.00  0.00    -0.265 OA
BRANCH  19  21
ATOM     21  C8  <0> d          -5.176  -2.315   1.520  0.00  0.00     0.004 C 
ATOM     22  H12 <0> d          -5.467  -2.191   0.477  0.00  0.00     0.041 H 
ATOM     23  H13 <0> d          -5.109  -3.377   1.755  0.00  0.00     0.041 H 
ATOM     24  H14 <0> d          -5.921  -1.847   2.163  0.00  0.00     0.041 H 
ENDBRANCH  19  21
ENDBRANCH  18  19
ENDBRANCH   2  18
TORSDOF 7
