REMARK  7 active torsions:
REMARK  status: ('A' for Active; 'I' for Inactive)
REMARK    1  A    between atoms: C1_1  and  C2_2 
REMARK    2  A    between atoms: C2_2  and  O1_3 
REMARK    3  A    between atoms: O1_3  and  C3_4 
REMARK    4  A    between atoms: C3_4  and  C4_6 
REMARK    5  A    between atoms: C4_6  and  C5_7 
REMARK    6  A    between atoms: C5_7  and  C6_8 
REMARK    7  A    between atoms: C6_8  and  C7_9 
ROOT
ATOM      1  C4  <0> d           2.755   5.077   0.003  0.00  0.00     0.016 C 
ATOM      2  H6  <0> d           2.248   5.465  -0.880  0.00  0.00     0.048 H 
ATOM      3  H7  <0> d           2.265   5.455   0.900  0.00  0.00     0.048 H 
ENDROOT
BRANCH   1   4
ATOM      4  C3  <0> d           4.195   5.524  -0.008  0.00  0.00     0.258 C 
ATOM      5  O2  <0> d           5.082   4.704  -0.021  0.00  0.00    -0.265 OA
BRANCH   4   6
ATOM      6  O1  <0> d           4.491   6.833  -0.004  0.00  0.00    -0.322 OA
BRANCH   6   7
ATOM      7  C2  <0> d           5.898   7.190  -0.016  0.00  0.00     0.025 C 
ATOM      8  H4  <0> d           6.385   6.777   0.868  0.00  0.00     0.074 H 
ATOM      9  H5  <0> d           6.368   6.787  -0.912  0.00  0.00     0.074 H 
BRANCH   7  10
ATOM     10  C1  <0> d           6.037   8.714  -0.009  0.00  0.00    -0.056 C 
ATOM     11  H1  <0> d           5.550   9.127  -0.892  0.00  0.00     0.030 H 
ATOM     12  H2  <0> d           5.567   9.118   0.888  0.00  0.00     0.030 H 
ATOM     13  H3  <0> d           7.094   8.982  -0.017  0.00  0.00     0.030 H 
ENDBRANCH   7  10
ENDBRANCH   6   7
ENDBRANCH   4   6
ENDBRANCH   1   4
BRANCH   1  14
ATOM     14  C5  <0> d           2.696   3.548  -0.005  0.00  0.00    -0.048 C 
ATOM     15  H8  <0> d           3.204   3.160   0.878  0.00  0.00     0.034 H 
ATOM     16  H9  <0> d           3.187   3.170  -0.901  0.00  0.00     0.034 H 
BRANCH  14  17
ATOM     17  C6  <0> d           1.235   3.094   0.007  0.00  0.00     0.016 C 
ATOM     18  H10 <0> d           0.727   3.482  -0.876  0.00  0.00     0.049 H 
ATOM     19  H11 <0> d           0.744   3.473   0.904  0.00  0.00     0.049 H 
BRANCH  17  20
ATOM     20  C7  <0> d           1.177   1.588  -0.001  0.00  0.00     0.172 C 
ATOM     21  O3  <0> d           2.199   0.944  -0.014  0.00  0.00    -0.648 OA
ATOM     22  O4  <0> d          -0.011   0.963   0.007  0.00  0.00    -0.648 OA
ENDBRANCH  17  20
ENDBRANCH  14  17
ENDBRANCH   1  14
TORSDOF 7
