REMARK  2 active torsions:
REMARK  status: ('A' for Active; 'I' for Inactive)
REMARK    1  A    between atoms: C1_1  and  C2_2 
REMARK    2  A    between atoms: C5_5  and  C6_6 
ROOT
ATOM      1  C2  <0> d           0.002  -0.004   0.002  0.00  0.00    -0.049 A 
ATOM      2  C3  <0> d          -0.729  -0.727   1.135  0.00  0.00    -0.043 A 
ATOM      3  C4  <0> d           0.801  -0.706   1.102  0.00  0.00    -0.043 A 
ATOM      4  C5  <0> d           0.047   0.100   2.163  0.00  0.00    -0.049 A 
ATOM      5  H4  <0> d          -0.012  -0.469  -0.984  0.00  0.00     0.040 H 
ATOM      6  H5  <0> d          -1.660  -1.292   1.182  0.00  0.00     0.041 H 
ATOM      7  H6  <0> d           1.745  -1.249   1.107  0.00  0.00     0.041 H 
ATOM      8  H7  <0> d           0.030   1.184   2.053  0.00  0.00     0.040 H 
ENDROOT
BRANCH   1   9
ATOM      9  C1  <0> d          -0.019   1.526   0.010  0.00  0.00    -0.072 C 
ATOM     10  H1  <0> d           0.991   1.902   0.174  0.00  0.00     0.028 H 
ATOM     11  H2  <0> d          -0.391   1.889  -0.947  0.00  0.00     0.028 H 
ATOM     12  H3  <0> d          -0.671   1.876   0.810  0.00  0.00     0.028 H 
ENDBRANCH   1   9
BRANCH   4  13
ATOM     13  C6  <0> d           0.085  -0.418   3.602  0.00  0.00    -0.072 C 
ATOM     14  H8  <0> d           0.545  -1.406   3.621  0.00  0.00     0.028 H 
ATOM     15  H9  <0> d           0.668   0.266   4.219  0.00  0.00     0.028 H 
ATOM     16  H10 <0> d          -0.931  -0.482   3.992  0.00  0.00     0.028 H 
ENDBRANCH   4  13
TORSDOF 2
