REMARK  0 active torsions:
REMARK  status: ('A' for Active; 'I' for Inactive)
ROOT
ATOM      1  C1  <0> d           0.713  -0.491  -1.263  0.00  0.00    -0.065 C 
ATOM      2  C2  <0> d           0.002  -0.004   0.002  0.00  0.00    -0.065 C 
ATOM      3  C3  <0> d          -0.019   1.525   0.010  0.00  0.00    -0.061 C 
ATOM      4  C4  <0> d           1.415   2.062  -0.000  0.00  0.00    -0.044 C 
ATOM      5  H1  <0> d           1.940   1.719   0.891  0.00  0.00     0.041 H 
ATOM      6  C5  <0> d           1.363   3.595  -0.016  0.00  0.00    -0.006 C 
ATOM      7  C6  <0> d           2.768   4.129  -0.175  0.00  0.00     0.127 C 
ATOM      8  O1  <0> d           3.205   4.962   0.582  0.00  0.00    -0.298 OA
ATOM      9  C7  <0> d           3.611   3.590  -1.310  0.00  0.00    -0.009 C 
ATOM     10  C8  <0> d           3.592   2.060  -1.240  0.00  0.00    -0.055 C 
ATOM     11  C9  <0> d           2.144   1.563  -1.249  0.00  0.00    -0.050 C 
ATOM     12  H2  <0> d           1.637   1.935  -2.140  0.00  0.00     0.040 H 
ATOM     13  C10 <0> d           2.150   0.032  -1.266  0.00  0.00    -0.061 C 
ATOM     14  H3  <0> d           0.723  -1.581  -1.278  0.00  0.00     0.033 H 
ATOM     15  H4  <0> d           0.188  -0.118  -2.142  0.00  0.00     0.033 H 
ATOM     16  H5  <0> d           0.535  -0.366   0.881  0.00  0.00     0.033 H 
ATOM     17  H6  <0> d          -1.020  -0.382   0.014  0.00  0.00     0.033 H 
ATOM     18  H7  <0> d          -0.547   1.885  -0.872  0.00  0.00     0.033 H 
ATOM     19  H8  <0> d          -0.530   1.875   0.907  0.00  0.00     0.033 H 
ATOM     20  H9  <0> d           0.795   3.902  -0.780  0.00  0.00     0.044 H 
ATOM     21  H10 <0> d           0.937   3.956   0.920  0.00  0.00     0.044 H 
ATOM     22  H11 <0> d           3.233   3.899  -2.182  0.00  0.00     0.044 H 
ATOM     23  H12 <0> d           4.635   3.950  -1.210  0.00  0.00     0.044 H 
ATOM     24  H13 <0> d           4.082   1.733  -0.323  0.00  0.00     0.034 H 
ATOM     25  H14 <0> d           4.122   1.651  -2.100  0.00  0.00     0.034 H 
ATOM     26  H15 <0> d           2.672  -0.338  -0.383  0.00  0.00     0.033 H 
ATOM     27  H16 <0> d           2.662  -0.318  -2.162  0.00  0.00     0.033 H 
ENDROOT
TORSDOF 0
