REMARK  4 active torsions:
REMARK  status: ('A' for Active; 'I' for Inactive)
REMARK    1  A    between atoms: C1_1  and  C2_2 
REMARK    2  A    between atoms: C5_6  and  C6_9 
REMARK    3  A    between atoms: C6_9  and  O3_11 
REMARK    4  A    between atoms: O3_11  and  C7_12 
ROOT
ATOM      1  C2  <0> d           0.002  -0.004   0.002  0.00  0.00     0.036 C 
ATOM      2  H1  <0> d           0.522  -0.362  -0.887  0.00  0.00     0.082 H 
ATOM      3  C3  <0> d          -1.443  -0.547   0.018  0.00  0.00    -0.038 C 
ATOM      4  C4  <0> d          -1.325  -1.771   0.967  0.00  0.00    -0.030 C 
ATOM      5  C5  <0> d          -0.257  -1.263   1.969  0.00  0.00     0.122 C 
ATOM      6  H2  <0> d          -0.720  -0.639   2.733  0.00  0.00     0.099 H 
ATOM      7  O1  <0> d           0.661  -0.488   1.178  0.00  0.00    -0.371 OA
ATOM      8  H6  <0> d          -2.132   0.194   0.423  0.00  0.00     0.036 H 
ATOM      9  H7  <0> d          -1.751  -0.860  -0.980  0.00  0.00     0.036 H 
ATOM     10  H8  <0> d          -2.271  -1.970   1.470  0.00  0.00     0.037 H 
ATOM     11  H9  <0> d          -0.973  -2.652   0.431  0.00  0.00     0.037 H 
ENDROOT
BRANCH   5  12
ATOM     12  C6  <0> d           0.456  -2.427   2.608  0.00  0.00     0.287 C 
ATOM     13  O2  <0> d           1.635  -2.599   2.404  0.00  0.00    -0.262 OA
BRANCH  12  14
ATOM     14  O3  <0> d          -0.218  -3.273   3.403  0.00  0.00    -0.324 OA
BRANCH  14  15
ATOM     15  C7  <0> d           0.521  -4.354   3.975  0.00  0.00     0.013 C 
ATOM     16  H10 <0> d           0.938  -4.970   3.179  0.00  0.00     0.067 H 
ATOM     17  H11 <0> d           1.329  -3.957   4.588  0.00  0.00     0.067 H 
ATOM     18  H12 <0> d          -0.142  -4.959   4.594  0.00  0.00     0.067 H 
ENDBRANCH  14  15
ENDBRANCH  12  14
ENDBRANCH   5  12
BRANCH   1  19
ATOM     19  C1  <0> d          -0.019   1.526   0.010  0.00  0.00    -0.052 C 
ATOM     20  H3  <0> d           1.004   1.903   0.003  0.00  0.00     0.030 H 
ATOM     21  H4  <0> d          -0.546   1.887  -0.873  0.00  0.00     0.030 H 
ATOM     22  H5  <0> d          -0.529   1.877   0.907  0.00  0.00     0.030 H 
ENDBRANCH   1  19
TORSDOF 4
