REMARK  2 active torsions:
REMARK  status: ('A' for Active; 'I' for Inactive)
REMARK    1  A    between atoms: C5_5  and  O2_10 
REMARK    2  A    between atoms: C6_7  and  O1_9 
ROOT
ATOM      1  C1  <0> d           2.034   1.151  -1.272  0.00  0.00    -0.024 C 
ATOM      2  C2  <0> d           3.280   1.972  -1.428  0.00  0.00    -0.104 C 
ATOM      3  C3  <0> d           3.499   3.083  -0.800  0.00  0.00    -0.104 C 
ATOM      4  C4  <0> d           2.542   3.700   0.178  0.00  0.00    -0.024 C 
ATOM      5  C5  <0> d           1.149   3.090   0.008  0.00  0.00     0.063 C 
ATOM      6  H1  <0> d           0.715   3.424  -0.934  0.00  0.00     0.087 H 
ATOM      7  C6  <0> d           1.286   1.562  -0.002  0.00  0.00     0.063 C 
ATOM      8  H2  <0> d           1.845   1.239   0.876  0.00  0.00     0.087 H 
ATOM      9  H3  <0> d           2.302   0.096  -1.209  0.00  0.00     0.042 H 
ATOM     10  H4  <0> d           1.389   1.306  -2.137  0.00  0.00     0.042 H 
ATOM     11  H5  <0> d           4.041   1.614  -2.105  0.00  0.00     0.076 H 
ATOM     12  H6  <0> d           4.429   3.598  -0.992  0.00  0.00     0.076 H 
ATOM     13  H7  <0> d           2.490   4.774   0.003  0.00  0.00     0.042 H 
ATOM     14  H8  <0> d           2.896   3.515   1.192  0.00  0.00     0.042 H 
ENDROOT
BRANCH   5  15
ATOM     15  O2  <0> d           0.309   3.490   1.093  0.00  0.00    -0.393 OA
ATOM     16  H10 <0> d           0.180   4.446   1.158  0.00  0.00     0.210 HD
ENDBRANCH   5  15
BRANCH   7  17
ATOM     17  O1  <0> d          -0.011   0.963   0.007  0.00  0.00    -0.393 OA
ATOM     18  H9  <0> d           0.002  -0.004   0.002  0.00  0.00     0.210 HD
ENDBRANCH   7  17
TORSDOF 2
