REMARK  7 active torsions:
REMARK  status: ('A' for Active; 'I' for Inactive)
REMARK    1  A    between atoms: C1_1  and  C2_2 
REMARK    2  A    between atoms: C2_2  and  C3_3 
REMARK    3  A    between atoms: C4_4  and  C5_5 
REMARK    4  A    between atoms: C5_5  and  C6_6 
REMARK    5  A    between atoms: C6_6  and  O2_8 
REMARK    6  A    between atoms: O2_8  and  C7_9 
REMARK    7  A    between atoms: C7_9  and  C8_10 
ROOT
ATOM      1  C5  <0> d          -1.331   2.042   0.019  0.00  0.00     0.031 C 
ATOM      2  H8  <0> d          -1.440   2.603  -0.908  0.00  0.00     0.053 H 
ATOM      3  H9  <0> d          -2.147   1.325   0.109  0.00  0.00     0.053 H 
ENDROOT
BRANCH   1   4
ATOM      4  C4  <0> d          -0.016   1.306   0.009  0.00  0.00    -0.098 C 
ATOM      5  C3  <0> d           0.002  -0.004   0.002  0.00  0.00    -0.106 C 
ATOM      6  H6  <0> d          -0.926  -0.557   0.008  0.00  0.00     0.076 H 
ATOM      7  H7  <0> d           0.912   1.859   0.003  0.00  0.00     0.077 H 
BRANCH   5   8
ATOM      8  C2  <0> d           1.317  -0.740  -0.015  0.00  0.00    -0.053 C 
ATOM      9  H4  <0> d           1.413  -1.291  -0.950  0.00  0.00     0.038 H 
ATOM     10  H5  <0> d           2.135  -0.024   0.071  0.00  0.00     0.038 H 
BRANCH   8  11
ATOM     11  C1  <0> d           1.370  -1.717   1.161  0.00  0.00    -0.073 C 
ATOM     12  H1  <0> d           1.274  -1.166   2.097  0.00  0.00     0.027 H 
ATOM     13  H2  <0> d           0.552  -2.433   1.076  0.00  0.00     0.027 H 
ATOM     14  H3  <0> d           2.321  -2.249   1.149  0.00  0.00     0.027 H 
ENDBRANCH   8  11
ENDBRANCH   5   8
ENDBRANCH   1   4
BRANCH   1  15
ATOM     15  C6  <0> d          -1.366   2.992   1.189  0.00  0.00     0.262 C 
ATOM     16  O1  <0> d          -0.420   3.064   1.937  0.00  0.00    -0.265 OA
BRANCH  15  17
ATOM     17  O2  <0> d          -2.448   3.757   1.399  0.00  0.00    -0.322 OA
BRANCH  17  18
ATOM     18  C7  <0> d          -2.412   4.649   2.544  0.00  0.00     0.025 C 
ATOM     19  H10 <0> d          -2.285   4.065   3.456  0.00  0.00     0.074 H 
ATOM     20  H11 <0> d          -1.578   5.343   2.438  0.00  0.00     0.074 H 
BRANCH  18  21
ATOM     21  C8  <0> d          -3.723   5.435   2.620  0.00  0.00    -0.056 C 
ATOM     22  H12 <0> d          -3.850   6.019   1.709  0.00  0.00     0.030 H 
ATOM     23  H13 <0> d          -4.556   4.741   2.726  0.00  0.00     0.030 H 
ATOM     24  H14 <0> d          -3.696   6.104   3.480  0.00  0.00     0.030 H 
ENDBRANCH  18  21
ENDBRANCH  17  18
ENDBRANCH  15  17
ENDBRANCH   1  15
TORSDOF 7
