REMARK  0 active torsions:
REMARK  status: ('A' for Active; 'I' for Inactive)
ROOT
ATOM      1  C1  <0> d          -0.016   1.319   0.009  0.00  0.00     0.012 A 
ATOM      2  C2  <0> d           1.188   2.009   0.002  0.00  0.00    -0.013 A 
ATOM      3  C3  <0> d           2.364   1.288  -0.012  0.00  0.00     0.069 A 
ATOM      4  N1  <0> d           2.304  -0.037  -0.021  0.00  0.00    -0.244 NA
ATOM      5  C4  <0> d           1.145  -0.661  -0.013  0.00  0.00     0.086 A 
ATOM      6  N2  <0> d           0.002  -0.004   0.002  0.00  0.00    -0.254 NA
ATOM      7  C5  <0> d           3.707   1.966  -0.013  0.00  0.00     0.121 C 
ATOM      8  N3  <0> d           3.576   3.363  -0.438  0.00  0.00    -0.070 N 
ATOM      9  C6  <0> d           2.569   4.030   0.401  0.00  0.00     0.086 C 
ATOM     10  C7  <0> d           1.183   3.513   0.006  0.00  0.00    -0.015 C 
ATOM     11  H1  <0> d          -0.954   1.854   0.026  0.00  0.00     0.115 H 
ATOM     12  H2  <0> d           1.129  -1.741  -0.020  0.00  0.00     0.146 H 
ATOM     13  H3  <0> d           4.128   1.932   0.992  0.00  0.00     0.085 H 
ATOM     14  H4  <0> d           4.374   1.442  -0.698  0.00  0.00     0.085 H 
ATOM     15  H5  <0> d           4.464   3.831  -0.334  0.00  0.00     0.277 HD
ATOM     16  H6  <0> d           2.758   3.804   1.450  0.00  0.00     0.076 H 
ATOM     17  H7  <0> d           2.616   5.107   0.242  0.00  0.00     0.076 H 
ATOM     18  H8  <0> d           0.929   3.878  -0.989  0.00  0.00     0.042 H 
ATOM     19  H9  <0> d           0.445   3.872   0.723  0.00  0.00     0.042 H 
ATOM     20  H10 <0> d           3.287   3.396  -1.403  0.00  0.00     0.277 HD
ENDROOT
TORSDOF 0
