REMARK  4 active torsions:
REMARK  status: ('A' for Active; 'I' for Inactive)
REMARK    1  A    between atoms: C4_4  and  C7_7 
REMARK    2  A    between atoms: C7_7  and  C8_9 
REMARK    3  A    between atoms: C7_7  and  O2_11 
REMARK    4  A    between atoms: C8_9  and  O1_10 
ROOT
ATOM      1  C1  <0> d           1.128  -0.118   4.719  0.00  0.00    -0.083 A 
ATOM      2  C2  <0> d           0.017  -0.724   4.164  0.00  0.00    -0.082 A 
ATOM      3  C3  <0> d          -0.584  -0.175   3.047  0.00  0.00    -0.074 A 
ATOM      4  C4  <0> d          -0.074   0.981   2.485  0.00  0.00    -0.028 A 
ATOM      5  C5  <0> d           1.041   1.583   3.037  0.00  0.00    -0.074 A 
ATOM      6  C6  <0> d           1.639   1.036   4.157  0.00  0.00    -0.082 A 
ATOM      7  H2  <0> d           1.597  -0.547   5.592  0.00  0.00     0.083 H 
ATOM      8  H3  <0> d          -0.383  -1.626   4.603  0.00  0.00     0.083 H 
ATOM      9  H4  <0> d          -1.453  -0.648   2.613  0.00  0.00     0.084 H 
ATOM     10  H5  <0> d           1.443   2.483   2.595  0.00  0.00     0.084 H 
ATOM     11  H6  <0> d           2.508   1.510   4.590  0.00  0.00     0.083 H 
ENDROOT
BRANCH   4  12
ATOM     12  C7  <0> d          -0.729   1.579   1.267  0.00  0.00     0.081 C 
ATOM     13  H1  <0> d          -1.776   1.277   1.232  0.00  0.00     0.093 H 
BRANCH  12  14
ATOM     14  C8  <0> d          -0.013   1.086   0.008  0.00  0.00     0.044 C 
ATOM     15  H7  <0> d           0.002  -0.004   0.002  0.00  0.00     0.078 H 
ATOM     16  H8  <0> d           1.010   1.463   0.000  0.00  0.00     0.078 H 
BRANCH  14  17
ATOM     17  O1  <0> d          -0.704   1.559  -1.150  0.00  0.00    -0.398 OA
ATOM     18  H9  <0> d          -0.304   1.284  -1.986  0.00  0.00     0.209 HD
ENDBRANCH  14  17
ENDBRANCH  12  14
BRANCH  12  19
ATOM     19  O2  <0> d          -0.647   3.004   1.334  0.00  0.00    -0.389 OA
ATOM     20  H10 <0> d           0.258   3.345   1.368  0.00  0.00     0.210 HD
ENDBRANCH  12  19
ENDBRANCH   4  12
TORSDOF 4
