REMARK  4 active torsions:
REMARK  status: ('A' for Active; 'I' for Inactive)
REMARK    1  A    between atoms: C1_1  and  C2_2 
REMARK    2  A    between atoms: C2_2  and  C6_10 
REMARK    3  A    between atoms: C4_5  and  C5_8 
REMARK    4  A    between atoms: C5_8  and  O3_9 
ROOT
ATOM      1  C2  <0> d          -0.664   3.200   2.878  0.00  0.00     0.157 C 
ATOM      2  O1  <0> d          -0.390   1.965   3.553  0.00  0.00    -0.353 OA
ATOM      3  C3  <0> d          -0.082   0.984   2.542  0.00  0.00     0.049 C 
ATOM      4  C4  <0> d          -0.729   1.579   1.267  0.00  0.00     0.083 C 
ATOM      5  H1  <0> d          -1.793   1.347   1.224  0.00  0.00     0.090 H 
ATOM      6  O2  <0> d          -0.514   2.998   1.463  0.00  0.00    -0.346 OA
ATOM      7  H5  <0> d          -0.532   0.022   2.789  0.00  0.00     0.078 H 
ATOM      8  H6  <0> d           0.996   0.882   2.416  0.00  0.00     0.078 H 
ENDROOT
BRANCH   1   9
ATOM      9  C1  <0> d          -2.095   3.646   3.185  0.00  0.00    -0.026 C 
ATOM     10  H2  <0> d          -2.203   3.813   4.256  0.00  0.00     0.035 H 
ATOM     11  H3  <0> d          -2.310   4.572   2.650  0.00  0.00     0.035 H 
ATOM     12  H4  <0> d          -2.794   2.872   2.866  0.00  0.00     0.035 H 
ENDBRANCH   1   9
BRANCH   1  13
ATOM     13  C6  <0> d           0.318   4.273   3.352  0.00  0.00    -0.026 C 
ATOM     14  H10 <0> d           1.338   3.946   3.151  0.00  0.00     0.035 H 
ATOM     15  H11 <0> d           0.124   5.204   2.818  0.00  0.00     0.035 H 
ATOM     16  H12 <0> d           0.192   4.435   4.422  0.00  0.00     0.035 H 
ENDBRANCH   1  13
BRANCH   4  17
ATOM     17  C5  <0> d          -0.013   1.086   0.008  0.00  0.00     0.043 C 
ATOM     18  H7  <0> d           0.002  -0.004   0.002  0.00  0.00     0.078 H 
ATOM     19  H8  <0> d           1.010   1.463   0.000  0.00  0.00     0.078 H 
BRANCH  17  20
ATOM     20  O3  <0> d          -0.704   1.559  -1.150  0.00  0.00    -0.398 OA
ATOM     21  H9  <0> d          -0.304   1.284  -1.986  0.00  0.00     0.209 HD
ENDBRANCH  17  20
ENDBRANCH   4  17
TORSDOF 4
