REMARK  5 active torsions:
REMARK  status: ('A' for Active; 'I' for Inactive)
REMARK    1  A    between atoms: C1_1  and  C2_2 
REMARK    2  A    between atoms: C5_5  and  C8_9 
REMARK    3  A    between atoms: C8_9  and  C9_11 
REMARK    4  A    between atoms: C8_9  and  C10_12 
REMARK    5  A    between atoms: C10_12  and  O1_13 
ROOT
ATOM      1  C2  <0> d          -3.777  -1.858  -0.762  0.00  0.00    -0.087 C 
ATOM      2  C3  <0> d          -3.485  -0.755  -1.372  0.00  0.00    -0.101 C 
ATOM      3  C4  <0> d          -2.174  -0.037  -1.231  0.00  0.00    -0.046 C 
ATOM      4  C5  <0> d          -1.433  -0.534   0.013  0.00  0.00    -0.046 C 
ATOM      5  H1  <0> d          -1.946  -0.184   0.909  0.00  0.00     0.041 H 
ATOM      6  C6  <0> d          -1.417  -2.067  -0.006  0.00  0.00    -0.058 C 
ATOM      7  C7  <0> d          -2.850  -2.569   0.180  0.00  0.00    -0.045 C 
ATOM      8  H6  <0> d          -4.230  -0.323  -2.023  0.00  0.00     0.077 H 
ATOM      9  H7  <0> d          -2.356   1.033  -1.140  0.00  0.00     0.039 H 
ATOM     10  H8  <0> d          -1.564  -0.226  -2.114  0.00  0.00     0.039 H 
ATOM     11  H9  <0> d          -1.031  -2.418  -0.963  0.00  0.00     0.034 H 
ATOM     12  H10 <0> d          -0.788  -2.437   0.804  0.00  0.00     0.034 H 
ATOM     13  H11 <0> d          -3.165  -2.381   1.207  0.00  0.00     0.039 H 
ATOM     14  H12 <0> d          -2.885  -3.640  -0.018  0.00  0.00     0.039 H 
ENDROOT
BRANCH   4  15
ATOM     15  C8  <0> d           0.002  -0.004   0.002  0.00  0.00    -0.033 C 
ATOM     16  H2  <0> d           0.512  -0.356  -0.895  0.00  0.00     0.043 H 
BRANCH  15  17
ATOM     17  C9  <0> d          -0.019   1.526   0.010  0.00  0.00    -0.071 C 
ATOM     18  H13 <0> d           1.004   1.903   0.003  0.00  0.00     0.028 H 
ATOM     19  H14 <0> d          -0.546   1.887  -0.873  0.00  0.00     0.028 H 
ATOM     20  H15 <0> d          -0.529   1.877   0.907  0.00  0.00     0.028 H 
ENDBRANCH  15  17
BRANCH  15  21
ATOM     21  C10 <0> d           0.742  -0.511   1.242  0.00  0.00     0.020 C 
ATOM     22  H16 <0> d           0.285  -0.087   2.136  0.00  0.00     0.074 H 
ATOM     23  H17 <0> d           0.680  -1.598   1.282  0.00  0.00     0.074 H 
BRANCH  21  24
ATOM     24  O1  <0> d           2.113  -0.114   1.173  0.00  0.00    -0.400 OA
ATOM     25  H18 <0> d           2.644  -0.402   1.929  0.00  0.00     0.209 HD
ENDBRANCH  21  24
ENDBRANCH  15  21
ENDBRANCH   4  15
BRANCH   1  26
ATOM     26  C1  <0> d          -5.133  -2.467  -1.013  0.00  0.00    -0.055 C 
ATOM     27  H3  <0> d          -5.687  -1.842  -1.713  0.00  0.00     0.033 H 
ATOM     28  H4  <0> d          -5.011  -3.465  -1.435  0.00  0.00     0.033 H 
ATOM     29  H5  <0> d          -5.680  -2.534  -0.073  0.00  0.00     0.033 H 
ENDBRANCH   1  26
TORSDOF 5
