REMARK  0 active torsions:
REMARK  status: ('A' for Active; 'I' for Inactive)
ROOT
ATOM      1  C1  <0> d           2.375   1.393  -0.012  0.00  0.00    -0.076 A 
ATOM      2  C2  <0> d           2.407   0.033  -0.020  0.00  0.00    -0.036 A 
ATOM      3  C3  <0> d           1.195  -0.684  -0.013  0.00  0.00     0.158 A 
ATOM      4  N1  <0> d           0.901  -1.974  -0.017  0.00  0.00    -0.130 NA
ATOM      5  N2  <0> d          -0.377  -2.123  -0.006  0.00  0.00    -0.143 NA
ATOM      6  C4  <0> d          -0.970  -0.958   0.006  0.00  0.00     0.095 A 
ATOM      7  N3  <0> d           0.002  -0.004   0.002  0.00  0.00    -0.277 N 
ATOM      8  C5  <0> d          -0.016   1.360   0.009  0.00  0.00     0.112 A 
ATOM      9  C6  <0> d           1.139   2.061   0.002  0.00  0.00    -0.045 A 
ATOM     10 Cl1  <0> d          -1.535   2.201   0.021  0.00  0.00    -0.064 Cl
ATOM     11  H1  <0> d           3.296   1.957  -0.018  0.00  0.00     0.083 H 
ATOM     12  H2  <0> d           3.351  -0.491  -0.032  0.00  0.00     0.089 H 
ATOM     13  H3  <0> d          -2.035  -0.783   0.017  0.00  0.00     0.147 H 
ATOM     14  H4  <0> d           1.112   3.141   0.008  0.00  0.00     0.088 H 
ENDROOT
TORSDOF 0
