REMARK  4 active torsions:
REMARK  status: ('A' for Active; 'I' for Inactive)
REMARK    1  A    between atoms: C1_1  and  C2_2 
REMARK    2  A    between atoms: C4_5  and  C6_9 
REMARK    3  A    between atoms: C5_6  and  N3_8 
REMARK    4  A    between atoms: C6_9  and  O1_10 
ROOT
ATOM      1  C2  <0> d           2.302   0.035  -0.020  0.00  0.00     0.124 A 
ATOM      2  N1  <0> d           1.168  -0.635  -0.013  0.00  0.00    -0.245 NA
ATOM      3  C3  <0> d           0.002  -0.004   0.002  0.00  0.00     0.016 A 
ATOM      4  C4  <0> d          -0.017   1.377   0.010  0.00  0.00     0.028 A 
ATOM      5  C5  <0> d           1.203   2.056   0.002  0.00  0.00     0.133 A 
ATOM      6  N2  <0> d           2.332   1.353  -0.013  0.00  0.00    -0.216 NA
ATOM      7  H4  <0> d          -0.922  -0.563   0.007  0.00  0.00     0.116 H 
ENDROOT
BRANCH   4   8
ATOM      8  C6  <0> d          -1.321   2.132   0.020  0.00  0.00     0.045 C 
ATOM      9  H7  <0> d          -1.374   2.754   0.914  0.00  0.00     0.081 H 
ATOM     10  H8  <0> d          -1.382   2.763  -0.866  0.00  0.00     0.081 H 
BRANCH   8  11
ATOM     11  O1  <0> d          -2.408   1.204   0.020  0.00  0.00    -0.396 OA
ATOM     12  H9  <0> d          -3.281   1.621   0.026  0.00  0.00     0.209 HD
ENDBRANCH   8  11
ENDBRANCH   4   8
BRANCH   5  13
ATOM     13  N3  <0> d           1.238   3.441   0.009  0.00  0.00    -0.383 N 
ATOM     14  H5  <0> d           0.410   3.947   0.019  0.00  0.00     0.157 HD
ATOM     15  H6  <0> d           2.089   3.905   0.003  0.00  0.00     0.157 HD
ENDBRANCH   5  13
BRANCH   1  16
ATOM     16  C1  <0> d           3.603  -0.726  -0.036  0.00  0.00    -0.019 C 
ATOM     17  H1  <0> d           3.907  -0.904  -1.068  0.00  0.00     0.037 H 
ATOM     18  H2  <0> d           4.371  -0.144   0.473  0.00  0.00     0.037 H 
ATOM     19  H3  <0> d           3.472  -1.680   0.474  0.00  0.00     0.037 H 
ENDBRANCH   1  16
TORSDOF 4
