REMARK  1 active torsions:
REMARK  status: ('A' for Active; 'I' for Inactive)
REMARK    1  A    between atoms: C6_9  and  O1_11 
ROOT
ATOM      1  C1  <0> d          -0.017   1.384   0.010  0.00  0.00    -0.078 A 
ATOM      2  C2  <0> d           1.157   2.102   0.002  0.00  0.00    -0.055 A 
ATOM      3  C3  <0> d           2.380   1.436  -0.013  0.00  0.00     0.064 A 
ATOM      4  C4  <0> d           2.409   0.029  -0.021  0.00  0.00     0.044 A 
ATOM      5  C5  <0> d           3.771  -0.355  -0.036  0.00  0.00     0.036 A 
ATOM      6  N1  <0> d           4.506   0.719  -0.038  0.00  0.00    -0.186 NA
ATOM      7  N2  <0> d           3.687   1.854  -0.024  0.00  0.00    -0.278 N 
ATOM      8  H1  <0> d           3.990   2.775  -0.022  0.00  0.00     0.189 HD
ATOM      9  C6  <0> d           1.200  -0.688  -0.013  0.00  0.00     0.079 A 
ATOM     10  C7  <0> d           0.002  -0.004   0.002  0.00  0.00    -0.050 A 
ATOM     11  H2  <0> d          -0.962   1.906   0.026  0.00  0.00     0.083 H 
ATOM     12  H3  <0> d           1.131   3.182   0.008  0.00  0.00     0.087 H 
ATOM     13  H4  <0> d           4.138  -1.371  -0.045  0.00  0.00     0.118 H 
ATOM     14  H5  <0> d          -0.928  -0.553   0.008  0.00  0.00     0.087 H 
ENDROOT
BRANCH   9  15
ATOM     15  O1  <0> d           1.212  -2.046  -0.020  0.00  0.00    -0.360 OA
ATOM     16  H6  <0> d           1.224  -2.444   0.861  0.00  0.00     0.217 HD
ENDBRANCH   9  15
TORSDOF 1
