REMARK  1 active torsions:
REMARK  status: ('A' for Active; 'I' for Inactive)
REMARK    1  A    between atoms: C5_6  and  C7_9 
REMARK       I    between atoms: C7_9  and  N1_11 
ROOT
ATOM      1  C1  <0> d          -0.729   1.579   1.266  0.00  0.00    -0.064 C 
ATOM      2  C2  <0> d          -0.013   1.086   0.008  0.00  0.00    -0.059 C 
ATOM      3  C3  <0> d          -0.754   1.594  -1.233  0.00  0.00    -0.009 C 
ATOM      4  C4  <0> d          -2.203   1.170  -1.134  0.00  0.00     0.140 C 
ATOM      5  O1  <0> d          -2.744   0.595  -2.048  0.00  0.00    -0.297 OA
ATOM      6  C5  <0> d          -2.958   1.486   0.138  0.00  0.00     0.081 C 
ATOM      7  H1  <0> d          -3.092   2.474   0.210  0.00  0.00     0.066 H 
ATOM      8  C6  <0> d          -2.136   0.982   1.329  0.00  0.00    -0.047 C 
ATOM      9  H2  <0> d          -0.165   1.274   2.147  0.00  0.00     0.033 H 
ATOM     10  H3  <0> d          -0.798   2.667   1.240  0.00  0.00     0.033 H 
ATOM     11  H4  <0> d           0.002  -0.004   0.002  0.00  0.00     0.033 H 
ATOM     12  H5  <0> d           1.010   1.463   0.000  0.00  0.00     0.033 H 
ATOM     13  H6  <0> d          -0.692   2.591  -1.274  0.00  0.00     0.044 H 
ATOM     14  H7  <0> d          -0.305   1.165  -2.129  0.00  0.00     0.044 H 
ATOM     15  H8  <0> d          -2.619   1.286   2.258  0.00  0.00     0.034 H 
ATOM     16  H9  <0> d          -2.071  -0.106   1.292  0.00  0.00     0.034 H 
ENDROOT
BRANCH   6  17
ATOM     17  C7  <0> d          -4.298   0.798   0.116  0.00  0.00     0.226 C 
ATOM     18  O2  <0> d          -4.581  -0.007   0.978  0.00  0.00    -0.273 OA
ATOM     19  N1  <0> d          -5.183   1.077  -0.862  0.00  0.00    -0.369 N 
ATOM     20  H10 <0> d          -4.956   1.721  -1.552  0.00  0.00     0.159 HD
ATOM     21  H11 <0> d          -6.045   0.634  -0.877  0.00  0.00     0.159 HD
ENDBRANCH   6  17
TORSDOF 1
