REMARK  3 active torsions:
REMARK  status: ('A' for Active; 'I' for Inactive)
REMARK    1  A    between atoms: C1_1  and  C2_2 
REMARK    2  A    between atoms: C2_2  and  O2_14 
REMARK    3  A    between atoms: C9_11  and  O1_13 
ROOT
ATOM      1  C2  <0> d           1.286   1.562  -0.002  0.00  0.00     0.078 C 
ATOM      2  C3  <0> d           2.062   1.181  -1.228  0.00  0.00    -0.074 C 
ATOM      3  C4  <0> d           2.392   2.004  -2.176  0.00  0.00    -0.097 C 
ATOM      4  C5  <0> d           2.019   3.473  -2.100  0.00  0.00    -0.013 C 
ATOM      5  H1  <0> d           2.024   3.971  -3.070  0.00  0.00     0.050 H 
ATOM      6  C6  <0> d           3.006   4.099  -1.079  0.00  0.00    -0.056 C 
ATOM      7  C7  <0> d           2.422   3.778   0.310  0.00  0.00    -0.056 C 
ATOM      8  C8  <0> d           1.072   3.077   0.064  0.00  0.00     0.004 C 
ATOM      9  H2  <0> d           0.336   3.346   0.822  0.00  0.00     0.049 H 
ATOM     10  C9  <0> d           0.656   3.538  -1.358  0.00  0.00     0.048 C 
ATOM     11  H3  <0> d          -0.064   2.849  -1.799  0.00  0.00     0.084 H 
ATOM     12  H7  <0> d           2.367   0.150  -1.329  0.00  0.00     0.081 H 
ATOM     13  H8  <0> d           2.941   1.638  -3.032  0.00  0.00     0.077 H 
ATOM     14  H9  <0> d           3.993   3.650  -1.185  0.00  0.00     0.034 H 
ATOM     15  H10 <0> d           3.064   5.178  -1.224  0.00  0.00     0.034 H 
ATOM     16  H11 <0> d           3.094   3.115   0.854  0.00  0.00     0.033 H 
ATOM     17  H12 <0> d           2.268   4.699   0.872  0.00  0.00     0.033 H 
ENDROOT
BRANCH   1  18
ATOM     18  C1  <0> d           2.057   1.109   1.240  0.00  0.00    -0.044 C 
ATOM     19  H4  <0> d           2.078   0.020   1.278  0.00  0.00     0.032 H 
ATOM     20  H5  <0> d           3.077   1.491   1.194  0.00  0.00     0.032 H 
ATOM     21  H6  <0> d           1.565   1.494   2.133  0.00  0.00     0.032 H 
ENDBRANCH   1  18
BRANCH   1  22
ATOM     22  O2  <0> d           0.016   0.909  -0.029  0.00  0.00    -0.386 OA
ATOM     23  H14 <0> d           0.070  -0.056  -0.059  0.00  0.00     0.211 HD
ENDBRANCH   1  22
BRANCH  10  24
ATOM     24  O1  <0> d           0.144   4.872  -1.338  0.00  0.00    -0.394 OA
ATOM     25  H13 <0> d          -0.029   5.240  -2.216  0.00  0.00     0.210 HD
ENDBRANCH  10  24
TORSDOF 3
