REMARK  3 active torsions:
REMARK  status: ('A' for Active; 'I' for Inactive)
REMARK    1  A    between atoms: C1_1  and  O1_2 
REMARK    2  A    between atoms: O1_2  and  C2_3 
REMARK    3  A    between atoms: C2_3  and  C3_5 
ROOT
ATOM      1  C3  <0> d          -0.013   1.086   0.008  0.00  0.00     0.122 C 
ATOM      2  H1  <0> d           0.002  -0.004   0.002  0.00  0.00     0.099 H 
ATOM      3  C4  <0> d          -0.692   1.593   1.298  0.00  0.00    -0.030 C 
ATOM      4  C5  <0> d           0.525   1.919   2.206  0.00  0.00    -0.042 C 
ATOM      5  C6  <0> d           1.552   2.412   1.155  0.00  0.00     0.021 C 
ATOM      6  O3  <0> d           1.328   1.590  -0.002  0.00  0.00    -0.376 OA
ATOM      7  H5  <0> d          -1.280   2.490   1.100  0.00  0.00     0.037 H 
ATOM      8  H6  <0> d          -1.310   0.814   1.743  0.00  0.00     0.037 H 
ATOM      9  H7  <0> d           0.884   1.026   2.717  0.00  0.00     0.036 H 
ATOM     10  H8  <0> d           0.284   2.707   2.919  0.00  0.00     0.036 H 
ATOM     11  H9  <0> d           2.568   2.275   1.525  0.00  0.00     0.074 H 
ATOM     12  H10 <0> d           1.374   3.460   0.914  0.00  0.00     0.074 H 
ENDROOT
BRANCH   1  13
ATOM     13  C2  <0> d          -0.759   1.593  -1.199  0.00  0.00     0.287 C 
ATOM     14  O2  <0> d          -0.224   2.365  -1.960  0.00  0.00    -0.262 OA
BRANCH  13  15
ATOM     15  O1  <0> d          -2.018   1.189  -1.429  0.00  0.00    -0.324 OA
BRANCH  15  16
ATOM     16  C1  <0> d          -2.675   1.719  -2.610  0.00  0.00     0.013 C 
ATOM     17  H2  <0> d          -2.725   2.805  -2.542  0.00  0.00     0.067 H 
ATOM     18  H3  <0> d          -2.110   1.435  -3.498  0.00  0.00     0.067 H 
ATOM     19  H4  <0> d          -3.685   1.313  -2.677  0.00  0.00     0.067 H 
ENDBRANCH  15  16
ENDBRANCH  13  15
ENDBRANCH   1  13
TORSDOF 3
