REMARK  3 active torsions:
REMARK  status: ('A' for Active; 'I' for Inactive)
REMARK    1  A    between atoms: C1_1  and  C2_2 
REMARK    2  A    between atoms: C2_2  and  C3_3 
REMARK    3  A    between atoms: C4_4  and  C5_5 
ROOT
ATOM      1  C2  <0> d           0.038  -2.650  -0.013  0.00  0.00    -0.012 C 
ATOM      2  H4  <0> d          -0.985  -3.027  -0.005  0.00  0.00     0.051 H 
ATOM      3  H5  <0> d           0.548  -3.001  -0.909  0.00  0.00     0.051 H 
ENDROOT
BRANCH   1   4
ATOM      4  C1  <0> d           0.778  -3.157   1.227  0.00  0.00    -0.067 C 
ATOM      5  H1  <0> d           0.793  -4.247   1.221  0.00  0.00     0.028 H 
ATOM      6  H2  <0> d           1.800  -2.779   1.219  0.00  0.00     0.028 H 
ATOM      7  H3  <0> d           0.268  -2.805   2.124  0.00  0.00     0.028 H 
ENDBRANCH   1   4
BRANCH   1   8
ATOM      8  C3  <0> d           0.018  -1.178  -0.004  0.00  0.00    -0.096 C 
ATOM      9  C4  <0> d           0.002  -0.004   0.002  0.00  0.00     0.005 C 
BRANCH   9  10
ATOM     10  C5  <0> d          -0.017   1.428   0.010  0.00  0.00     0.258 C 
ATOM     11  O1  <0> d           1.027   2.050   0.003  0.00  0.00    -0.637 OA
ATOM     12  O2  <0> d          -1.194   2.086   0.019  0.00  0.00    -0.637 OA
ENDBRANCH   9  10
ENDBRANCH   1   8
TORSDOF 3
