REMARK  5 active torsions:
REMARK  status: ('A' for Active; 'I' for Inactive)
REMARK    1  A    between atoms: C1_1  and  C2_2 
REMARK    2  A    between atoms: C6_7  and  C7_8 
REMARK    3  A    between atoms: C7_8  and  C8_9 
REMARK    4  A    between atoms: C8_9  and  C9_10 
REMARK    5  A    between atoms: C9_10  and  O1_11 
ROOT
ATOM      1  C2  <0> d          -0.018   1.503   0.010  0.00  0.00    -0.038 A 
ATOM      2  C3  <0> d           1.164   2.219   0.003  0.00  0.00     0.008 A 
ATOM      3  N1  <0> d           1.154   3.537   0.011  0.00  0.00    -0.273 NA
ATOM      4  C4  <0> d           0.027   4.222   0.025  0.00  0.00     0.002 A 
ATOM      5  C5  <0> d          -1.194   3.575   0.032  0.00  0.00    -0.059 A 
ATOM      6  C6  <0> d          -1.223   2.188   0.020  0.00  0.00    -0.049 A 
ATOM      7  H4  <0> d           2.107   1.692  -0.009  0.00  0.00     0.115 H 
ATOM      8  H5  <0> d           0.059   5.302   0.031  0.00  0.00     0.114 H 
ATOM      9  H6  <0> d          -2.113   4.141   0.044  0.00  0.00     0.086 H 
ENDROOT
BRANCH   6  10
ATOM     10  C7  <0> d          -2.534   1.445   0.022  0.00  0.00    -0.038 C 
ATOM     11  H7  <0> d          -3.312   2.078  -0.406  0.00  0.00     0.040 H 
ATOM     12  H8  <0> d          -2.437   0.536  -0.573  0.00  0.00     0.040 H 
BRANCH  10  13
ATOM     13  C8  <0> d          -2.909   1.076   1.458  0.00  0.00    -0.042 C 
ATOM     14  H9  <0> d          -2.131   0.443   1.886  0.00  0.00     0.036 H 
ATOM     15  H10 <0> d          -3.005   1.984   2.053  0.00  0.00     0.036 H 
BRANCH  13  16
ATOM     16  C9  <0> d          -4.239   0.321   1.461  0.00  0.00     0.017 C 
ATOM     17  H11 <0> d          -5.017   0.954   1.033  0.00  0.00     0.073 H 
ATOM     18  H12 <0> d          -4.143  -0.587   0.866  0.00  0.00     0.073 H 
BRANCH  16  19
ATOM     19  O1  <0> d          -4.590  -0.024   2.803  0.00  0.00    -0.401 OA
ATOM     20  H13 <0> d          -5.424  -0.506   2.880  0.00  0.00     0.209 HD
ENDBRANCH  16  19
ENDBRANCH  13  16
ENDBRANCH  10  13
ENDBRANCH   6  10
BRANCH   1  21
ATOM     21  C1  <0> d           0.002  -0.004   0.002  0.00  0.00    -0.049 C 
ATOM     22  H1  <0> d           0.017  -0.373   1.028  0.00  0.00     0.033 H 
ATOM     23  H2  <0> d          -0.888  -0.377  -0.505  0.00  0.00     0.033 H 
ATOM     24  H3  <0> d           0.892  -0.352  -0.522  0.00  0.00     0.033 H 
ENDBRANCH   1  21
TORSDOF 5
