REMARK  5 active torsions:
REMARK  status: ('A' for Active; 'I' for Inactive)
REMARK    1  A    between atoms: C1_1  and  C2_2 
REMARK    2  A    between atoms: C2_2  and  O1_3 
REMARK    3  A    between atoms: O1_3  and  C3_4 
REMARK    4  A    between atoms: C7_9  and  N2_10 
REMARK    5  A    between atoms: N2_10  and  C8_11 
ROOT
ATOM      1  C3  <0> d           0.002  -0.004   0.002  0.00  0.00     0.114 A 
ATOM      2  C4  <0> d          -0.017   1.383   0.010  0.00  0.00    -0.046 A 
ATOM      3  C5  <0> d           1.195   2.061   0.002  0.00  0.00    -0.063 A 
ATOM      4  C6  <0> d           2.373   1.342  -0.013  0.00  0.00     0.005 A 
ATOM      5  N1  <0> d           2.363   0.022  -0.020  0.00  0.00    -0.241 NA
ATOM      6  C7  <0> d           1.232  -0.664  -0.013  0.00  0.00     0.156 A 
ATOM      7  H6  <0> d          -0.952   1.923   0.017  0.00  0.00     0.088 H 
ATOM      8  H7  <0> d           1.215   3.141   0.007  0.00  0.00     0.085 H 
ATOM      9  H8  <0> d           3.317   1.867  -0.019  0.00  0.00     0.114 H 
ENDROOT
BRANCH   1  10
ATOM     10  O1  <0> d          -1.160  -0.710   0.010  0.00  0.00    -0.348 OA
BRANCH  10  11
ATOM     11  C2  <0> d          -2.376   0.041   0.026  0.00  0.00     0.023 C 
ATOM     12  H4  <0> d          -2.406   0.664   0.920  0.00  0.00     0.074 H 
ATOM     13  H5  <0> d          -2.423   0.674  -0.860  0.00  0.00     0.074 H 
BRANCH  11  14
ATOM     14  C1  <0> d          -3.568  -0.918   0.033  0.00  0.00    -0.056 C 
ATOM     15  H1  <0> d          -3.538  -1.541  -0.861  0.00  0.00     0.030 H 
ATOM     16  H2  <0> d          -3.520  -1.550   0.919  0.00  0.00     0.030 H 
ATOM     17  H3  <0> d          -4.495  -0.344   0.045  0.00  0.00     0.030 H 
ENDBRANCH  11  14
ENDBRANCH  10  11
ENDBRANCH   1  10
BRANCH   6  18
ATOM     18  N2  <0> d           1.268  -2.056  -0.021  0.00  0.00    -0.377 N 
ATOM     19  H9  <0> d           0.441  -2.563  -0.016  0.00  0.00     0.160 HD
BRANCH  18  20
ATOM     20  C8  <0> d           2.555  -2.755  -0.037  0.00  0.00    -0.019 C 
ATOM     21  H10 <0> d           2.385  -3.832  -0.041  0.00  0.00     0.056 H 
ATOM     22  H11 <0> d           3.111  -2.472  -0.931  0.00  0.00     0.056 H 
ATOM     23  H12 <0> d           3.128  -2.482   0.849  0.00  0.00     0.056 H 
ENDBRANCH  18  20
ENDBRANCH   6  18
TORSDOF 5
