REMARK  1 active torsions:
REMARK  status: ('A' for Active; 'I' for Inactive)
REMARK    1  A    between atoms: C3_4  and  O2_9 
ROOT
ATOM      1  C1  <0> d           2.331   3.550  -0.944  0.00  0.00    -0.008 C 
ATOM      2  C2  <0> d           3.015   2.228  -1.358  0.00  0.00     0.026 C 
ATOM      3  O1  <0> d           1.989   1.220  -1.216  0.00  0.00    -0.358 OA
ATOM      4  C3  <0> d           1.286   1.562  -0.002  0.00  0.00     0.162 C 
ATOM      5  H1  <0> d           1.857   1.242   0.870  0.00  0.00     0.133 H 
ATOM      6  C4  <0> d           1.168   3.102  -0.032  0.00  0.00     0.164 C 
ATOM      7 Cl1  <0> d          -0.416   3.600  -0.735  0.00  0.00    -0.096 Cl
ATOM      8 Cl2  <0> d           1.366   3.783   1.626  0.00  0.00    -0.096 Cl
ATOM      9  H2  <0> d           1.948   4.073  -1.821  0.00  0.00     0.041 H 
ATOM     10  H3  <0> d           3.025   4.186  -0.394  0.00  0.00     0.041 H 
ATOM     11  H4  <0> d           3.353   2.284  -2.393  0.00  0.00     0.074 H 
ATOM     12  H5  <0> d           3.854   2.012  -0.696  0.00  0.00     0.074 H 
ENDROOT
BRANCH   4  13
ATOM     13  O2  <0> d          -0.011   0.963   0.007  0.00  0.00    -0.368 OA
ATOM     14  H6  <0> d           0.002  -0.004   0.002  0.00  0.00     0.212 HD
ENDBRANCH   4  13
TORSDOF 1
