REMARK  3 active torsions:
REMARK  status: ('A' for Active; 'I' for Inactive)
REMARK    1  A    between atoms: C1_1  and  C2_2 
REMARK    2  A    between atoms: C2_2  and  C3_3 
REMARK    3  A    between atoms: C4_4  and  C6_8 
ROOT
ATOM      1  C3  <0> d           0.707  -0.490  -1.238  0.00  0.00     0.097 A 
ATOM      2  C4  <0> d           2.051  -0.746  -1.375  0.00  0.00     0.092 A 
ATOM      3  C5  <0> d           2.159  -1.185  -2.775  0.00  0.00     0.048 A 
ATOM      4  N1  <0> d           0.949  -1.133  -3.246  0.00  0.00    -0.140 NA
ATOM      5  O1  <0> d           0.151  -0.763  -2.420  0.00  0.00    -0.217 OA
ATOM      6  H6  <0> d           3.054  -1.486  -3.300  0.00  0.00     0.119 H 
ENDROOT
BRANCH   1   7
ATOM      7  C2  <0> d           0.002  -0.004   0.002  0.00  0.00    -0.021 C 
ATOM      8  H4  <0> d           0.529  -0.365   0.885  0.00  0.00     0.042 H 
ATOM      9  H5  <0> d          -1.020  -0.381   0.010  0.00  0.00     0.042 H 
BRANCH   7  10
ATOM     10  C1  <0> d          -0.019   1.526   0.010  0.00  0.00    -0.071 C 
ATOM     11  H1  <0> d           1.004   1.903   0.003  0.00  0.00     0.028 H 
ATOM     12  H2  <0> d          -0.546   1.887  -0.873  0.00  0.00     0.028 H 
ATOM     13  H3  <0> d          -0.529   1.877   0.907  0.00  0.00     0.028 H 
ENDBRANCH   7  10
ENDBRANCH   1   7
BRANCH   2  14
ATOM     14  C6  <0> d           3.118  -0.613  -0.369  0.00  0.00     0.213 C 
ATOM     15  O2  <0> d           2.851  -0.232   0.754  0.00  0.00    -0.644 OA
ATOM     16  O3  <0> d           4.391  -0.914  -0.693  0.00  0.00    -0.644 OA
ENDBRANCH   2  14
TORSDOF 3
