REMARK  5 active torsions:
REMARK  status: ('A' for Active; 'I' for Inactive)
REMARK    1  A    between atoms: C3_3  and  C4_4 
REMARK       I    between atoms: C4_4  and  N1_6 
REMARK    2  A    between atoms: N1_6  and  C5_7 
REMARK    3  A    between atoms: C5_7  and  C6_8 
REMARK    4  A    between atoms: C6_8  and  C7_9 
REMARK    5  A    between atoms: C7_9  and  O2_10 
ROOT
ATOM      1  C4  <0> d          -0.014   1.209   0.009  0.00  0.00     0.221 C 
ATOM      2  O1  <0> d           0.002  -0.004   0.002  0.00  0.00    -0.273 OA
ATOM      3  N1  <0> d           1.143   1.898   0.001  0.00  0.00    -0.361 N 
ATOM      4  H6  <0> d           1.130   2.868   0.007  0.00  0.00     0.162 HD
ENDROOT
BRANCH   3   5
ATOM      5  C5  <0> d           2.422   1.183  -0.015  0.00  0.00    -0.003 C 
ATOM      6  H7  <0> d           2.497   0.553   0.871  0.00  0.00     0.064 H 
ATOM      7  H8  <0> d           2.480   0.562  -0.909  0.00  0.00     0.064 H 
BRANCH   5   8
ATOM      8  C6  <0> d           3.571   2.193  -0.020  0.00  0.00    -0.031 C 
ATOM      9  H9  <0> d           3.497   2.824  -0.906  0.00  0.00     0.038 H 
ATOM     10  H10 <0> d           3.514   2.814   0.874  0.00  0.00     0.038 H 
BRANCH   8  11
ATOM     11  C7  <0> d           4.907   1.446  -0.037  0.00  0.00     0.018 C 
ATOM     12  H11 <0> d           4.981   0.816   0.849  0.00  0.00     0.074 H 
ATOM     13  H12 <0> d           4.964   0.825  -0.931  0.00  0.00     0.074 H 
BRANCH  11  14
ATOM     14  O2  <0> d           5.980   2.389  -0.042  0.00  0.00    -0.401 OA
ATOM     15  H13 <0> d           6.858   1.986  -0.053  0.00  0.00     0.209 HD
ENDBRANCH  11  14
ENDBRANCH   8  11
ENDBRANCH   5   8
ENDBRANCH   3   5
BRANCH   1  16
ATOM     16  C3  <0> d          -1.330   1.944   0.019  0.00  0.00     0.024 A 
ATOM     17  C1  <0> d          -2.180   1.853   1.287  0.00  0.00    -0.053 A 
ATOM     18  C2  <0> d          -2.609   1.105   0.022  0.00  0.00    -0.053 A 
ATOM     19  H1  <0> d          -1.789   1.261   2.114  0.00  0.00     0.034 H 
ATOM     20  H2  <0> d          -2.757   2.733   1.571  0.00  0.00     0.034 H 
ATOM     21  H3  <0> d          -3.467   1.493  -0.525  0.00  0.00     0.034 H 
ATOM     22  H4  <0> d          -2.499   0.020   0.017  0.00  0.00     0.034 H 
ATOM     23  H5  <0> d          -1.346   2.885  -0.532  0.00  0.00     0.054 H 
ENDBRANCH   1  16
TORSDOF 5
