REMARK  2 active torsions:
REMARK  status: ('A' for Active; 'I' for Inactive)
REMARK    1  A    between atoms: C2_2  and  C3_3 
REMARK    2  A    between atoms: C4_4  and  C5_5 
ROOT
ATOM      1  C1  <0> d           5.503   5.929  -0.021  0.00  0.00    -0.141 C 
ATOM      2  C2  <0> d           4.511   5.302  -0.014  0.00  0.00    -0.026 C 
ATOM      3  H1  <0> d           6.433   6.517  -0.027  0.00  0.00     0.167 H 
ENDROOT
BRANCH   2   4
ATOM      4  C3  <0> d           3.347   4.566  -0.007  0.00  0.00    -0.010 C 
ATOM      5  C4  <0> d           2.355   3.939  -0.000  0.00  0.00    -0.053 C 
BRANCH   5   6
ATOM      6  C5  <0> d           1.144   3.174   0.008  0.00  0.00     0.021 A 
ATOM      7  C9  <0> d          -0.108   3.805   0.023  0.00  0.00    -0.048 A 
ATOM      8  C8  <0> d          -1.247   3.028   0.029  0.00  0.00     0.003 A 
ATOM      9  H5  <0> d          -0.178   4.882   0.028  0.00  0.00     0.087 H 
ATOM     10  N1  <0> d          -1.169   1.711   0.017  0.00  0.00    -0.273 NA
ATOM     11  H4  <0> d          -2.216   3.505   0.040  0.00  0.00     0.114 H 
ATOM     12  C7  <0> d          -0.013   1.076   0.008  0.00  0.00     0.003 A 
ATOM     13  C6  <0> d           1.177   1.772   0.000  0.00  0.00    -0.048 A 
ATOM     14  H3  <0> d           0.002  -0.004   0.002  0.00  0.00     0.114 H 
ATOM     15  H2  <0> d           2.120   1.245  -0.011  0.00  0.00     0.087 H 
ENDBRANCH   5   6
ENDBRANCH   2   4
TORSDOF 2
