REMARK  0 active torsions:
REMARK  status: ('A' for Active; 'I' for Inactive)
ROOT
ATOM      1  C1  <0> d          -0.017   1.379   0.010  0.00  0.00    -0.081 A 
ATOM      2  C2  <0> d           1.169   2.091   0.002  0.00  0.00    -0.081 A 
ATOM      3  C3  <0> d           2.382   1.427  -0.011  0.00  0.00    -0.055 A 
ATOM      4  C4  <0> d           2.411   0.042  -0.018  0.00  0.00     0.061 A 
ATOM      5  C5  <0> d           1.212  -0.674  -0.014  0.00  0.00     0.055 A 
ATOM      6  C6  <0> d           0.002  -0.004   0.002  0.00  0.00    -0.055 A 
ATOM      7  N1  <0> d           1.265  -2.075  -0.033  0.00  0.00    -0.379 N 
ATOM      8  C7  <0> d           2.416  -2.711  -0.690  0.00  0.00     0.067 C 
ATOM      9  C8  <0> d           3.670  -1.964  -0.315  0.00  0.00     0.239 C 
ATOM     10  O1  <0> d           4.730  -2.553  -0.274  0.00  0.00    -0.271 OA
ATOM     11  N2  <0> d           3.628  -0.649  -0.026  0.00  0.00    -0.324 N 
ATOM     12  H1  <0> d          -0.960   1.905   0.026  0.00  0.00     0.083 H 
ATOM     13  H2  <0> d           1.148   3.171   0.006  0.00  0.00     0.083 H 
ATOM     14  H3  <0> d           3.306   1.988  -0.017  0.00  0.00     0.087 H 
ATOM     15  H4  <0> d          -0.924  -0.559   0.009  0.00  0.00     0.087 H 
ATOM     16  H5  <0> d           0.563  -2.607   0.374  0.00  0.00     0.160 HD
ATOM     17  H6  <0> d           2.497  -3.747  -0.360  0.00  0.00     0.078 H 
ATOM     18  H7  <0> d           2.283  -2.680  -1.771  0.00  0.00     0.078 H 
ATOM     19  H8  <0> d           4.450  -0.176   0.180  0.00  0.00     0.169 HD
ENDROOT
TORSDOF 0
