REMARK  7 active torsions:
REMARK  status: ('A' for Active; 'I' for Inactive)
REMARK    1  A    between atoms: C1_1  and  C2_2 
REMARK    2  A    between atoms: C2_2  and  C3_3 
REMARK    3  A    between atoms: C3_3  and  C4_4 
REMARK    4  A    between atoms: C4_4  and  C5_6 
REMARK    5  A    between atoms: C4_4  and  O2_10 
REMARK    6  A    between atoms: C5_6  and  C6_7 
REMARK    7  A    between atoms: C6_7  and  C7_8 
ROOT
ATOM      1  C4  <0> d           1.472  -2.024  -0.023  0.00  0.00     0.036 C 
ATOM      2  H1  <0> d           0.896  -2.400   0.823  0.00  0.00     0.082 H 
ENDROOT
BRANCH   1   3
ATOM      3  C3  <0> d           2.917  -2.515   0.086  0.00  0.00    -0.041 C 
ATOM      4  H7  <0> d           3.471  -2.215  -0.803  0.00  0.00     0.036 H 
ATOM      5  H8  <0> d           3.383  -2.079   0.970  0.00  0.00     0.036 H 
BRANCH   3   6
ATOM      6  C2  <0> d           2.930  -4.041   0.203  0.00  0.00    -0.066 C 
ATOM      7  H5  <0> d           2.376  -4.341   1.093  0.00  0.00     0.032 H 
ATOM      8  H6  <0> d           2.464  -4.477  -0.680  0.00  0.00     0.032 H 
BRANCH   6   9
ATOM      9  C1  <0> d           4.375  -4.532   0.313  0.00  0.00    -0.076 C 
ATOM     10  H2  <0> d           4.841  -4.096   1.196  0.00  0.00     0.027 H 
ATOM     11  H3  <0> d           4.384  -5.619   0.396  0.00  0.00     0.027 H 
ATOM     12  H4  <0> d           4.929  -4.231  -0.576  0.00  0.00     0.027 H 
ENDBRANCH   6   9
ENDBRANCH   3   6
ENDBRANCH   1   3
BRANCH   1  13
ATOM     13  C5  <0> d           1.451  -0.494  -0.015  0.00  0.00    -0.032 C 
ATOM     14  H9  <0> d           1.952  -0.119  -0.907  0.00  0.00     0.037 H 
ATOM     15  H10 <0> d           1.969  -0.129   0.873  0.00  0.00     0.037 H 
BRANCH  13  16
ATOM     16  C6  <0> d           0.002  -0.004   0.002  0.00  0.00     0.018 C 
ATOM     17  H11 <0> d          -0.498  -0.379   0.895  0.00  0.00     0.049 H 
ATOM     18  H12 <0> d          -0.515  -0.370  -0.885  0.00  0.00     0.049 H 
BRANCH  16  19
ATOM     19  C7  <0> d          -0.018   1.503   0.010  0.00  0.00     0.172 C 
ATOM     20  O1  <0> d           1.020   2.121   0.004  0.00  0.00    -0.648 OA
ATOM     21  O3  <0> d          -1.190   2.158   0.019  0.00  0.00    -0.648 OA
ENDBRANCH  16  19
ENDBRANCH  13  16
ENDBRANCH   1  13
BRANCH   1  22
ATOM     22  O2  <0> d           0.897  -2.502  -1.241  0.00  0.00    -0.396 OA
ATOM     23  H13 <0> d           1.361  -2.206  -2.037  0.00  0.00     0.210 HD
ENDBRANCH   1  22
TORSDOF 7
