REMARK  5 active torsions:
REMARK  status: ('A' for Active; 'I' for Inactive)
REMARK    1  A    between atoms: C1_1  and  O1_2 
REMARK    2  A    between atoms: O1_2  and  C2_3 
REMARK    3  A    between atoms: C2_3  and  C3_4 
REMARK    4  A    between atoms: C4_6  and  N5_11 
REMARK    5  A    between atoms: C5_8  and  N4_10 
ROOT
ATOM      1  C3  <0> d           0.614  -2.074  -1.042  0.00  0.00     0.187 A 
ATOM      2  N1  <0> d           1.597  -2.721  -0.442  0.00  0.00    -0.044 NA
ATOM      3  C4  <0> d           1.565  -4.049  -0.352  0.00  0.00     0.737 A 
ATOM      4  N2  <0> d           0.547  -4.724  -0.875  0.00  0.00     0.129 NA
ATOM      5  C5  <0> d          -0.437  -4.070  -1.482  0.00  0.00     0.737 A 
ATOM      6  N3  <0> d          -0.400  -2.742  -1.564  0.00  0.00    -0.044 NA
ENDROOT
BRANCH   1   7
ATOM      7  C2  <0> d           0.652  -0.570  -1.138  0.00  0.00     0.076 C 
ATOM      8  H4  <0> d           0.134  -0.248  -2.053  0.00  0.00     0.086 H 
ATOM      9  H5  <0> d           1.698  -0.231  -1.170  0.00  0.00     0.086 H 
BRANCH   7  10
ATOM     10  O1  <0> d           0.002  -0.004   0.002  0.00  0.00    -0.388 OA
BRANCH  10  11
ATOM     11  C1  <0> d          -0.017   1.425   0.010  0.00  0.00     0.004 C 
ATOM     12  H1  <0> d          -0.532   1.780   0.915  0.00  0.00     0.066 H 
ATOM     13  H2  <0> d          -0.549   1.789  -0.881  0.00  0.00     0.066 H 
ATOM     14  H3  <0> d           1.015   1.806   0.002  0.00  0.00     0.066 H 
ENDBRANCH  10  11
ENDBRANCH   7  10
ENDBRANCH   1   7
BRANCH   5  15
ATOM     15  N4  <0> d          -1.496  -4.766  -2.028  0.00  0.00    -0.230 N 
ATOM     16  H6  <0> d          -2.311  -4.224  -2.530  0.00  0.00     0.174 HD
ATOM     17  H7  <0> d          -1.526  -5.864  -1.960  0.00  0.00     0.174 HD
ENDBRANCH   5  15
BRANCH   3  18
ATOM     18  N5  <0> d           2.589  -4.724   0.280  0.00  0.00    -0.230 N 
ATOM     19  H8  <0> d           2.562  -5.821   0.354  0.00  0.00     0.174 HD
ATOM     20  H9  <0> d           3.434  -4.164   0.709  0.00  0.00     0.174 HD
ENDBRANCH   3  18
TORSDOF 5
