REMARK  0 active torsions:
REMARK  status: ('A' for Active; 'I' for Inactive)
ROOT
ATOM      1  C1  <0> d           0.002  -0.004   0.002  0.00  0.00    -0.078 A 
ATOM      2  C2  <0> d           1.208  -0.681  -0.013  0.00  0.00    -0.055 A 
ATOM      3  C3  <0> d           2.399   0.029  -0.019  0.00  0.00     0.065 A 
ATOM      4  C4  <0> d           2.384   1.420  -0.013  0.00  0.00     0.133 A 
ATOM      5  C5  <0> d           1.170   2.092   0.002  0.00  0.00     0.151 A 
ATOM      6  C6  <0> d          -0.017   1.378   0.010  0.00  0.00    -0.043 A 
ATOM      7  F1  <0> d           1.145   3.443   0.010  0.00  0.00    -0.203 F 
ATOM      8  O1  <0> d           3.545   2.129  -0.026  0.00  0.00    -0.344 OA
ATOM      9  C7  <0> d           4.737   1.461   0.393  0.00  0.00     0.041 C 
ATOM     10  C8  <0> d           4.838   0.118  -0.345  0.00  0.00     0.013 C 
ATOM     11  N1  <0> d           3.625  -0.655  -0.029  0.00  0.00    -0.386 N 
ATOM     12  H1  <0> d          -0.926  -0.556   0.007  0.00  0.00     0.083 H 
ATOM     13  H2  <0> d           1.222  -1.761  -0.018  0.00  0.00     0.087 H 
ATOM     14  H3  <0> d          -0.960   1.903   0.017  0.00  0.00     0.088 H 
ATOM     15  H4  <0> d           5.604   2.076   0.153  0.00  0.00     0.077 H 
ATOM     16  H5  <0> d           4.699   1.285   1.468  0.00  0.00     0.077 H 
ATOM     17  H6  <0> d           4.897   0.291  -1.419  0.00  0.00     0.067 H 
ATOM     18  H7  <0> d           5.722  -0.423  -0.008  0.00  0.00     0.067 H 
ATOM     19  H8  <0> d           3.672  -1.604   0.167  0.00  0.00     0.159 HD
ENDROOT
TORSDOF 0
