REMARK  6 active torsions:
REMARK  status: ('A' for Active; 'I' for Inactive)
REMARK    1  A    between atoms: C1_1  and  C2_2 
REMARK    2  A    between atoms: C2_2  and  C3_3 
REMARK    3  A    between atoms: C2_2  and  C4_4 
REMARK    4  A    between atoms: C2_2  and  C7_8 
REMARK    5  A    between atoms: C4_4  and  C5_5 
REMARK    6  A    between atoms: C5_5  and  C6_6 
ROOT
ATOM      1  C2  <0> d          -3.814   1.677   0.029  0.00  0.00     0.042 C 
ENDROOT
BRANCH   1   2
ATOM      2  C1  <0> d          -3.901   2.548   1.284  0.00  0.00    -0.060 C 
ATOM      3  H1  <0> d          -3.082   3.268   1.284  0.00  0.00     0.029 H 
ATOM      4  H2  <0> d          -4.852   3.080   1.291  0.00  0.00     0.029 H 
ATOM      5  H3  <0> d          -3.831   1.918   2.170  0.00  0.00     0.029 H 
ENDBRANCH   1   2
BRANCH   1   6
ATOM      6  C3  <0> d          -3.913   2.562  -1.215  0.00  0.00    -0.060 C 
ATOM      7  H4  <0> d          -3.851   1.941  -2.108  0.00  0.00     0.029 H 
ATOM      8  H5  <0> d          -4.864   3.094  -1.207  0.00  0.00     0.029 H 
ATOM      9  H6  <0> d          -3.094   3.281  -1.215  0.00  0.00     0.029 H 
ENDBRANCH   1   6
BRANCH   1  10
ATOM     10  C4  <0> d          -2.479   0.930   0.019  0.00  0.00    -0.040 C 
ATOM     11  H7  <0> d          -2.417   0.309  -0.875  0.00  0.00     0.035 H 
ATOM     12  H8  <0> d          -2.408   0.299   0.905  0.00  0.00     0.035 H 
BRANCH  10  13
ATOM     13  C5  <0> d          -1.329   1.940   0.019  0.00  0.00     0.017 C 
ATOM     14  H9  <0> d          -1.391   2.561   0.913  0.00  0.00     0.049 H 
ATOM     15  H10 <0> d          -1.400   2.570  -0.867  0.00  0.00     0.049 H 
BRANCH  13  16
ATOM     16  C6  <0> d          -0.014   1.204   0.009  0.00  0.00     0.172 C 
ATOM     17  O1  <0> d           0.002  -0.004   0.002  0.00  0.00    -0.648 OA
ATOM     18  O3  <0> d           1.139   1.891   0.001  0.00  0.00    -0.648 OA
ENDBRANCH  13  16
ENDBRANCH  10  13
ENDBRANCH   1  10
BRANCH   1  19
ATOM     19  C7  <0> d          -4.946   0.682   0.029  0.00  0.00     0.181 C 
ATOM     20  O2  <0> d          -4.709  -0.503   0.022  0.00  0.00    -0.647 OA
ATOM     21  O4  <0> d          -6.218   1.112   0.038  0.00  0.00    -0.647 OA
ENDBRANCH   1  19
TORSDOF 6
