REMARK  6 active torsions:
REMARK  status: ('A' for Active; 'I' for Inactive)
REMARK    1  A    between atoms: C1_1  and  C2_2 
REMARK    2  A    between atoms: C2_2  and  C3_3 
REMARK    3  A    between atoms: C3_3  and  C4_5 
REMARK    4  A    between atoms: C3_3  and  O2_9 
REMARK    5  A    between atoms: C4_5  and  C5_7 
REMARK    6  A    between atoms: C5_7  and  C6_8 
ROOT
ATOM      1  C3  <0> d          -1.329   1.939   0.019  0.00  0.00     0.092 C 
ATOM      2  H1  <0> d          -1.265   2.729   0.629  0.00  0.00     0.095 H 
ENDROOT
BRANCH   1   3
ATOM      3  C2  <0> d          -1.659   2.414  -1.398  0.00  0.00    -0.038 C 
ATOM      4  H5  <0> d          -0.831   3.010  -1.783  0.00  0.00     0.036 H 
ATOM      5  H6  <0> d          -1.817   1.550  -2.043  0.00  0.00     0.036 H 
BRANCH   3   6
ATOM      6  C1  <0> d          -2.929   3.267  -1.367  0.00  0.00    -0.074 C 
ATOM      7  H2  <0> d          -3.757   2.672  -0.982  0.00  0.00     0.027 H 
ATOM      8  H3  <0> d          -2.771   4.131  -0.721  0.00  0.00     0.027 H 
ATOM      9  H4  <0> d          -3.164   3.606  -2.376  0.00  0.00     0.027 H 
ENDBRANCH   3   6
ENDBRANCH   1   3
BRANCH   1  10
ATOM     10  C4  <0> d          -0.014   1.203   0.009  0.00  0.00     0.154 C 
ATOM     11  O1  <0> d           0.002  -0.004   0.002  0.00  0.00    -0.295 OA
BRANCH  10  12
ATOM     12  C5  <0> d           1.280   1.975   0.000  0.00  0.00    -0.010 C 
ATOM     13  H7  <0> d           1.318   2.554  -0.813  0.00  0.00     0.043 H 
ATOM     14  H8  <0> d           1.338   2.597   0.893  0.00  0.00     0.043 H 
BRANCH  12  15
ATOM     15  C6  <0> d           2.457   0.996  -0.016  0.00  0.00    -0.070 C 
ATOM     16  H9  <0> d           2.416   0.364   0.871  0.00  0.00     0.028 H 
ATOM     17  H10 <0> d           2.399   0.374  -0.909  0.00  0.00     0.028 H 
ATOM     18  H11 <0> d           3.393   1.554  -0.022  0.00  0.00     0.028 H 
ENDBRANCH  12  15
ENDBRANCH  10  12
ENDBRANCH   1  10
BRANCH   1  19
ATOM     19  O2  <0> d          -2.361   1.064   0.480  0.00  0.00    -0.388 OA
ATOM     20  H12 <0> d          -2.480   0.275  -0.066  0.00  0.00     0.210 HD
ENDBRANCH   1  19
TORSDOF 6
