REMARK  3 active torsions:
REMARK  status: ('A' for Active; 'I' for Inactive)
REMARK    1  A    between atoms: C1_1  and  N1_2 
REMARK    2  A    between atoms: N1_2  and  C2_3 
REMARK    3  A    between atoms: N1_2  and  C3_4 
ROOT
ATOM      1  C3  <0> d          -0.000  -0.696  -1.211  0.00  0.00     0.035 A 
ATOM      2  C4  <0> d           0.013  -2.085  -1.220  0.00  0.00    -0.020 A 
ATOM      3  C5  <0> d           0.011  -2.768  -2.423  0.00  0.00     0.121 A 
ATOM      4  C6  <0> d          -0.004  -2.068  -3.618  0.00  0.00    -0.008 A 
ATOM      5  C7  <0> d          -0.016  -0.683  -3.611  0.00  0.00     0.121 A 
ATOM      6  C8  <0> d          -0.021   0.004  -2.411  0.00  0.00    -0.020 A 
ATOM      7  F1  <0> d          -0.029  -0.003  -4.779  0.00  0.00    -0.206 F 
ATOM      8  F2  <0> d           0.024  -4.119  -2.432  0.00  0.00    -0.206 F 
ATOM      9  H7  <0> d           0.025  -2.631  -0.288  0.00  0.00     0.091 H 
ATOM     10  H8  <0> d          -0.005  -2.603  -4.556  0.00  0.00     0.092 H 
ATOM     11  H9  <0> d          -0.036   1.084  -2.406  0.00  0.00     0.091 H 
ENDROOT
BRANCH   1  12
ATOM     12  N1  <0> d           0.002  -0.004   0.002  0.00  0.00    -0.389 N 
BRANCH  12  13
ATOM     13  C1  <0> d          -0.018   1.461   0.010  0.00  0.00    -0.019 C 
ATOM     14  H1  <0> d           1.005   1.838   0.002  0.00  0.00     0.056 H 
ATOM     15  H2  <0> d          -0.545   1.822  -0.873  0.00  0.00     0.056 H 
ATOM     16  H3  <0> d          -0.528   1.812   0.907  0.00  0.00     0.056 H 
ENDBRANCH  12  13
BRANCH  12  17
ATOM     17  C2  <0> d           0.024  -0.743   1.267  0.00  0.00    -0.019 C 
ATOM     18  H4  <0> d          -0.998  -0.941   1.590  0.00  0.00     0.056 H 
ATOM     19  H5  <0> d           0.550  -1.688   1.126  0.00  0.00     0.056 H 
ATOM     20  H6  <0> d           0.537  -0.151   2.025  0.00  0.00     0.056 H 
ENDBRANCH  12  17
ENDBRANCH   1  12
TORSDOF 3
