REMARK  1 active torsions:
REMARK  status: ('A' for Active; 'I' for Inactive)
REMARK    1  A    between atoms: C6_10  and  N3_11 
ROOT
ATOM      1  C1  <0> d          -0.018   1.506   0.010  0.00  0.00    -0.003 C 
ATOM      2  C2  <0> d           1.440   1.989  -0.001  0.00  0.00     0.025 C 
ATOM      3  O1  <0> d           2.172   1.302  -1.018  0.00  0.00    -0.386 OA
ATOM      4  C3  <0> d           2.454  -0.074  -0.726  0.00  0.00     0.049 C 
ATOM      5  C4  <0> d           1.154  -0.736  -0.339  0.00  0.00     0.037 A 
ATOM      6  C5  <0> d           0.002  -0.004   0.002  0.00  0.00     0.069 A 
ATOM      7  N1  <0> d          -0.948  -0.843   0.282  0.00  0.00    -0.177 NA
ATOM      8  N2  <0> d          -0.443  -2.145   0.134  0.00  0.00    -0.262 N 
ATOM      9  H1  <0> d          -0.936  -2.967   0.280  0.00  0.00     0.191 HD
ATOM     10  C6  <0> d           0.854  -2.050  -0.249  0.00  0.00     0.125 A 
ATOM     11  H2  <0> d          -0.520   1.865   0.909  0.00  0.00     0.045 H 
ATOM     12  H3  <0> d          -0.537   1.874  -0.875  0.00  0.00     0.045 H 
ATOM     13  H4  <0> d           1.465   3.061  -0.198  0.00  0.00     0.074 H 
ATOM     14  H5  <0> d           1.894   1.790   0.970  0.00  0.00     0.074 H 
ATOM     15  H6  <0> d           2.868  -0.561  -1.608  0.00  0.00     0.082 H 
ATOM     16  H7  <0> d           3.162  -0.139   0.100  0.00  0.00     0.082 H 
ENDROOT
BRANCH  10  17
ATOM     17  N3  <0> d           1.718  -3.112  -0.503  0.00  0.00    -0.384 N 
ATOM     18  H8  <0> d           2.633  -2.939  -0.774  0.00  0.00     0.157 HD
ATOM     19  H9  <0> d           1.405  -4.025  -0.410  0.00  0.00     0.157 HD
ENDBRANCH  10  17
TORSDOF 1
