REMARK  5 active torsions:
REMARK  status: ('A' for Active; 'I' for Inactive)
REMARK    1  A    between atoms: C1_1  and  O1_2 
REMARK    2  A    between atoms: O1_2  and  C2_3 
REMARK    3  A    between atoms: C5_6  and  N2_11 
REMARK    4  A    between atoms: C6_7  and  O2_9 
REMARK    5  A    between atoms: O2_9  and  C7_10 
ROOT
ATOM      1  C2  <0> d          -0.016   1.354   0.009  0.00  0.00     0.166 A 
ATOM      2  C3  <0> d           1.180   2.055   0.002  0.00  0.00    -0.030 A 
ATOM      3  C4  <0> d           1.155   3.440   0.009  0.00  0.00    -0.049 A 
ATOM      4  C5  <0> d          -0.080   4.080   0.025  0.00  0.00     0.079 A 
ATOM      5  C6  <0> d          -1.242   3.312   0.032  0.00  0.00     0.193 A 
ATOM      6  N1  <0> d          -1.176   1.991   0.018  0.00  0.00    -0.198 NA
ATOM      7  H4  <0> d           2.122   1.526  -0.010  0.00  0.00     0.090 H 
ATOM      8  H5  <0> d           2.072   4.010   0.004  0.00  0.00     0.087 H 
ENDROOT
BRANCH   1   9
ATOM      9  O1  <0> d           0.002  -0.004   0.002  0.00  0.00    -0.339 OA
BRANCH   9  10
ATOM     10  C1  <0> d          -1.262  -0.670   0.011  0.00  0.00     0.012 C 
ATOM     11  H1  <0> d          -1.815  -0.390   0.907  0.00  0.00     0.067 H 
ATOM     12  H2  <0> d          -1.832  -0.380  -0.873  0.00  0.00     0.067 H 
ATOM     13  H3  <0> d          -1.105  -1.749   0.003  0.00  0.00     0.067 H 
ENDBRANCH   9  10
ENDBRANCH   1   9
BRANCH   5  14
ATOM     14  O2  <0> d          -2.453   3.925   0.046  0.00  0.00    -0.338 OA
BRANCH  14  15
ATOM     15  C7  <0> d          -3.607   3.082   0.053  0.00  0.00     0.012 C 
ATOM     16  H6  <0> d          -4.506   3.697   0.064  0.00  0.00     0.067 H 
ATOM     17  H7  <0> d          -3.605   2.457  -0.841  0.00  0.00     0.067 H 
ATOM     18  H8  <0> d          -3.589   2.448   0.939  0.00  0.00     0.067 H 
ENDBRANCH  14  15
ENDBRANCH   5  14
BRANCH   4  19
ATOM     19  N2  <0> d          -0.154   5.481   0.033  0.00  0.00    -0.396 N 
ATOM     20  H9  <0> d           0.660   6.010   0.029  0.00  0.00     0.156 HD
ATOM     21  H10 <0> d          -1.018   5.921   0.044  0.00  0.00     0.156 HD
ENDBRANCH   4  19
TORSDOF 5
