REMARK  1 active torsions:
REMARK  status: ('A' for Active; 'I' for Inactive)
REMARK    1  A    between atoms: C3_3  and  C7_9 
ROOT
ATOM      1  C1  <0> d           0.118   5.191   0.029  0.00  0.00    -0.079 A 
ATOM      2  C2  <0> d           0.059   3.813   0.022  0.00  0.00    -0.063 A 
ATOM      3  C3  <0> d           1.238   3.065   0.007  0.00  0.00     0.082 A 
ATOM      4  C4  <0> d           2.474   3.721   0.004  0.00  0.00     0.171 A 
ATOM      5  C5  <0> d           2.518   5.105   0.005  0.00  0.00     0.155 A 
ATOM      6  C6  <0> d           1.342   5.836   0.021  0.00  0.00    -0.043 A 
ATOM      7  F1  <0> d           3.709   5.742  -0.002  0.00  0.00    -0.203 F 
ATOM      8  F2  <0> d           3.620   3.006  -0.005  0.00  0.00    -0.202 F 
ATOM      9  H1  <0> d          -0.795   5.769   0.041  0.00  0.00     0.083 H 
ATOM     10  H2  <0> d          -0.899   3.313   0.028  0.00  0.00     0.085 H 
ATOM     11  H3  <0> d           1.381   6.915   0.026  0.00  0.00     0.088 H 
ENDROOT
BRANCH   3  12
ATOM     12  C7  <0> d           1.181   1.591  -0.001  0.00  0.00     0.212 C 
ATOM     13  O1  <0> d           2.209   0.943  -0.014  0.00  0.00    -0.644 OA
ATOM     14  O2  <0> d          -0.011   0.963   0.007  0.00  0.00    -0.644 OA
ENDBRANCH   3  12
TORSDOF 1
