REMARK  5 active torsions:
REMARK  status: ('A' for Active; 'I' for Inactive)
REMARK    1  A    between atoms: C5_6  and  C6_7 
REMARK    2  A    between atoms: C6_7  and  C7_8 
REMARK    3  A    between atoms: C7_8  and  C8_9 
REMARK    4  A    between atoms: C8_9  and  C9_10 
REMARK    5  A    between atoms: C9_10  and  O1_11 
ROOT
ATOM      1  C6  <0> d          -0.729   1.579   1.267  0.00  0.00    -0.041 C 
ATOM      2  H5  <0> d          -0.744   2.669   1.273  0.00  0.00     0.040 H 
ATOM      3  H6  <0> d          -1.751   1.202   1.275  0.00  0.00     0.040 H 
ENDROOT
BRANCH   1   4
ATOM      4  C5  <0> d           0.000   1.080   2.488  0.00  0.00    -0.055 A 
ATOM      5  C1  <0> d          -0.335  -0.134   3.067  0.00  0.00    -0.060 A 
ATOM      6  C2  <0> d           0.358  -0.561   4.184  0.00  0.00     0.002 A 
ATOM      7  H1  <0> d          -1.125  -0.740   2.650  0.00  0.00     0.086 H 
ATOM      8  N1  <0> d           1.321   0.175   4.703  0.00  0.00    -0.273 NA
ATOM      9  H2  <0> d           0.106  -1.508   4.639  0.00  0.00     0.114 H 
ATOM     10  C3  <0> d           1.663   1.337   4.181  0.00  0.00     0.002 A 
ATOM     11  C4  <0> d           1.018   1.827   3.062  0.00  0.00    -0.060 A 
ATOM     12  H3  <0> d           2.457   1.912   4.634  0.00  0.00     0.114 H 
ATOM     13  H4  <0> d           1.302   2.779   2.639  0.00  0.00     0.086 H 
ENDBRANCH   1   4
BRANCH   1  14
ATOM     14  C7  <0> d          -0.013   1.086   0.008  0.00  0.00    -0.059 C 
ATOM     15  H7  <0> d           0.002  -0.004   0.002  0.00  0.00     0.033 H 
ATOM     16  H8  <0> d           1.010   1.463   0.000  0.00  0.00     0.033 H 
BRANCH  14  17
ATOM     17  C8  <0> d          -0.753   1.593  -1.232  0.00  0.00    -0.045 C 
ATOM     18  H9  <0> d          -1.775   1.215  -1.224  0.00  0.00     0.036 H 
ATOM     19  H10 <0> d          -0.767   2.683  -1.226  0.00  0.00     0.036 H 
BRANCH  17  20
ATOM     20  C9  <0> d          -0.037   1.099  -2.490  0.00  0.00     0.017 C 
ATOM     21  H11 <0> d           0.986   1.476  -2.498  0.00  0.00     0.073 H 
ATOM     22  H12 <0> d          -0.022   0.009  -2.496  0.00  0.00     0.073 H 
BRANCH  20  23
ATOM     23  O1  <0> d          -0.728   1.573  -3.648  0.00  0.00    -0.401 OA
ATOM     24  H13 <0> d          -0.328   1.297  -4.484  0.00  0.00     0.209 HD
ENDBRANCH  20  23
ENDBRANCH  17  20
ENDBRANCH  14  17
ENDBRANCH   1  14
TORSDOF 5
