REMARK  1 active torsions:
REMARK  status: ('A' for Active; 'I' for Inactive)
REMARK    1  A    between atoms: C3_3  and  C6_7 
ROOT
ATOM      1  C1  <0> d          -0.017   1.380   0.010  0.00  0.00    -0.065 A 
ATOM      2  C2  <0> d           0.002  -0.004   0.002  0.00  0.00    -0.067 A 
ATOM      3  C3  <0> d           1.243  -0.650  -0.013  0.00  0.00     0.027 A 
ATOM      4  C4  <0> d           2.405   0.122  -0.020  0.00  0.00     0.015 A 
ATOM      5  N1  <0> d           2.336   1.437  -0.013  0.00  0.00    -0.272 NA
ATOM      6  C5  <0> d           1.180   2.073   0.002  0.00  0.00     0.002 A 
ATOM      7  H2  <0> d          -0.956   1.913   0.017  0.00  0.00     0.085 H 
ATOM      8  H3  <0> d          -0.917  -0.571   0.008  0.00  0.00     0.085 H 
ATOM      9  H4  <0> d           3.370  -0.363  -0.032  0.00  0.00     0.116 H 
ATOM     10  H5  <0> d           1.168   3.153   0.007  0.00  0.00     0.114 H 
ENDROOT
BRANCH   3  11
ATOM     11  C6  <0> d           1.321  -2.127  -0.022  0.00  0.00     0.138 A 
ATOM     12  N3  <0> d           0.298  -2.953  -0.018  0.00  0.00    -0.241 NA
ATOM     13  C8  <0> d           0.747  -4.213  -0.029  0.00  0.00     0.019 A 
ATOM     14  C7  <0> d           2.096  -4.184  -0.041  0.00  0.00    -0.004 A 
ATOM     15  H7  <0> d           0.135  -5.102  -0.029  0.00  0.00     0.117 H 
ATOM     16  N2  <0> d           2.468  -2.866  -0.043  0.00  0.00    -0.349 N 
ATOM     17  H6  <0> d           2.756  -5.038  -0.052  0.00  0.00     0.113 H 
ATOM     18  H1  <0> d           3.403  -2.513  -0.057  0.00  0.00     0.167 HD
ENDBRANCH   3  11
TORSDOF 1
