REMARK  2 active torsions:
REMARK  status: ('A' for Active; 'I' for Inactive)
REMARK    1  A    between atoms: C8_8  and  C9_11 
REMARK    2  A    between atoms: C9_11  and  O1_12 
ROOT
ATOM      1  C1  <0> d          -0.017   1.362   0.009  0.00  0.00    -0.082 A 
ATOM      2  C2  <0> d           1.170   2.083   0.002  0.00  0.00    -0.081 A 
ATOM      3  C3  <0> d           2.386   1.436  -0.013  0.00  0.00    -0.056 A 
ATOM      4  C4  <0> d           2.428   0.046  -0.021  0.00  0.00     0.042 A 
ATOM      5  C5  <0> d           1.223  -0.681  -0.013  0.00  0.00    -0.007 A 
ATOM      6  C6  <0> d           0.002  -0.004   0.002  0.00  0.00    -0.071 A 
ATOM      7  C7  <0> d           1.604  -2.095  -0.025  0.00  0.00    -0.047 A 
ATOM      8  C8  <0> d           2.945  -2.141  -0.038  0.00  0.00     0.034 A 
ATOM      9  N1  <0> d           3.455  -0.871  -0.036  0.00  0.00    -0.357 N 
ATOM     10  H1  <0> d           4.399  -0.650  -0.044  0.00  0.00     0.166 HD
ATOM     11  H2  <0> d          -0.961   1.885   0.026  0.00  0.00     0.083 H 
ATOM     12  H3  <0> d           1.139   3.163   0.008  0.00  0.00     0.083 H 
ATOM     13  H4  <0> d           3.303   2.006  -0.020  0.00  0.00     0.086 H 
ATOM     14  H5  <0> d          -0.925  -0.559   0.008  0.00  0.00     0.084 H 
ATOM     15  H6  <0> d           0.932  -2.941  -0.022  0.00  0.00     0.088 H 
ENDROOT
BRANCH   8  16
ATOM     16  C9  <0> d           3.768  -3.404  -0.053  0.00  0.00     0.054 C 
ATOM     17  H7  <0> d           4.388  -3.422  -0.950  0.00  0.00     0.083 H 
ATOM     18  H8  <0> d           4.405  -3.433   0.830  0.00  0.00     0.083 H 
BRANCH  16  19
ATOM     19  O1  <0> d           2.899  -4.538  -0.051  0.00  0.00    -0.395 OA
ATOM     20  H9  <0> d           3.361  -5.388  -0.061  0.00  0.00     0.209 HD
ENDBRANCH  16  19
ENDBRANCH   8  16
TORSDOF 2
