REMARK  2 active torsions:
REMARK  status: ('A' for Active; 'I' for Inactive)
REMARK    1  A    between atoms: C1_1  and  C2_2 
REMARK       I    between atoms: N1_5  and  C7_8 
REMARK    2  A    between atoms: C7_8  and  C8_10 
ROOT
ATOM      1  C2  <0> d           0.002  -0.004   0.002  0.00  0.00    -0.055 C 
ATOM      2  C3  <0> d          -0.019   1.526   0.010  0.00  0.00    -0.047 C 
ATOM      3  C4  <0> d           1.420   2.052  -0.001  0.00  0.00    -0.002 C 
ATOM      4  N1  <0> d           2.151   1.453   1.124  0.00  0.00    -0.352 N 
ATOM      5  C5  <0> d           2.159  -0.010   1.262  0.00  0.00    -0.002 C 
ATOM      6  C6  <0> d           0.712  -0.513   1.258  0.00  0.00    -0.047 C 
ATOM      7  C7  <0> d           2.803   2.229   2.011  0.00  0.00     0.215 C 
ATOM      8  O1  <0> d           3.404   1.722   2.935  0.00  0.00    -0.274 OA
ATOM      9  H4  <0> d           0.533  -0.355  -0.883  0.00  0.00     0.039 H 
ATOM     10  H5  <0> d          -0.545   1.888  -0.873  0.00  0.00     0.035 H 
ATOM     11  H6  <0> d          -0.528   1.878   0.907  0.00  0.00     0.035 H 
ATOM     12  H7  <0> d           1.902   1.778  -0.939  0.00  0.00     0.064 H 
ATOM     13  H8  <0> d           1.413   3.137   0.105  0.00  0.00     0.064 H 
ATOM     14  H9  <0> d           2.640  -0.286   2.200  0.00  0.00     0.064 H 
ATOM     15  H10 <0> d           2.702  -0.453   0.427  0.00  0.00     0.064 H 
ATOM     16  H11 <0> d           0.196  -0.142   2.144  0.00  0.00     0.035 H 
ATOM     17  H12 <0> d           0.706  -1.603   1.264  0.00  0.00     0.035 H 
ENDROOT
BRANCH   7  18
ATOM     18  C8  <0> d           2.786   3.728   1.856  0.00  0.00    -0.003 C 
ATOM     19  H13 <0> d           1.934   4.140   2.398  0.00  0.00     0.040 H 
ATOM     20  H14 <0> d           3.709   4.146   2.259  0.00  0.00     0.040 H 
ATOM     21  H15 <0> d           2.703   3.983   0.800  0.00  0.00     0.040 H 
ENDBRANCH   7  18
BRANCH   1  22
ATOM     22  C1  <0> d          -1.433  -0.533  -0.022  0.00  0.00    -0.073 C 
ATOM     23  H1  <0> d          -1.939  -0.172  -0.917  0.00  0.00     0.028 H 
ATOM     24  H2  <0> d          -1.419  -1.623  -0.028  0.00  0.00     0.028 H 
ATOM     25  H3  <0> d          -1.965  -0.182   0.862  0.00  0.00     0.028 H 
ENDBRANCH   1  22
TORSDOF 2
