REMARK  1 active torsions:
REMARK  status: ('A' for Active; 'I' for Inactive)
REMARK    1  A    between atoms: N3_9  and  C7_10 
ROOT
ATOM      1  C1  <0> d           1.184   1.781   0.000  0.00  0.00    -0.081 A 
ATOM      2  C2  <0> d          -0.013   1.076   0.008  0.00  0.00    -0.081 A 
ATOM      3  C3  <0> d          -1.209   1.737   0.017  0.00  0.00    -0.053 A 
ATOM      4  C4  <0> d          -1.230   3.127   0.030  0.00  0.00     0.087 A 
ATOM      5  C5  <0> d          -0.022   3.847   0.022  0.00  0.00     0.109 A 
ATOM      6  C6  <0> d           1.191   3.145   0.007  0.00  0.00    -0.051 A 
ATOM      7  N1  <0> d          -0.328   5.160   0.032  0.00  0.00    -0.130 NA
ATOM      8  N2  <0> d          -1.604   5.321   0.044  0.00  0.00    -0.063 NA
ATOM      9  N3  <0> d          -2.233   4.067   0.044  0.00  0.00    -0.221 N 
ATOM     10  H1  <0> d           2.121   1.242  -0.011  0.00  0.00     0.083 H 
ATOM     11  H2  <0> d           0.002  -0.004   0.002  0.00  0.00     0.083 H 
ATOM     12  H3  <0> d          -2.135   1.181   0.019  0.00  0.00     0.087 H 
ATOM     13  H4  <0> d           2.127   3.682   0.001  0.00  0.00     0.087 H 
ENDROOT
BRANCH   9  14
ATOM     14  C7  <0> d          -3.675   3.810   0.056  0.00  0.00     0.139 C 
ATOM     15  F1  <0> d          -4.122   3.722   1.379  0.00  0.00    -0.232 F 
ATOM     16  H5  <0> d          -4.194   4.625  -0.449  0.00  0.00     0.118 H 
ATOM     17  H6  <0> d          -3.881   2.873  -0.460  0.00  0.00     0.118 H 
ENDBRANCH   9  14
TORSDOF 1
