REMARK  3 active torsions:
REMARK  status: ('A' for Active; 'I' for Inactive)
REMARK    1  A    between atoms: C1_1  and  O1_2 
REMARK    2  A    between atoms: O1_2  and  C2_3 
REMARK    3  A    between atoms: C4_5  and  N1_11 
ROOT
ATOM      1  C2  <0> d           1.213  -0.683  -0.014  0.00  0.00     0.109 A 
ATOM      2  C3  <0> d           2.405   0.025  -0.021  0.00  0.00    -0.019 A 
ATOM      3  C4  <0> d           2.385   1.412  -0.013  0.00  0.00     0.067 A 
ATOM      4  C5  <0> d           1.171   2.089   0.002  0.00  0.00     0.145 A 
ATOM      5  C6  <0> d          -0.017   1.380   0.010  0.00  0.00    -0.003 A 
ATOM      6  C7  <0> d           0.002  -0.004   0.002  0.00  0.00     0.152 A 
ATOM      7  F1  <0> d          -1.159  -0.695   0.009  0.00  0.00    -0.203 F 
ATOM      8  F2  <0> d           1.150   3.440   0.009  0.00  0.00    -0.204 F 
ATOM      9  H4  <0> d           3.347  -0.502  -0.033  0.00  0.00     0.091 H 
ATOM     10  H5  <0> d          -0.960   1.906   0.017  0.00  0.00     0.093 H 
ENDROOT
BRANCH   1  11
ATOM     11  O1  <0> d           1.230  -2.043  -0.021  0.00  0.00    -0.353 OA
BRANCH  11  12
ATOM     12  C1  <0> d           2.511  -2.676  -0.037  0.00  0.00     0.011 C 
ATOM     13  H1  <0> d           3.056  -2.371  -0.931  0.00  0.00     0.066 H 
ATOM     14  H2  <0> d           3.074  -2.381   0.849  0.00  0.00     0.066 H 
ATOM     15  H3  <0> d           2.382  -3.758  -0.042  0.00  0.00     0.066 H 
ENDBRANCH  11  12
ENDBRANCH   1  11
BRANCH   3  16
ATOM     16  N1  <0> d           3.587   2.130  -0.020  0.00  0.00    -0.397 N 
ATOM     17  H6  <0> d           4.434   1.657  -0.031  0.00  0.00     0.156 HD
ATOM     18  H7  <0> d           3.573   3.100  -0.015  0.00  0.00     0.156 HD
ENDBRANCH   3  16
TORSDOF 3
