REMARK  2 active torsions:
REMARK  status: ('A' for Active; 'I' for Inactive)
REMARK    1  A    between atoms: C1_1  and  C2_2 
REMARK    2  A    between atoms: C2_2  and  C6_7 
ROOT
ATOM      1  C2  <0> d           1.229  -0.474  -0.569  0.00  0.00     0.053 C 
ATOM      2  C3  <0> d           2.084   0.763  -0.920  0.00  0.00    -0.035 C 
ATOM      3  C4  <0> d           1.473   1.857  -0.002  0.00  0.00    -0.043 C 
ATOM      4  C5  <0> d          -0.017   1.432   0.010  0.00  0.00     0.021 C 
ATOM      5  O1  <0> d           0.002  -0.004   0.002  0.00  0.00    -0.381 OA
ATOM      6  H4  <0> d           3.132   0.593  -0.674  0.00  0.00     0.037 H 
ATOM      7  H5  <0> d           1.971   1.027  -1.971  0.00  0.00     0.037 H 
ATOM      8  H6  <0> d           1.595   2.849  -0.438  0.00  0.00     0.036 H 
ATOM      9  H7  <0> d           1.901   1.815   0.999  0.00  0.00     0.036 H 
ATOM     10  H8  <0> d          -0.525   1.809  -0.878  0.00  0.00     0.074 H 
ATOM     11  H9  <0> d          -0.508   1.799   0.911  0.00  0.00     0.074 H 
ENDROOT
BRANCH   1  12
ATOM     12  C1  <0> d           1.972  -1.348   0.444  0.00  0.00    -0.048 C 
ATOM     13  H1  <0> d           1.360  -2.215   0.692  0.00  0.00     0.031 H 
ATOM     14  H2  <0> d           2.916  -1.681   0.013  0.00  0.00     0.031 H 
ATOM     15  H3  <0> d           2.168  -0.770   1.347  0.00  0.00     0.031 H 
ENDBRANCH   1  12
BRANCH   1  16
ATOM     16  C6  <0> d           0.937  -1.279  -1.837  0.00  0.00    -0.048 C 
ATOM     17  H10 <0> d           0.400  -0.653  -2.549  0.00  0.00     0.031 H 
ATOM     18  H11 <0> d           1.875  -1.611  -2.280  0.00  0.00     0.031 H 
ATOM     19  H12 <0> d           0.327  -2.146  -1.584  0.00  0.00     0.031 H 
ENDBRANCH   1  16
TORSDOF 2
