REMARK  1 active torsions:
REMARK  status: ('A' for Active; 'I' for Inactive)
REMARK    1  A    between atoms: N2_9  and  O1_10 
ROOT
ATOM      1  C1  <0> d          -0.013   1.076   0.008  0.00  0.00    -0.081 A 
ATOM      2  C2  <0> d           1.183   1.781   0.000  0.00  0.00    -0.081 A 
ATOM      3  C3  <0> d           1.186   3.147   0.007  0.00  0.00    -0.052 A 
ATOM      4  C4  <0> d          -0.025   3.846   0.022  0.00  0.00     0.092 A 
ATOM      5  C5  <0> d          -1.235   3.132   0.030  0.00  0.00     0.087 A 
ATOM      6  C6  <0> d          -1.218   1.744   0.017  0.00  0.00    -0.053 A 
ATOM      7  N1  <0> d          -2.237   4.081   0.044  0.00  0.00    -0.239 NA
ATOM      8  C7  <0> d          -1.635   5.306   0.044  0.00  0.00     0.093 A 
ATOM      9  N2  <0> d          -0.342   5.167   0.031  0.00  0.00    -0.216 N 
ATOM     10  H1  <0> d           0.002  -0.004   0.002  0.00  0.00     0.083 H 
ATOM     11  H2  <0> d           2.120   1.245  -0.011  0.00  0.00     0.083 H 
ATOM     12  H3  <0> d           2.122   3.686  -0.000  0.00  0.00     0.087 H 
ATOM     13  H4  <0> d          -2.145   1.190   0.019  0.00  0.00     0.087 H 
ATOM     14  H5  <0> d          -2.156   6.252   0.054  0.00  0.00     0.147 H 
ENDROOT
BRANCH   9  15
ATOM     15  O1  <0> d           0.592   6.230   0.027  0.00  0.00    -0.281 OA
ATOM     16  H6  <0> d           0.240   7.272   0.035  0.00  0.00     0.245 HD
ENDBRANCH   9  15
TORSDOF 1
