REMARK  1 active torsions:
REMARK  status: ('A' for Active; 'I' for Inactive)
REMARK    1  A    between atoms: C3_5  and  N3_9 
ROOT
ATOM      1  C1  <0> d          -0.018   1.513   0.010  0.00  0.00     0.088 A 
ATOM      2  C2  <0> d           1.336   2.197   0.001  0.00  0.00     0.269 A 
ATOM      3  O1  <0> d           1.433   3.416   0.007  0.00  0.00    -0.270 OA
ATOM      4  N1  <0> d           2.405   1.423  -0.013  0.00  0.00    -0.026 NA
ATOM      5  C3  <0> d           2.318   0.098  -0.019  0.00  0.00     0.726 A 
ATOM      6  N2  <0> d           1.183  -0.594  -0.012  0.00  0.00    -0.026 NA
ATOM      7  C4  <0> d           0.002  -0.004   0.002  0.00  0.00     0.269 A 
ATOM      8  O2  <0> d          -1.033  -0.654   0.009  0.00  0.00    -0.270 OA
ATOM      9  H1  <0> d          -0.559   1.841   0.898  0.00  0.00     0.061 H 
ATOM     10  H2  <0> d          -0.576   1.851  -0.864  0.00  0.00     0.061 H 
ENDROOT
BRANCH   5  11
ATOM     11  N3  <0> d           3.486  -0.610  -0.035  0.00  0.00    -0.231 N 
ATOM     12  H3  <0> d           4.336  -0.143  -0.041  0.00  0.00     0.174 HD
ATOM     13  H4  <0> d           3.465  -1.580  -0.040  0.00  0.00     0.174 HD
ENDBRANCH   5  11
TORSDOF 1
