REMARK  5 active torsions:
REMARK  status: ('A' for Active; 'I' for Inactive)
REMARK    1  A    between atoms: C1_1  and  C2_2 
REMARK    2  A    between atoms: C6_6  and  C9_9 
REMARK    3  A    between atoms: C7_7  and  C8_8 
REMARK    4  A    between atoms: C9_9  and  C10_11 
REMARK    5  A    between atoms: C9_9  and  O1_12 
ROOT
ATOM      1  C2  <0> d           0.148  -2.082   1.182  0.00  0.00    -0.056 A 
ATOM      2  C3  <0> d           0.040  -2.768  -0.013  0.00  0.00    -0.077 A 
ATOM      3  C4  <0> d          -0.086  -2.072  -1.201  0.00  0.00    -0.082 A 
ATOM      4  C5  <0> d          -0.104  -0.690  -1.193  0.00  0.00    -0.074 A 
ATOM      5  C6  <0> d           0.002  -0.004   0.002  0.00  0.00    -0.024 A 
ATOM      6  C7  <0> d           0.133  -0.700   1.189  0.00  0.00    -0.047 A 
ATOM      7  H5  <0> d           0.054  -3.848  -0.019  0.00  0.00     0.084 H 
ATOM      8  H6  <0> d          -0.169  -2.608  -2.135  0.00  0.00     0.083 H 
ATOM      9  H7  <0> d          -0.202  -0.146  -2.121  0.00  0.00     0.084 H 
ENDROOT
BRANCH   5  10
ATOM     10  C9  <0> d          -0.018   1.503   0.010  0.00  0.00     0.058 C 
ATOM     11  H1  <0> d          -0.529   1.854   0.907  0.00  0.00     0.090 H 
BRANCH  10  12
ATOM     12  C10 <0> d           1.417   2.032  -0.001  0.00  0.00    -0.049 C 
ATOM     13  H11 <0> d           1.402   3.122   0.005  0.00  0.00     0.031 H 
ATOM     14  H12 <0> d           1.944   1.671   0.882  0.00  0.00     0.031 H 
ATOM     15  H13 <0> d           1.927   1.681  -0.897  0.00  0.00     0.031 H 
ENDBRANCH  10  12
BRANCH  10  16
ATOM     16  O1  <0> d          -0.710   1.976  -1.147  0.00  0.00    -0.391 OA
ATOM     17  H14 <0> d          -0.761   2.940  -1.208  0.00  0.00     0.210 HD
ENDBRANCH  10  16
ENDBRANCH   5  10
BRANCH   6  18
ATOM     18  C8  <0> d           0.255   0.048   2.492  0.00  0.00    -0.050 C 
ATOM     19  H8  <0> d          -0.738   0.214   2.910  0.00  0.00     0.033 H 
ATOM     20  H9  <0> d           0.851  -0.537   3.192  0.00  0.00     0.033 H 
ATOM     21  H10 <0> d           0.740   1.008   2.315  0.00  0.00     0.033 H 
ENDBRANCH   6  18
BRANCH   1  22
ATOM     22  C1  <0> d           0.285  -2.841   2.477  0.00  0.00    -0.051 C 
ATOM     23  H2  <0> d           1.341  -3.010   2.689  0.00  0.00     0.033 H 
ATOM     24  H3  <0> d          -0.160  -2.262   3.286  0.00  0.00     0.033 H 
ATOM     25  H4  <0> d          -0.227  -3.800   2.392  0.00  0.00     0.033 H 
ENDBRANCH   1  22
TORSDOF 5
