REMARK  4 active torsions:
REMARK  status: ('A' for Active; 'I' for Inactive)
REMARK    1  A    between atoms: C1_1  and  O1_2 
REMARK    2  A    between atoms: O1_2  and  C2_3 
REMARK    3  A    between atoms: C2_3  and  C3_4 
REMARK    4  A    between atoms: C3_4  and  N1_5 
REMARK       I    between atoms: N1_5  and  C4_6 
REMARK       I    between atoms: C4_6  and  N2_8 
ROOT
ATOM      1  C3  <0> d           2.422   1.186  -0.015  0.00  0.00     0.016 C 
ATOM      2  H6  <0> d           2.497   0.556   0.871  0.00  0.00     0.067 H 
ATOM      3  H7  <0> d           2.480   0.565  -0.909  0.00  0.00     0.067 H 
ENDROOT
BRANCH   1   4
ATOM      4  C2  <0> d           3.571   2.196  -0.020  0.00  0.00     0.034 C 
ATOM      5  H4  <0> d           4.519   1.667  -0.122  0.00  0.00     0.076 H 
ATOM      6  H5  <0> d           3.447   2.883  -0.857  0.00  0.00     0.076 H 
BRANCH   4   7
ATOM      7  O1  <0> d           3.565   2.932   1.205  0.00  0.00    -0.394 OA
BRANCH   7   8
ATOM      8  C1  <0> d           4.604   3.907   1.302  0.00  0.00     0.004 C 
ATOM      9  H1  <0> d           5.574   3.414   1.228  0.00  0.00     0.066 H 
ATOM     10  H2  <0> d           4.502   4.630   0.493  0.00  0.00     0.066 H 
ATOM     11  H3  <0> d           4.531   4.422   2.260  0.00  0.00     0.066 H 
ENDBRANCH   7   8
ENDBRANCH   4   7
ENDBRANCH   1   4
BRANCH   1  12
ATOM     12  N1  <0> d           1.143   1.901   0.001  0.00  0.00    -0.341 N 
ATOM     13  C4  <0> d          -0.014   1.212   0.009  0.00  0.00     0.313 C 
ATOM     14  O2  <0> d           0.002  -0.004   0.002  0.00  0.00    -0.248 OA
ATOM     15  N2  <0> d          -1.191   1.870   0.018  0.00  0.00    -0.352 N 
ATOM     16  H9  <0> d          -2.024   1.373   0.019  0.00  0.00     0.160 HD
ATOM     17  H10 <0> d          -1.204   2.840   0.023  0.00  0.00     0.160 HD
ATOM     18  H8  <0> d           1.130   2.871   0.007  0.00  0.00     0.164 HD
ENDBRANCH   1  12
TORSDOF 4
