REMARK  1 active torsions:
REMARK  status: ('A' for Active; 'I' for Inactive)
REMARK    1  A    between atoms: C4_4  and  C7_7 
ROOT
ATOM      1  C7  <0> d           1.423   1.615  -0.003  0.00  0.00     0.018 C 
ATOM      2  C8  <0> d           2.169   1.032   1.124  0.00  0.00     0.059 C 
ATOM      3  N1  <0> d           2.746   0.582   1.993  0.00  0.00    -0.197 NA
ATOM      4  H12 <0> d           1.909   1.336  -0.949  0.00  0.00     0.055 H 
ATOM      5  H13 <0> d           1.410   2.711   0.094  0.00  0.00     0.055 H 
ENDROOT
BRANCH   1   6
ATOM      6  C4  <0> d          -0.013   1.086   0.008  0.00  0.00    -0.043 C 
ATOM      7  C3  <0> d          -0.753   1.593  -1.232  0.00  0.00    -0.061 C 
ATOM      8  C2  <0> d          -2.188   1.063  -1.221  0.00  0.00    -0.065 C 
ATOM      9  H5  <0> d          -0.238   1.238  -2.136  0.00  0.00     0.033 H 
ATOM     10  H6  <0> d          -0.768   2.693  -1.225  0.00  0.00     0.033 H 
ATOM     11  C1  <0> d          -2.904   1.556   0.038  0.00  0.00    -0.065 C 
ATOM     12  H3  <0> d          -2.173  -0.037  -1.227  0.00  0.00     0.033 H 
ATOM     13  H4  <0> d          -2.720   1.427  -2.112  0.00  0.00     0.033 H 
ATOM     14  C6  <0> d          -2.164   1.050   1.278  0.00  0.00    -0.065 C 
ATOM     15  H1  <0> d          -3.936   1.176   0.046  0.00  0.00     0.033 H 
ATOM     16  H2  <0> d          -2.919   2.656   0.044  0.00  0.00     0.033 H 
ATOM     17  C5  <0> d          -0.729   1.579   1.267  0.00  0.00    -0.061 C 
ATOM     18  H10 <0> d          -2.679   1.405   2.183  0.00  0.00     0.033 H 
ATOM     19  H11 <0> d          -2.149  -0.050   1.272  0.00  0.00     0.033 H 
ATOM     20  H8  <0> d          -0.197   1.215   2.158  0.00  0.00     0.033 H 
ATOM     21  H9  <0> d          -0.744   2.679   1.273  0.00  0.00     0.033 H 
ATOM     22  H7  <0> d           0.002  -0.014   0.002  0.00  0.00     0.041 H 
ENDBRANCH   1   6
TORSDOF 1
