REMARK  7 active torsions:
REMARK  status: ('A' for Active; 'I' for Inactive)
REMARK    1  A    between atoms: C1_1  and  C2_2 
REMARK    2  A    between atoms: C2_2  and  C3_3 
REMARK    3  A    between atoms: C2_2  and  C4_4 
REMARK    4  A    between atoms: C2_2  and  C5_6 
REMARK    5  A    between atoms: C4_4  and  O1_5 
REMARK    6  A    between atoms: C5_6  and  C6_8 
REMARK    7  A    between atoms: C5_6  and  O3_11 
REMARK       I    between atoms: C6_8  and  N1_10 
ROOT
ATOM      1  C2  <0> d          -1.248   2.922   1.251  0.00  0.00     0.008 C 
ENDROOT
BRANCH   1   2
ATOM      2  C1  <0> d          -1.085   2.018   2.474  0.00  0.00    -0.065 C 
ATOM      3  H2  <0> d          -0.149   1.465   2.396  0.00  0.00     0.028 H 
ATOM      4  H3  <0> d          -1.072   2.628   3.378  0.00  0.00     0.028 H 
ATOM      5  H4  <0> d          -1.919   1.317   2.522  0.00  0.00     0.028 H 
ENDBRANCH   1   2
BRANCH   1   6
ATOM      6  C3  <0> d          -0.079   3.906   1.185  0.00  0.00    -0.065 C 
ATOM      7  H5  <0> d          -0.132   4.472   0.254  0.00  0.00     0.028 H 
ATOM      8  H6  <0> d          -0.133   4.592   2.030  0.00  0.00     0.028 H 
ATOM      9  H7  <0> d           0.862   3.356   1.223  0.00  0.00     0.028 H 
ENDBRANCH   1   6
BRANCH   1  10
ATOM     10  C4  <0> d          -2.562   3.699   1.362  0.00  0.00     0.026 C 
ATOM     11  H8  <0> d          -2.678   4.343   0.490  0.00  0.00     0.075 H 
ATOM     12  H9  <0> d          -3.396   2.998   1.409  0.00  0.00     0.075 H 
BRANCH  10  13
ATOM     13  O1  <0> d          -2.545   4.498   2.546  0.00  0.00    -0.400 OA
ATOM     14  H10 <0> d          -3.348   5.019   2.681  0.00  0.00     0.209 HD
ENDBRANCH  10  13
ENDBRANCH   1  10
BRANCH   1  15
ATOM     15  C5  <0> d          -1.267   2.066  -0.017  0.00  0.00     0.120 C 
ATOM     16  H1  <0> d          -1.286   2.715  -0.893  0.00  0.00     0.099 H 
BRANCH  15  17
ATOM     17  C6  <0> d          -0.033   1.202  -0.058  0.00  0.00     0.245 C 
ATOM     18  O2  <0> d          -0.129   0.002   0.089  0.00  0.00    -0.271 OA
ATOM     19  N1  <0> d           1.175   1.762  -0.263  0.00  0.00    -0.368 N 
ATOM     20  H11 <0> d           1.976   1.216  -0.221  0.00  0.00     0.159 HD
ATOM     21  H12 <0> d           1.244   2.711  -0.452  0.00  0.00     0.159 HD
ENDBRANCH  15  17
BRANCH  15  22
ATOM     22  O3  <0> d          -2.430   1.236  -0.014  0.00  0.00    -0.385 OA
ATOM     23  H13 <0> d          -2.480   0.632   0.739  0.00  0.00     0.210 HD
ENDBRANCH  15  22
ENDBRANCH   1  15
TORSDOF 7
