REMARK  1 active torsions:
REMARK  status: ('A' for Active; 'I' for Inactive)
REMARK    1  A    between atoms: C4_5  and  N3_7 
ROOT
ATOM      1  C1  <0> d          -0.016   1.319   0.009  0.00  0.00     0.059 A 
ATOM      2  C2  <0> d           1.187   2.012   0.002  0.00  0.00     0.152 A 
ATOM      3  C3  <0> d           2.369   1.286  -0.014  0.00  0.00     0.059 A 
ATOM      4  N1  <0> d           2.314  -0.036  -0.020  0.00  0.00    -0.072 NA
ATOM      5  C4  <0> d           1.149  -0.666  -0.013  0.00  0.00     0.719 A 
ATOM      6  N2  <0> d           0.002  -0.004   0.002  0.00  0.00    -0.072 NA
ATOM      7  F1  <0> d           1.206   3.362   0.008  0.00  0.00    -0.203 F 
ATOM      8  H1  <0> d          -0.955   1.853   0.026  0.00  0.00     0.120 H 
ATOM      9  H2  <0> d           3.322   1.793  -0.020  0.00  0.00     0.120 H 
ENDROOT
BRANCH   5  10
ATOM     10  N3  <0> d           1.130  -2.051  -0.020  0.00  0.00    -0.231 N 
ATOM     11  H3  <0> d           1.963  -2.548  -0.030  0.00  0.00     0.174 HD
ATOM     12  H4  <0> d           0.283  -2.525  -0.014  0.00  0.00     0.174 HD
ENDBRANCH   5  10
TORSDOF 1
