REMARK  2 active torsions:
REMARK  status: ('A' for Active; 'I' for Inactive)
REMARK    1  A    between atoms: C1_1  and  C2_2 
REMARK    2  A    between atoms: C2_2  and  C3_4 
ROOT
ATOM      1  C3  <0> d          -1.293  -0.775   0.010  0.00  0.00     0.003 C 
ATOM      2  C4  <0> d          -1.704  -1.158  -1.433  0.00  0.00    -0.055 C 
ATOM      3  C5  <0> d          -2.623  -2.385  -1.212  0.00  0.00    -0.064 C 
ATOM      4  C6  <0> d          -1.955  -3.154  -0.053  0.00  0.00    -0.064 C 
ATOM      5  C7  <0> d          -1.109  -2.131   0.724  0.00  0.00    -0.055 C 
ATOM      6  H4  <0> d          -2.079  -0.194   0.492  0.00  0.00     0.051 H 
ATOM      7  H5  <0> d          -2.254  -0.345  -1.907  0.00  0.00     0.034 H 
ATOM      8  H6  <0> d          -0.831  -1.432  -2.024  0.00  0.00     0.034 H 
ATOM      9  H7  <0> d          -3.626  -2.065  -0.929  0.00  0.00     0.033 H 
ATOM     10  H8  <0> d          -2.658  -3.003  -2.109  0.00  0.00     0.033 H 
ATOM     11  H9  <0> d          -2.717  -3.582   0.600  0.00  0.00     0.033 H 
ATOM     12  H10 <0> d          -1.316  -3.944  -0.449  0.00  0.00     0.033 H 
ATOM     13  H11 <0> d          -0.059  -2.423   0.706  0.00  0.00     0.034 H 
ATOM     14  H12 <0> d          -1.460  -2.061   1.754  0.00  0.00     0.034 H 
ENDROOT
BRANCH   1  15
ATOM     15  C2  <0> d           0.002  -0.004   0.002  0.00  0.00     0.127 C 
ATOM     16  O1  <0> d           1.056  -0.594  -0.011  0.00  0.00    -0.298 OA
BRANCH  15  17
ATOM     17  C1  <0> d          -0.018   1.503   0.010  0.00  0.00    -0.021 C 
ATOM     18  H1  <0> d           1.004   1.880   0.003  0.00  0.00     0.037 H 
ATOM     19  H2  <0> d          -0.545   1.864  -0.873  0.00  0.00     0.037 H 
ATOM     20  H3  <0> d          -0.529   1.854   0.907  0.00  0.00     0.037 H 
ENDBRANCH  15  17
ENDBRANCH   1  15
TORSDOF 2
