REMARK  1 active torsions:
REMARK  status: ('A' for Active; 'I' for Inactive)
REMARK    1  A    between atoms: C1_1  and  N1_2 
ROOT
ATOM      1  N1  <0> d          -0.721   1.571  -1.179  0.00  0.00    -0.271 N 
ATOM      2  C2  <0> d          -0.038   1.804  -2.317  0.00  0.00     0.255 A 
ATOM      3  O1  <0> d           1.165   1.613  -2.361  0.00  0.00    -0.268 OA
ATOM      4  C3  <0> d          -0.723   2.270  -3.454  0.00  0.00     0.035 A 
ATOM      5  C4  <0> d          -2.068   2.475  -3.379  0.00  0.00     0.188 A 
ATOM      6  N2  <0> d          -2.725   2.225  -2.200  0.00  0.00    -0.286 N 
ATOM      7  C5  <0> d          -2.050   1.775  -1.126  0.00  0.00     0.331 A 
ATOM      8  O2  <0> d          -2.650   1.554  -0.092  0.00  0.00    -0.246 OA
ATOM      9  O3  <0> d          -2.749   2.922  -4.455  0.00  0.00    -0.172 OA
ATOM     10  H4  <0> d          -3.682   2.370  -2.142  0.00  0.00     0.172 HD
ATOM     11  H5  <0> d          -0.190   2.462  -4.373  0.00  0.00     0.099 H 
ENDROOT
BRANCH   1  12
ATOM     12  C1  <0> d          -0.013   1.086   0.008  0.00  0.00    -0.007 C 
ATOM     13  H1  <0> d           0.002  -0.004   0.002  0.00  0.00     0.057 H 
ATOM     14  H2  <0> d           1.010   1.463   0.000  0.00  0.00     0.057 H 
ATOM     15  H3  <0> d          -0.523   1.437   0.905  0.00  0.00     0.057 H 
ENDBRANCH   1  12
TORSDOF 1
