REMARK  2 active torsions:
REMARK  status: ('A' for Active; 'I' for Inactive)
REMARK    1  A    between atoms: C3_3  and  C8_11 
REMARK    2  A    between atoms: C8_11  and  O1_12 
ROOT
ATOM      1  C1  <0> d           1.160   1.776   0.001  0.00  0.00    -0.080 A 
ATOM      2  C2  <0> d           1.159   3.166   0.008  0.00  0.00    -0.074 A 
ATOM      3  C3  <0> d          -0.015   3.860   0.023  0.00  0.00    -0.021 A 
ATOM      4  C4  <0> d          -1.230   3.166   0.031  0.00  0.00     0.020 A 
ATOM      5  C5  <0> d          -2.631   3.572   0.046  0.00  0.00     0.034 A 
ATOM      6  N1  <0> d          -3.359   2.493   0.048  0.00  0.00    -0.186 NA
ATOM      7  N2  <0> d          -2.539   1.360   0.034  0.00  0.00    -0.278 N 
ATOM      8  H1  <0> d          -2.987   0.356   0.037  0.00  0.00     0.189 HD
ATOM      9  C6  <0> d          -1.227   1.757   0.017  0.00  0.00     0.062 A 
ATOM     10  C7  <0> d          -0.013   1.076   0.008  0.00  0.00    -0.055 A 
ATOM     11  H2  <0> d           2.099   1.244  -0.012  0.00  0.00     0.083 H 
ATOM     12  H3  <0> d           2.097   3.701   0.002  0.00  0.00     0.084 H 
ATOM     13  H4  <0> d          -2.999   4.588   0.055  0.00  0.00     0.118 H 
ATOM     14  H5  <0> d           0.002  -0.004   0.002  0.00  0.00     0.087 H 
ENDROOT
BRANCH   3  15
ATOM     15  C8  <0> d          -0.005   5.367   0.032  0.00  0.00     0.041 C 
ATOM     16  H6  <0> d          -0.529   5.743  -0.860  0.00  0.00     0.081 H 
ATOM     17  H7  <0> d          -0.512   5.732   0.937  0.00  0.00     0.081 H 
BRANCH  15  18
ATOM     18  O1  <0> d           1.346   5.834   0.022  0.00  0.00    -0.396 OA
ATOM     19  H8  <0> d           1.555   6.914   0.026  0.00  0.00     0.209 HD
ENDBRANCH  15  18
ENDBRANCH   3  15
TORSDOF 2
