REMARK  0 active torsions:
REMARK  status: ('A' for Active; 'I' for Inactive)
ROOT
ATOM      1  C1  <0> d          -0.017   1.381   0.010  0.00  0.00    -0.043 A 
ATOM      2  C2  <0> d           1.167   2.094   0.002  0.00  0.00    -0.045 A 
ATOM      3  C3  <0> d           2.379   1.423  -0.013  0.00  0.00     0.107 A 
ATOM      4  C4  <0> d           2.398   0.028  -0.021  0.00  0.00     0.073 A 
ATOM      5  C5  <0> d           1.208  -0.682  -0.014  0.00  0.00    -0.017 A 
ATOM      6  C6  <0> d           0.002  -0.004   0.002  0.00  0.00     0.118 A 
ATOM      7  F1  <0> d          -1.159  -0.694   0.010  0.00  0.00    -0.206 F 
ATOM      8  N1  <0> d           3.739  -0.352  -0.036  0.00  0.00    -0.300 N 
ATOM      9  H1  <0> d           4.078  -1.261  -0.044  0.00  0.00     0.171 HD
ATOM     10  C7  <0> d           4.480   0.774  -0.037  0.00  0.00     0.370 A 
ATOM     11  O1  <0> d           5.695   0.816  -0.049  0.00  0.00    -0.238 OA
ATOM     12  O2  <0> d           3.668   1.843  -0.023  0.00  0.00    -0.259 OA
ATOM     13  H2  <0> d          -0.961   1.906   0.026  0.00  0.00     0.088 H 
ATOM     14  H3  <0> d           1.147   3.174   0.008  0.00  0.00     0.088 H 
ATOM     15  H4  <0> d           1.222  -1.762  -0.020  0.00  0.00     0.091 H 
ENDROOT
TORSDOF 0
