REMARK  0 active torsions:
REMARK  status: ('A' for Active; 'I' for Inactive)
ROOT
ATOM      1  C1  <0> d          -0.016   1.301   0.009  0.00  0.00     0.031 A 
ATOM      2  C2  <0> d           1.193   1.990   0.001  0.00  0.00     0.070 A 
ATOM      3  C3  <0> d           2.333   1.199  -0.014  0.00  0.00    -0.005 A 
ATOM      4  S1  <0> d           1.663  -0.399  -0.016  0.00  0.00     0.000 SA
ATOM      5  N1  <0> d           0.002  -0.004   0.002  0.00  0.00    -0.223 NA
ATOM      6  C4  <0> d           1.257   3.420   0.008  0.00  0.00     0.101 C 
ATOM      7  N2  <0> d           1.308   4.555   0.013  0.00  0.00    -0.191 NA
ATOM      8  H1  <0> d          -0.953   1.837   0.017  0.00  0.00     0.118 H 
ATOM      9  H2  <0> d           3.369   1.501  -0.022  0.00  0.00     0.099 H 
ENDROOT
TORSDOF 0
