REMARK  8 active torsions:
REMARK  status: ('A' for Active; 'I' for Inactive)
REMARK    1  A    between atoms: C1_1  and  C2_2 
REMARK    2  A    between atoms: C2_2  and  C3_3 
REMARK    3  A    between atoms: C3_3  and  C4_4 
REMARK    4  A    between atoms: C4_4  and  C5_5 
REMARK    5  A    between atoms: C5_5  and  N1_6 
REMARK       I    between atoms: N1_6  and  C6_7 
REMARK    6  A    between atoms: C6_7  and  C7_9 
REMARK    7  A    between atoms: C7_9  and  C8_11 
REMARK    8  A    between atoms: C7_9  and  O2_12 
ROOT
ATOM      1  C5  <0> d           1.248   1.716  -0.001  0.00  0.00    -0.005 C 
ATOM      2  H11 <0> d           1.288   2.348  -0.888  0.00  0.00     0.064 H 
ATOM      3  H12 <0> d           1.305   2.338   0.892  0.00  0.00     0.064 H 
ENDROOT
BRANCH   1   4
ATOM      4  C4  <0> d           2.424   0.737  -0.017  0.00  0.00    -0.050 C 
ATOM      5  H9  <0> d           2.383   0.105   0.870  0.00  0.00     0.035 H 
ATOM      6  H10 <0> d           2.366   0.115  -0.910  0.00  0.00     0.035 H 
BRANCH   4   7
ATOM      7  C3  <0> d           3.738   1.520  -0.025  0.00  0.00    -0.064 C 
ATOM      8  H7  <0> d           3.779   2.152  -0.912  0.00  0.00     0.033 H 
ATOM      9  H8  <0> d           3.796   2.143   0.867  0.00  0.00     0.033 H 
BRANCH   7  10
ATOM     10  C2  <0> d           4.915   0.542  -0.042  0.00  0.00    -0.068 C 
ATOM     11  H5  <0> d           4.874  -0.090   0.845  0.00  0.00     0.032 H 
ATOM     12  H6  <0> d           4.857  -0.081  -0.935  0.00  0.00     0.032 H 
BRANCH  10  13
ATOM     13  C1  <0> d           6.229   1.325  -0.050  0.00  0.00    -0.077 C 
ATOM     14  H2  <0> d           7.067   0.628  -0.062  0.00  0.00     0.027 H 
ATOM     15  H3  <0> d           6.270   1.957  -0.937  0.00  0.00     0.027 H 
ATOM     16  H4  <0> d           6.287   1.947   0.843  0.00  0.00     0.027 H 
ENDBRANCH  10  13
ENDBRANCH   7  10
ENDBRANCH   4   7
ENDBRANCH   1   4
BRANCH   1  17
ATOM     17  N1  <0> d          -0.011   0.966   0.007  0.00  0.00    -0.359 N 
ATOM     18  C6  <0> d          -1.187   1.624   0.017  0.00  0.00     0.246 C 
ATOM     19  O1  <0> d          -1.204   2.837   0.023  0.00  0.00    -0.271 OA
ATOM     20  H13 <0> d           0.002  -0.004   0.002  0.00  0.00     0.162 HD
BRANCH  18  21
ATOM     21  C7  <0> d          -2.482   0.853   0.018  0.00  0.00     0.108 C 
ATOM     22  H1  <0> d          -2.497   0.165  -0.827  0.00  0.00     0.097 H 
BRANCH  21  23
ATOM     23  C8  <0> d          -2.602   0.061   1.322  0.00  0.00    -0.044 C 
ATOM     24  H14 <0> d          -3.538  -0.497   1.323  0.00  0.00     0.031 H 
ATOM     25  H15 <0> d          -1.766  -0.633   1.404  0.00  0.00     0.031 H 
ATOM     26  H16 <0> d          -2.587   0.749   2.168  0.00  0.00     0.031 H 
ENDBRANCH  21  23
BRANCH  21  27
ATOM     27  O2  <0> d          -3.579   1.763  -0.089  0.00  0.00    -0.387 OA
ATOM     28  H17 <0> d          -4.446   1.335  -0.094  0.00  0.00     0.210 HD
ENDBRANCH  21  27
ENDBRANCH  18  21
ENDBRANCH   1  17
TORSDOF 8
