REMARK  1 active torsions:
REMARK  status: ('A' for Active; 'I' for Inactive)
REMARK    1  A    between atoms: C4_4  and  C6_6 
ROOT
ATOM      1  C6  <0> d          -2.509   1.349   0.020  0.00  0.00     0.038 C 
ATOM      2  C7  <0> d          -3.007   1.292   1.404  0.00  0.00     0.063 C 
ATOM      3  N1  <0> d          -3.390   1.248   2.472  0.00  0.00    -0.197 NA
ATOM      4  H6  <0> d          -3.135   2.025  -0.564  0.00  0.00     0.062 H 
ATOM      5  H7  <0> d          -2.543   0.352  -0.420  0.00  0.00     0.062 H 
ENDROOT
BRANCH   1   6
ATOM      6  C4  <0> d          -1.089   1.853   0.017  0.00  0.00    -0.049 A 
ATOM      7  C3  <0> d          -0.706   3.266   0.026  0.00  0.00    -0.080 A 
ATOM      8  C2  <0> d           0.616   3.393   0.014  0.00  0.00    -0.099 A 
ATOM      9  H4  <0> d          -1.402   4.092   0.037  0.00  0.00     0.083 H 
ATOM     10  C1  <0> d           1.189   1.994   0.001  0.00  0.00    -0.034 A 
ATOM     11  H3  <0> d           1.174   4.318   0.014  0.00  0.00     0.077 H 
ATOM     12  C5  <0> d          -0.013   1.076   0.008  0.00  0.00    -0.093 A 
ATOM     13  H1  <0> d           1.799   1.826   0.890  0.00  0.00     0.044 H 
ATOM     14  H2  <0> d           1.782   1.835  -0.899  0.00  0.00     0.044 H 
ATOM     15  H5  <0> d           0.002  -0.004   0.002  0.00  0.00     0.078 H 
ENDBRANCH   1   6
TORSDOF 1
