REMARK  4 active torsions:
REMARK  status: ('A' for Active; 'I' for Inactive)
REMARK    1  A    between atoms: C1_1  and  C2_2 
REMARK    2  A    between atoms: C5_5  and  C8_8 
REMARK    3  A    between atoms: C8_8  and  C9_9 
REMARK    4  A    between atoms: C9_9  and  O1_10 
ROOT
ATOM      1  C2  <0> d          -0.729   1.579   1.267  0.00  0.00    -0.058 C 
ATOM      2  C3  <0> d          -0.013   1.086   0.008  0.00  0.00    -0.062 C 
ATOM      3  C4  <0> d          -0.753   1.593  -1.232  0.00  0.00    -0.061 C 
ATOM      4  C5  <0> d          -0.773   3.123  -1.223  0.00  0.00    -0.052 C 
ATOM      5  C6  <0> d          -1.490   3.616   0.036  0.00  0.00    -0.061 C 
ATOM      6  C7  <0> d          -0.750   3.109   1.275  0.00  0.00    -0.062 C 
ATOM      7  H4  <0> d          -1.751   1.202   1.275  0.00  0.00     0.039 H 
ATOM      8  H5  <0> d           0.002  -0.004   0.002  0.00  0.00     0.033 H 
ATOM      9  H6  <0> d           1.010   1.463   0.000  0.00  0.00     0.033 H 
ATOM     10  H7  <0> d          -0.242   1.241  -2.128  0.00  0.00     0.033 H 
ATOM     11  H8  <0> d          -1.775   1.215  -1.224  0.00  0.00     0.033 H 
ATOM     12  H9  <0> d           0.249   3.500  -1.231  0.00  0.00     0.040 H 
ATOM     13  H10 <0> d          -1.504   4.706   0.042  0.00  0.00     0.033 H 
ATOM     14  H11 <0> d          -2.512   3.239   0.043  0.00  0.00     0.033 H 
ATOM     15  H12 <0> d           0.273   3.486   1.268  0.00  0.00     0.033 H 
ATOM     16  H13 <0> d          -1.260   3.461   2.172  0.00  0.00     0.033 H 
ENDROOT
BRANCH   4  17
ATOM     17  C8  <0> d          -1.513   3.629  -2.463  0.00  0.00    -0.042 C 
ATOM     18  H14 <0> d          -1.057   3.206  -3.357  0.00  0.00     0.036 H 
ATOM     19  H15 <0> d          -2.559   3.326  -2.411  0.00  0.00     0.036 H 
BRANCH  17  20
ATOM     20  C9  <0> d          -1.427   5.156  -2.520  0.00  0.00     0.017 C 
ATOM     21  H16 <0> d          -1.884   5.579  -1.625  0.00  0.00     0.073 H 
ATOM     22  H17 <0> d          -0.381   5.459  -2.572  0.00  0.00     0.073 H 
BRANCH  20  23
ATOM     23  O1  <0> d          -2.118   5.629  -3.677  0.00  0.00    -0.401 OA
ATOM     24  H18 <0> d          -2.104   6.591  -3.778  0.00  0.00     0.209 HD
ENDBRANCH  20  23
ENDBRANCH  17  20
ENDBRANCH   4  17
BRANCH   1  25
ATOM     25  C1  <0> d           0.011   1.072   2.506  0.00  0.00    -0.073 C 
ATOM     26  H1  <0> d           1.034   1.450   2.499  0.00  0.00     0.028 H 
ATOM     27  H2  <0> d          -0.499   1.424   3.403  0.00  0.00     0.028 H 
ATOM     28  H3  <0> d           0.026  -0.018   2.500  0.00  0.00     0.028 H 
ENDBRANCH   1  25
TORSDOF 4
