REMARK  1 active torsions:
REMARK  status: ('A' for Active; 'I' for Inactive)
REMARK    1  A    between atoms: C4_5  and  C6_7 
ROOT
ATOM      1  C1  <0> d          -0.017   1.380   0.010  0.00  0.00    -0.079 A 
ATOM      2  C2  <0> d           1.194   2.059   0.002  0.00  0.00    -0.066 A 
ATOM      3  C3  <0> d           2.374   1.339  -0.013  0.00  0.00     0.003 A 
ATOM      4  N1  <0> d           2.364   0.022  -0.021  0.00  0.00    -0.259 NA
ATOM      5  C4  <0> d           1.229  -0.664  -0.014  0.00  0.00     0.085 A 
ATOM      6  C5  <0> d           0.002  -0.004   0.002  0.00  0.00    -0.053 A 
ATOM      7  H1  <0> d          -0.952   1.920   0.026  0.00  0.00     0.083 H 
ATOM      8  H2  <0> d           1.213   3.139   0.007  0.00  0.00     0.085 H 
ATOM      9  H3  <0> d           3.318   1.864  -0.020  0.00  0.00     0.114 H 
ATOM     10  H4  <0> d          -0.921  -0.564   0.008  0.00  0.00     0.087 H 
ENDROOT
BRANCH   5  11
ATOM     11  C6  <0> d           1.266  -2.147  -0.022  0.00  0.00     0.085 A 
ATOM     12  N2  <0> d           0.131  -2.834  -0.015  0.00  0.00    -0.259 NA
ATOM     13  C10 <0> d           0.120  -4.151  -0.028  0.00  0.00     0.003 A 
ATOM     14  C9  <0> d           1.301  -4.871  -0.038  0.00  0.00    -0.066 A 
ATOM     15  H8  <0> d          -0.824  -4.676  -0.026  0.00  0.00     0.114 H 
ATOM     16  C8  <0> d           2.511  -4.192  -0.040  0.00  0.00    -0.079 A 
ATOM     17  H7  <0> d           1.282  -5.950  -0.044  0.00  0.00     0.085 H 
ATOM     18  C7  <0> d           2.493  -2.808  -0.032  0.00  0.00    -0.053 A 
ATOM     19  H6  <0> d           3.447  -4.731  -0.048  0.00  0.00     0.083 H 
ATOM     20  H5  <0> d           3.416  -2.248  -0.034  0.00  0.00     0.087 H 
ENDBRANCH   5  11
TORSDOF 1
