REMARK  4 active torsions:
REMARK  status: ('A' for Active; 'I' for Inactive)
REMARK    1  A    between atoms: C1_1  and  C2_2 
REMARK    2  A    between atoms: C2_2  and  C3_4 
REMARK    3  A    between atoms: C2_2  and  O2_7 
REMARK       I    between atoms: C3_4  and  N1_6 
REMARK    4  A    between atoms: O2_7  and  C4_8 
ROOT
ATOM      1  C2  <0> d          -1.330   1.944   0.019  0.00  0.00     0.111 C 
ATOM      2  H1  <0> d          -1.400   2.575  -0.867  0.00  0.00     0.097 H 
ENDROOT
BRANCH   1   3
ATOM      3  C1  <0> d          -1.417   2.816   1.273  0.00  0.00    -0.044 C 
ATOM      4  H2  <0> d          -0.598   3.535   1.273  0.00  0.00     0.031 H 
ATOM      5  H3  <0> d          -2.368   3.348   1.281  0.00  0.00     0.031 H 
ATOM      6  H4  <0> d          -1.346   2.185   2.160  0.00  0.00     0.031 H 
ENDBRANCH   1   3
BRANCH   1   7
ATOM      7  C3  <0> d          -0.014   1.209   0.009  0.00  0.00     0.244 C 
ATOM      8  O1  <0> d           0.002  -0.004   0.002  0.00  0.00    -0.271 OA
ATOM      9  N1  <0> d           1.143   1.898   0.001  0.00  0.00    -0.368 N 
ATOM     10  H5  <0> d           1.990   1.425  -0.009  0.00  0.00     0.159 HD
ATOM     11  H6  <0> d           1.130   2.868   0.007  0.00  0.00     0.159 HD
ENDBRANCH   1   7
BRANCH   1  12
ATOM     12  O2  <0> d          -2.403   1.001   0.019  0.00  0.00    -0.382 OA
BRANCH  12  13
ATOM     13  C4  <0> d          -3.589   1.470  -0.626  0.00  0.00     0.005 C 
ATOM     14  H7  <0> d          -3.948   2.366  -0.119  0.00  0.00     0.066 H 
ATOM     15  H8  <0> d          -3.368   1.706  -1.667  0.00  0.00     0.066 H 
ATOM     16  H9  <0> d          -4.356   0.697  -0.583  0.00  0.00     0.066 H 
ENDBRANCH  12  13
ENDBRANCH   1  12
TORSDOF 4
