REMARK  1 active torsions:
REMARK  status: ('A' for Active; 'I' for Inactive)
REMARK    1  A    between atoms: C5_5  and  N1_7 
ROOT
ATOM      1  C1  <0> d           1.206  -0.677  -0.013  0.00  0.00    -0.079 A 
ATOM      2  C2  <0> d           0.002  -0.004   0.002  0.00  0.00    -0.060 A 
ATOM      3  C3  <0> d          -0.017   1.393   0.010  0.00  0.00     0.085 A 
ATOM      4  C4  <0> d           1.187   2.103   0.002  0.00  0.00     0.163 A 
ATOM      5  C5  <0> d           2.393   1.413  -0.012  0.00  0.00     0.066 A 
ATOM      6  C6  <0> d           2.398   0.024  -0.020  0.00  0.00    -0.055 A 
ATOM      7  F1  <0> d           1.178   3.453   0.009  0.00  0.00    -0.202 F 
ATOM      8  C7  <0> d          -1.265   2.095   0.019  0.00  0.00     0.102 C 
ATOM      9  N2  <0> d          -2.255   2.652   0.027  0.00  0.00    -0.191 NA
ATOM     10  H1  <0> d           1.217  -1.757  -0.019  0.00  0.00     0.083 H 
ATOM     11  H2  <0> d          -0.926  -0.557   0.008  0.00  0.00     0.086 H 
ATOM     12  H3  <0> d           3.336  -0.510  -0.032  0.00  0.00     0.087 H 
ENDROOT
BRANCH   5  13
ATOM     13  N1  <0> d           3.601   2.117  -0.019  0.00  0.00    -0.397 N 
ATOM     14  H4  <0> d           4.443   1.635  -0.029  0.00  0.00     0.156 HD
ATOM     15  H5  <0> d           3.598   3.087  -0.013  0.00  0.00     0.156 HD
ENDBRANCH   5  13
TORSDOF 1
