REMARK  6 active torsions:
REMARK  status: ('A' for Active; 'I' for Inactive)
REMARK    1  A    between atoms: C1_1  and  C2_2 
REMARK    2  A    between atoms: C2_2  and  C3_3 
REMARK    3  A    between atoms: C3_3  and  C4_4 
REMARK    4  A    between atoms: C3_3  and  C5_5 
REMARK    5  A    between atoms: C3_3  and  O1_11 
REMARK    6  A    between atoms: N3_8  and  C6_10 
ROOT
ATOM      1  C3  <0> d          -1.239   2.210   0.020  0.00  0.00     0.119 C 
ENDROOT
BRANCH   1   2
ATOM      2  C2  <0> d          -2.496   1.338   0.022  0.00  0.00    -0.033 C 
ATOM      3  H4  <0> d          -2.506   0.713  -0.871  0.00  0.00     0.037 H 
ATOM      4  H5  <0> d          -2.497   0.704   0.909  0.00  0.00     0.037 H 
BRANCH   2   5
ATOM      5  C1  <0> d          -3.737   2.232   0.033  0.00  0.00    -0.073 C 
ATOM      6  H1  <0> d          -4.633   1.611   0.035  0.00  0.00     0.027 H 
ATOM      7  H2  <0> d          -3.727   2.857   0.926  0.00  0.00     0.027 H 
ATOM      8  H3  <0> d          -3.736   2.866  -0.853  0.00  0.00     0.027 H 
ENDBRANCH   2   5
ENDBRANCH   1   2
BRANCH   1   9
ATOM      9  C4  <0> d          -1.224   3.087   1.274  0.00  0.00    -0.041 C 
ATOM     10  H6  <0> d          -0.329   3.708   1.272  0.00  0.00     0.032 H 
ATOM     11  H7  <0> d          -2.109   3.724   1.282  0.00  0.00     0.032 H 
ATOM     12  H8  <0> d          -1.225   2.453   2.161  0.00  0.00     0.032 H 
ENDBRANCH   1   9
BRANCH   1  13
ATOM     13  C5  <0> d          -0.016   1.329   0.009  0.00  0.00     0.205 A 
ATOM     14  N4  <0> d           1.232   1.727  -0.000  0.00  0.00    -0.133 NA
ATOM     15  N3  <0> d           1.983   0.679  -0.013  0.00  0.00    -0.173 N 
ATOM     16  N2  <0> d           1.238  -0.372  -0.012  0.00  0.00    -0.047 NA
ATOM     17  N1  <0> d           0.002  -0.004   0.002  0.00  0.00    -0.110 NA
BRANCH  15  18
ATOM     18  C6  <0> d           3.447   0.683  -0.027  0.00  0.00     0.021 C 
ATOM     19  H9  <0> d           3.801   0.689  -1.058  0.00  0.00     0.062 H 
ATOM     20  H10 <0> d           3.813   1.571   0.488  0.00  0.00     0.062 H 
ATOM     21  H11 <0> d           3.818  -0.209   0.479  0.00  0.00     0.062 H 
ENDBRANCH  15  18
ENDBRANCH   1  13
BRANCH   1  22
ATOM     22  O1  <0> d          -1.238   3.041  -1.142  0.00  0.00    -0.382 OA
ATOM     23  H12 <0> d          -1.246   2.551  -1.976  0.00  0.00     0.211 HD
ENDBRANCH   1  22
TORSDOF 6
