REMARK  1 active torsions:
REMARK  status: ('A' for Active; 'I' for Inactive)
REMARK    1  A    between atoms: C2_2  and  C4_7 
REMARK       I    between atoms: C4_7  and  N2_9 
ROOT
ATOM      1  C1  <0> d          -0.013   1.076   0.008  0.00  0.00     0.013 A 
ATOM      2  C2  <0> d          -1.099   1.904   0.017  0.00  0.00     0.172 A 
ATOM      3  O1  <0> d          -0.615   3.161   0.025  0.00  0.00    -0.205 OA
ATOM      4  N1  <0> d           0.594   3.173   0.013  0.00  0.00    -0.099 NA
ATOM      5  C3  <0> d           1.092   1.966   0.002  0.00  0.00     0.229 A 
ATOM      6  O2  <0> d           2.407   1.630  -0.012  0.00  0.00    -0.168 OA
ATOM      7  H1  <0> d           0.002  -0.004   0.002  0.00  0.00     0.095 H 
ENDROOT
BRANCH   2   8
ATOM      8  C4  <0> d          -2.519   1.502   0.020  0.00  0.00     0.275 C 
ATOM      9  O3  <0> d          -2.817   0.324   0.015  0.00  0.00    -0.266 OA
ATOM     10  N2  <0> d          -3.485   2.442   0.029  0.00  0.00    -0.364 N 
ATOM     11  H2  <0> d          -4.544   2.142   0.032  0.00  0.00     0.159 HD
ATOM     12  H3  <0> d          -3.216   3.508   0.034  0.00  0.00     0.159 HD
ENDBRANCH   2   8
TORSDOF 1
