REMARK  3 active torsions:
REMARK  status: ('A' for Active; 'I' for Inactive)
REMARK    1  A    between atoms: C1_1  and  C2_2 
REMARK    2  A    between atoms: C3_3  and  C5_9 
REMARK    3  A    between atoms: C4_6  and  N4_8 
ROOT
ATOM      1  C2  <0> d           0.002  -0.004   0.002  0.00  0.00     0.075 A 
ATOM      2  C3  <0> d           0.006  -0.704  -1.196  0.00  0.00     0.078 A 
ATOM      3  N1  <0> d           0.024  -2.025  -1.174  0.00  0.00    -0.137 NA
ATOM      4  N2  <0> d           0.038  -2.659  -0.053  0.00  0.00     0.043 NA
ATOM      5  C4  <0> d           0.034  -2.011   1.105  0.00  0.00     0.739 A 
ATOM      6  N3  <0> d           0.022  -0.684   1.138  0.00  0.00    -0.065 NA
ENDROOT
BRANCH   1   7
ATOM      7  C1  <0> d          -0.018   1.503   0.010  0.00  0.00    -0.033 C 
ATOM      8  H1  <0> d           1.004   1.880   0.003  0.00  0.00     0.035 H 
ATOM      9  H2  <0> d          -0.545   1.864  -0.873  0.00  0.00     0.035 H 
ATOM     10  H3  <0> d          -0.529   1.854   0.907  0.00  0.00     0.035 H 
ENDBRANCH   1   7
BRANCH   2  11
ATOM     11  C5  <0> d          -0.011   0.036  -2.510  0.00  0.00    -0.032 C 
ATOM     12  H6  <0> d           1.013   0.228  -2.831  0.00  0.00     0.035 H 
ATOM     13  H7  <0> d          -0.520  -0.569  -3.260  0.00  0.00     0.035 H 
ATOM     14  H8  <0> d          -0.537   0.982  -2.387  0.00  0.00     0.035 H 
ENDBRANCH   2  11
BRANCH   5  15
ATOM     15  N4  <0> d           0.049  -2.725   2.290  0.00  0.00    -0.230 N 
ATOM     16  H4  <0> d           0.062  -3.695   2.271  0.00  0.00     0.174 HD
ATOM     17  H5  <0> d           0.047  -2.257   3.139  0.00  0.00     0.174 HD
ENDBRANCH   5  15
TORSDOF 3
