REMARK  3 active torsions:
REMARK  status: ('A' for Active; 'I' for Inactive)
REMARK    1  A    between atoms: C1_1  and  C2_2 
REMARK    2  A    between atoms: C5_5  and  C8_9 
REMARK    3  A    between atoms: C6_6  and  C7_8 
REMARK       I    between atoms: C8_9  and  N2_11 
ROOT
ATOM      1  C2  <0> d           0.052   1.522   0.232  0.00  0.00     0.031 A 
ATOM      2  C3  <0> d           1.200   2.247  -0.033  0.00  0.00    -0.059 A 
ATOM      3  C4  <0> d           1.104   3.610  -0.253  0.00  0.00    -0.064 A 
ATOM      4  C5  <0> d          -0.163   4.204  -0.197  0.00  0.00     0.056 A 
ATOM      5  C6  <0> d          -1.271   3.402   0.077  0.00  0.00     0.046 A 
ATOM      6  N1  <0> d          -1.129   2.107   0.274  0.00  0.00    -0.258 NA
ATOM      7  H4  <0> d           2.161   1.755  -0.068  0.00  0.00     0.086 H 
ATOM      8  H5  <0> d           1.984   4.201  -0.462  0.00  0.00     0.085 H 
ENDROOT
BRANCH   4   9
ATOM      9  C8  <0> d          -0.323   5.656  -0.424  0.00  0.00     0.251 C 
ATOM     10  O1  <0> d          -1.435   6.142  -0.485  0.00  0.00    -0.268 OA
ATOM     11  N2  <0> d           0.764   6.440  -0.562  0.00  0.00    -0.366 N 
ATOM     12  H9  <0> d           1.652   6.052  -0.513  0.00  0.00     0.159 HD
ATOM     13  H10 <0> d           0.659   7.393  -0.711  0.00  0.00     0.159 HD
ENDBRANCH   4   9
BRANCH   5  14
ATOM     14  C7  <0> d          -2.643   4.021   0.142  0.00  0.00    -0.035 C 
ATOM     15  H6  <0> d          -3.052   4.106  -0.865  0.00  0.00     0.035 H 
ATOM     16  H7  <0> d          -3.297   3.393   0.747  0.00  0.00     0.035 H 
ATOM     17  H8  <0> d          -2.574   5.012   0.591  0.00  0.00     0.035 H 
ENDBRANCH   5  14
BRANCH   1  18
ATOM     18  C1  <0> d           0.153   0.037   0.472  0.00  0.00    -0.035 C 
ATOM     19  H1  <0> d           0.302  -0.150   1.535  0.00  0.00     0.035 H 
ATOM     20  H2  <0> d          -0.767  -0.447   0.143  0.00  0.00     0.035 H 
ATOM     21  H3  <0> d           0.996  -0.365  -0.089  0.00  0.00     0.035 H 
ENDBRANCH   1  18
TORSDOF 3
