REMARK  1 active torsions:
REMARK  status: ('A' for Active; 'I' for Inactive)
REMARK    1  A    between atoms: C1_1  and  C2_2 
ROOT
ATOM      1  C2  <0> d          -0.692   3.219   0.026  0.00  0.00     0.072 A 
ATOM      2  C3  <0> d          -1.136   1.878   0.017  0.00  0.00     0.087 A 
ATOM      3  C4  <0> d          -0.013   1.076   0.008  0.00  0.00     0.018 A 
ATOM      4  N1  <0> d           1.060   1.886   0.002  0.00  0.00    -0.288 N 
ATOM      5  H1  <0> d           2.015   1.591  -0.009  0.00  0.00     0.188 HD
ATOM      6  N2  <0> d           0.613   3.212   0.013  0.00  0.00    -0.179 NA
ATOM      7  C5  <0> d          -2.497   1.433   0.019  0.00  0.00     0.103 C 
ATOM      8  N3  <0> d          -3.577   1.081   0.021  0.00  0.00    -0.191 NA
ATOM      9  H5  <0> d           0.002  -0.004   0.002  0.00  0.00     0.116 H 
ENDROOT
BRANCH   1  10
ATOM     10  C1  <0> d          -1.571   4.442   0.041  0.00  0.00    -0.032 C 
ATOM     11  H2  <0> d          -1.792   4.743  -0.984  0.00  0.00     0.035 H 
ATOM     12  H3  <0> d          -2.501   4.215   0.562  0.00  0.00     0.035 H 
ATOM     13  H4  <0> d          -1.055   5.254   0.554  0.00  0.00     0.035 H 
ENDBRANCH   1  10
TORSDOF 1
