REMARK  7 active torsions:
REMARK  status: ('A' for Active; 'I' for Inactive)
REMARK    1  A    between atoms: C1_1  and  C2_2 
REMARK    2  A    between atoms: C2_2  and  C3_3 
REMARK    3  A    between atoms: C3_3  and  C4_4 
REMARK    4  A    between atoms: C4_4  and  C5_5 
REMARK    5  A    between atoms: C5_5  and  C6_6 
REMARK    6  A    between atoms: C6_6  and  C7_8 
REMARK    7  A    between atoms: C6_6  and  O1_10 
ROOT
ATOM      1  C7  <0> d           0.048   1.194   2.456  0.00  0.00    -0.086 C 
ATOM      2  C8  <0> d           0.668   0.886   3.405  0.00  0.00    -0.151 C 
ATOM      3  H13 <0> d           1.222   0.611   4.253  0.00  0.00     0.166 H 
ENDROOT
BRANCH   1   4
ATOM      4  C6  <0> d          -0.729   1.579   1.267  0.00  0.00     0.093 C 
ATOM      5  H1  <0> d          -0.822   2.665   1.230  0.00  0.00     0.103 H 
BRANCH   4   6
ATOM      6  C5  <0> d          -0.013   1.086   0.008  0.00  0.00    -0.031 C 
ATOM      7  H11 <0> d           0.002  -0.004   0.002  0.00  0.00     0.038 H 
ATOM      8  H12 <0> d           1.010   1.463   0.000  0.00  0.00     0.038 H 
BRANCH   6   9
ATOM      9  C4  <0> d          -0.753   1.593  -1.232  0.00  0.00    -0.062 C 
ATOM     10  H9  <0> d          -1.775   1.215  -1.224  0.00  0.00     0.033 H 
ATOM     11  H10 <0> d          -0.767   2.683  -1.226  0.00  0.00     0.033 H 
BRANCH   9  12
ATOM     12  C3  <0> d          -0.037   1.099  -2.490  0.00  0.00    -0.065 C 
ATOM     13  H7  <0> d           0.986   1.476  -2.498  0.00  0.00     0.033 H 
ATOM     14  H8  <0> d          -0.022   0.009  -2.496  0.00  0.00     0.033 H 
BRANCH  12  15
ATOM     15  C2  <0> d          -0.777   1.606  -3.730  0.00  0.00    -0.069 C 
ATOM     16  H5  <0> d          -1.799   1.229  -3.722  0.00  0.00     0.032 H 
ATOM     17  H6  <0> d          -0.791   2.696  -3.724  0.00  0.00     0.032 H 
BRANCH  15  18
ATOM     18  C1  <0> d          -0.060   1.113  -4.989  0.00  0.00    -0.077 C 
ATOM     19  H2  <0> d           0.962   1.490  -4.996  0.00  0.00     0.027 H 
ATOM     20  H3  <0> d          -0.046   0.023  -4.995  0.00  0.00     0.027 H 
ATOM     21  H4  <0> d          -0.588   1.474  -5.872  0.00  0.00     0.027 H 
ENDBRANCH  15  18
ENDBRANCH  12  15
ENDBRANCH   9  12
ENDBRANCH   6   9
ENDBRANCH   4   6
BRANCH   4  22
ATOM     22  O1  <0> d          -2.030   0.991   1.336  0.00  0.00    -0.383 OA
ATOM     23  H14 <0> d          -2.023   0.025   1.372  0.00  0.00     0.211 HD
ENDBRANCH   4  22
ENDBRANCH   1   4
TORSDOF 7
