REMARK  3 active torsions:
REMARK  status: ('A' for Active; 'I' for Inactive)
REMARK    1  A    between atoms: C1_1  and  C2_2 
REMARK    2  A    between atoms: C5_5  and  C7_11 
REMARK    3  A    between atoms: N1_6  and  N2_7 
REMARK       I    between atoms: N2_7  and  C6_8 
REMARK       I    between atoms: C6_8  and  N3_10 
ROOT
ATOM      1  C2  <0> d          -1.500   3.005   0.173  0.00  0.00     0.030 A 
ATOM      2  C3  <0> d          -2.814   3.258   0.008  0.00  0.00    -0.058 A 
ATOM      3  C4  <0> d          -3.452   2.026  -0.241  0.00  0.00    -0.058 A 
ATOM      4  C5  <0> d          -2.502   1.069  -0.223  0.00  0.00     0.030 A 
ATOM      5  N1  <0> d          -1.302   1.664   0.026  0.00  0.00    -0.262 N 
ATOM      6  H4  <0> d          -3.291   4.225   0.061  0.00  0.00     0.086 H 
ATOM      7  H5  <0> d          -4.508   1.876  -0.413  0.00  0.00     0.086 H 
ENDROOT
BRANCH   5   8
ATOM      8  N2  <0> d          -0.068   1.006   0.123  0.00  0.00    -0.245 N 
ATOM      9  C6  <0> d           1.048   1.593  -0.353  0.00  0.00     0.333 C 
ATOM     10  O1  <0> d           0.977   2.669  -0.914  0.00  0.00    -0.246 OA
ATOM     11  N3  <0> d           2.243   0.988  -0.206  0.00  0.00    -0.351 N 
ATOM     12  H7  <0> d           2.300   0.129   0.242  0.00  0.00     0.160 HD
ATOM     13  H8  <0> d           3.046   1.410  -0.548  0.00  0.00     0.160 HD
ATOM     14  H6  <0> d          -0.019   0.126   0.528  0.00  0.00     0.192 HD
ENDBRANCH   5   8
BRANCH   1  15
ATOM     15  C1  <0> d          -0.433   4.029   0.465  0.00  0.00    -0.035 C 
ATOM     16  H1  <0> d          -0.117   4.500  -0.466  0.00  0.00     0.035 H 
ATOM     17  H2  <0> d          -0.833   4.788   1.138  0.00  0.00     0.035 H 
ATOM     18  H3  <0> d           0.421   3.541   0.934  0.00  0.00     0.035 H 
ENDBRANCH   1  15
BRANCH   4  19
ATOM     19  C7  <0> d          -2.729  -0.405  -0.442  0.00  0.00    -0.035 C 
ATOM     20  H9  <0> d          -2.931  -0.887   0.514  0.00  0.00     0.035 H 
ATOM     21  H10 <0> d          -3.581  -0.546  -1.107  0.00  0.00     0.035 H 
ATOM     22  H11 <0> d          -1.840  -0.846  -0.892  0.00  0.00     0.035 H 
ENDBRANCH   4  19
TORSDOF 3
