REMARK  4 active torsions:
REMARK  status: ('A' for Active; 'I' for Inactive)
REMARK    1  A    between atoms: C2_2  and  C3_3 
REMARK    2  A    between atoms: C3_3  and  O1_4 
REMARK    3  A    between atoms: O1_4  and  C4_5 
REMARK    4  A    between atoms: C8_10  and  N2_11 
ROOT
ATOM      1  C4  <0> d          -0.017   1.383   0.010  0.00  0.00     0.114 A 
ATOM      2  C5  <0> d           0.002  -0.004   0.002  0.00  0.00    -0.046 A 
ATOM      3  C6  <0> d           1.232  -0.649  -0.013  0.00  0.00    -0.063 A 
ATOM      4  C7  <0> d           2.390   0.102  -0.020  0.00  0.00     0.005 A 
ATOM      5  N1  <0> d           2.344   1.421  -0.013  0.00  0.00    -0.241 NA
ATOM      6  C8  <0> d           1.194   2.076   0.002  0.00  0.00     0.154 A 
ATOM      7  H6  <0> d          -0.918  -0.569   0.007  0.00  0.00     0.088 H 
ATOM      8  H7  <0> d           1.281  -1.728  -0.020  0.00  0.00     0.085 H 
ATOM      9  H8  <0> d           3.347  -0.397  -0.032  0.00  0.00     0.114 H 
ENDROOT
BRANCH   1  10
ATOM     10  O1  <0> d          -1.198   2.057   0.019  0.00  0.00    -0.344 OA
BRANCH  10  11
ATOM     11  C3  <0> d          -2.393   1.273   0.020  0.00  0.00     0.041 C 
ATOM     12  H4  <0> d          -2.419   0.649  -0.873  0.00  0.00     0.081 H 
ATOM     13  H5  <0> d          -2.410   0.639   0.907  0.00  0.00     0.081 H 
BRANCH  11  14
ATOM     14  C2  <0> d          -3.592   2.185   0.031  0.00  0.00    -0.089 C 
ATOM     15  C1  <0> d          -4.603   1.947  -0.768  0.00  0.00    -0.123 C 
ATOM     16  H1  <0> d          -4.577   1.097  -1.434  0.00  0.00     0.066 H 
ATOM     17  H2  <0> d          -5.463   2.601  -0.760  0.00  0.00     0.066 H 
ATOM     18  H3  <0> d          -3.619   3.035   0.697  0.00  0.00     0.078 H 
ENDBRANCH  11  14
ENDBRANCH  10  11
ENDBRANCH   1  10
BRANCH   6  19
ATOM     19  N2  <0> d           1.193   3.469   0.009  0.00  0.00    -0.382 N 
ATOM     20  H9  <0> d           0.353   3.953   0.020  0.00  0.00     0.157 HD
ATOM     21  H10 <0> d           2.033   3.954   0.004  0.00  0.00     0.157 HD
ENDBRANCH   6  19
TORSDOF 4
