REMARK  1 active torsions:
REMARK  status: ('A' for Active; 'I' for Inactive)
REMARK    1  A    between atoms: C4_4  and  C5_7 
ROOT
ATOM      1  C1  <0> d           1.377   1.797  -0.001  0.00  0.00     0.036 C 
ATOM      2  C2  <0> d           2.091   0.651  -0.681  0.00  0.00    -0.081 C 
ATOM      3  C3  <0> d           1.295  -0.393  -0.679  0.00  0.00    -0.067 C 
ATOM      4  C4  <0> d           0.002  -0.004   0.002  0.00  0.00     0.138 C 
ATOM      5  H1  <0> d          -0.017  -0.386   1.023  0.00  0.00     0.107 H 
ATOM      6  O1  <0> d          -0.018   1.436   0.010  0.00  0.00    -0.368 OA
ATOM      7  H2  <0> d           1.523   2.718  -0.565  0.00  0.00     0.080 H 
ATOM      8  H3  <0> d           1.743   1.917   1.018  0.00  0.00     0.080 H 
ATOM      9  H4  <0> d           3.087   0.685  -1.097  0.00  0.00     0.079 H 
ATOM     10  H5  <0> d           1.524  -1.363  -1.093  0.00  0.00     0.081 H 
ENDROOT
BRANCH   4  11
ATOM     11  C5  <0> d          -1.175  -0.536  -0.774  0.00  0.00     0.207 C 
ATOM     12  O2  <0> d          -1.927   0.228  -1.331  0.00  0.00    -0.646 OA
ATOM     13  O3  <0> d          -1.389  -1.859  -0.846  0.00  0.00    -0.646 OA
ENDBRANCH   4  11
TORSDOF 1
