REMARK  4 active torsions:
REMARK  status: ('A' for Active; 'I' for Inactive)
REMARK    1  A    between atoms: C1_1  and  C2_2 
REMARK    2  A    between atoms: C2_2  and  O1_3 
REMARK    3  A    between atoms: O1_3  and  C3_4 
REMARK    4  A    between atoms: N1_7  and  C7_11 
ROOT
ATOM      1  C3  <0> d          -0.126   4.162   0.026  0.00  0.00     0.170 A 
ATOM      2  C4  <0> d           1.121   3.510   0.010  0.00  0.00    -0.017 A 
ATOM      3  C5  <0> d           1.154   2.155   0.003  0.00  0.00    -0.012 A 
ATOM      4  N1  <0> d          -0.018   1.461   0.010  0.00  0.00    -0.312 N 
ATOM      5  C6  <0> d          -1.194   2.115   0.019  0.00  0.00     0.350 A 
ATOM      6  O2  <0> d          -2.235   1.478   0.021  0.00  0.00    -0.244 OA
ATOM      7  N2  <0> d          -1.240   3.447   0.032  0.00  0.00    -0.170 NA
ATOM      8  H6  <0> d           2.038   4.080   0.005  0.00  0.00     0.092 H 
ATOM      9  H7  <0> d           2.098   1.631  -0.010  0.00  0.00     0.112 H 
ENDROOT
BRANCH   1  10
ATOM     10  O1  <0> d          -0.185   5.512   0.033  0.00  0.00    -0.335 OA
BRANCH  10  11
ATOM     11  C2  <0> d          -1.486   6.104   0.049  0.00  0.00     0.024 C 
ATOM     12  H4  <0> d          -2.038   5.791  -0.838  0.00  0.00     0.074 H 
ATOM     13  H5  <0> d          -2.021   5.782   0.942  0.00  0.00     0.074 H 
BRANCH  11  14
ATOM     14  C1  <0> d          -1.353   7.628   0.055  0.00  0.00    -0.056 C 
ATOM     15  H1  <0> d          -0.801   7.941   0.941  0.00  0.00     0.030 H 
ATOM     16  H2  <0> d          -0.818   7.950  -0.839  0.00  0.00     0.030 H 
ATOM     17  H3  <0> d          -2.345   8.079   0.067  0.00  0.00     0.030 H 
ENDBRANCH  11  14
ENDBRANCH  10  11
ENDBRANCH   1  10
BRANCH   4  18
ATOM     18  C7  <0> d           0.002  -0.004   0.002  0.00  0.00    -0.010 C 
ATOM     19  H8  <0> d           0.017  -0.373   1.028  0.00  0.00     0.057 H 
ATOM     20  H9  <0> d          -0.888  -0.377  -0.505  0.00  0.00     0.057 H 
ATOM     21  H10 <0> d           0.892  -0.352  -0.522  0.00  0.00     0.057 H 
ENDBRANCH   4  18
TORSDOF 4
