REMARK  1 active torsions:
REMARK  status: ('A' for Active; 'I' for Inactive)
REMARK    1  A    between atoms: C1_1  and  C2_2 
ROOT
ATOM      1  C2  <0> d          -2.416   3.877   0.045  0.00  0.00     0.064 A 
ATOM      2  C3  <0> d          -1.226   3.131   0.031  0.00  0.00     0.002 A 
ATOM      3  C4  <0> d          -1.208   1.730   0.017  0.00  0.00    -0.070 A 
ATOM      4  C5  <0> d          -0.013   1.076   0.008  0.00  0.00    -0.082 A 
ATOM      5  C6  <0> d           1.192   1.778   0.000  0.00  0.00    -0.082 A 
ATOM      6  C7  <0> d           1.212   3.140   0.007  0.00  0.00    -0.071 A 
ATOM      7  C8  <0> d           0.002   3.846   0.023  0.00  0.00    -0.005 A 
ATOM      8  C9  <0> d          -0.060   5.250   0.030  0.00  0.00     0.034 A 
ATOM      9  N1  <0> d          -1.237   5.834   0.044  0.00  0.00    -0.162 NA
ATOM     10  N2  <0> d          -2.344   5.189   0.051  0.00  0.00    -0.155 NA
ATOM     11  H4  <0> d          -2.134   1.173   0.019  0.00  0.00     0.084 H 
ATOM     12  H5  <0> d           0.002  -0.004   0.002  0.00  0.00     0.083 H 
ATOM     13  H6  <0> d           2.124   1.232  -0.011  0.00  0.00     0.083 H 
ATOM     14  H7  <0> d           2.153   3.671   0.002  0.00  0.00     0.084 H 
ATOM     15  H8  <0> d           0.845   5.840   0.025  0.00  0.00     0.118 H 
ENDROOT
BRANCH   1  16
ATOM     16  C1  <0> d          -3.755   3.184   0.054  0.00  0.00    -0.033 C 
ATOM     17  H1  <0> d          -3.603   2.094   0.047  0.00  0.00     0.035 H 
ATOM     18  H2  <0> d          -4.327   3.480  -0.838  0.00  0.00     0.035 H 
ATOM     19  H3  <0> d          -4.311   3.471   0.959  0.00  0.00     0.035 H 
ENDBRANCH   1  16
TORSDOF 1
