REMARK  6 active torsions:
REMARK  status: ('A' for Active; 'I' for Inactive)
REMARK    1  A    between atoms: C1_1  and  C2_2 
REMARK    2  A    between atoms: C2_2  and  C3_3 
REMARK    3  A    between atoms: C2_2  and  C4_4 
REMARK    4  A    between atoms: C4_4  and  C5_5 
REMARK    5  A    between atoms: C5_5  and  C6_6 
REMARK    6  A    between atoms: C7_9  and  N3_11 
ROOT
ATOM      1  C4  <0> d           1.919   3.650  -1.440  0.00  0.00    -0.056 C 
ATOM      2  H8  <0> d           0.946   3.600  -1.950  0.00  0.00     0.034 H 
ATOM      3  H9  <0> d           2.643   3.011  -1.969  0.00  0.00     0.034 H 
ENDROOT
BRANCH   1   4
ATOM      4  C2  <0> d           2.421   5.095  -1.439  0.00  0.00    -0.061 C 
ATOM      5  H4  <0> d           3.349   5.161  -0.852  0.00  0.00     0.038 H 
BRANCH   4   6
ATOM      6  C1  <0> d           2.693   5.543  -2.876  0.00  0.00    -0.073 C 
ATOM      7  H1  <0> d           3.457   4.890  -3.325  0.00  0.00     0.028 H 
ATOM      8  H2  <0> d           3.054   6.582  -2.875  0.00  0.00     0.028 H 
ATOM      9  H3  <0> d           1.765   5.477  -3.463  0.00  0.00     0.028 H 
ENDBRANCH   4   6
BRANCH   4  10
ATOM     10  C3  <0> d           1.358   6.003  -0.815  0.00  0.00    -0.073 C 
ATOM     11  H5  <0> d           1.162   5.681   0.219  0.00  0.00     0.028 H 
ATOM     12  H6  <0> d           0.430   5.938  -1.401  0.00  0.00     0.028 H 
ATOM     13  H7  <0> d           1.719   7.042  -0.813  0.00  0.00     0.028 H 
ENDBRANCH   4  10
ENDBRANCH   1   4
BRANCH   1  14
ATOM     14  C5  <0> d           1.766   3.161   0.001  0.00  0.00    -0.001 C 
ATOM     15  H10 <0> d           2.739   3.211   0.511  0.00  0.00     0.045 H 
ATOM     16  H11 <0> d           1.042   3.800   0.529  0.00  0.00     0.045 H 
BRANCH  14  17
ATOM     17  C6  <0> d           1.272   1.738  -0.001  0.00  0.00     0.171 A 
ATOM     18  O1  <0> d          -0.016   1.342   0.009  0.00  0.00    -0.260 OA
ATOM     19  C7  <0> d           0.002  -0.004   0.002  0.00  0.00     0.265 A 
ATOM     20  N2  <0> d           1.259  -0.376  -0.012  0.00  0.00    -0.104 NA
ATOM     21  N1  <0> d           2.011   0.668  -0.014  0.00  0.00    -0.125 NA
BRANCH  19  22
ATOM     22  N3  <0> d          -1.100  -0.839   0.009  0.00  0.00    -0.362 N 
ATOM     23  H12 <0> d          -2.114  -0.412   0.020  0.00  0.00     0.159 HD
ATOM     24  H13 <0> d          -0.963  -1.930   0.002  0.00  0.00     0.159 HD
ENDBRANCH  19  22
ENDBRANCH  14  17
ENDBRANCH   1  14
TORSDOF 6
