REMARK  1 active torsions:
REMARK  status: ('A' for Active; 'I' for Inactive)
REMARK    1  A    between atoms: C1_1  and  C2_2 
REMARK       I    between atoms: C2_2  and  N1_4 
ROOT
ATOM      1  C2  <0> d           0.002  -0.004   0.002  0.00  0.00     0.227 C 
ATOM      2  O1  <0> d           1.056  -0.594  -0.011  0.00  0.00    -0.273 OA
ATOM      3  N1  <0> d          -0.016   1.344   0.009  0.00  0.00    -0.245 N 
ATOM      4  C3  <0> d          -1.220   2.009   0.019  0.00  0.00    -0.002 A 
ATOM      5  C4  <0> d          -1.236   3.357   0.031  0.00  0.00    -0.002 A 
ATOM      6  C5  <0> d          -0.005   4.062   0.023  0.00  0.00     0.250 A 
ATOM      7  O2  <0> d           0.005   5.279   0.029  0.00  0.00    -0.268 OA
ATOM      8  N2  <0> d           1.153   3.372   0.009  0.00  0.00    -0.275 N 
ATOM      9  H1  <0> d           2.025   3.863   0.003  0.00  0.00     0.173 HD
ATOM     10  C6  <0> d           1.143   2.026   0.002  0.00  0.00     0.336 A 
ATOM     11  O3  <0> d           2.196   1.419  -0.011  0.00  0.00    -0.246 OA
ATOM     12  H5  <0> d          -2.146   1.455   0.021  0.00  0.00     0.112 H 
ATOM     13  H6  <0> d          -2.173   3.893   0.042  0.00  0.00     0.094 H 
ENDROOT
BRANCH   1  14
ATOM     14  C1  <0> d          -1.293  -0.775   0.010  0.00  0.00    -0.002 C 
ATOM     15  H2  <0> d          -1.615  -0.956  -1.015  0.00  0.00     0.040 H 
ATOM     16  H3  <0> d          -1.145  -1.728   0.518  0.00  0.00     0.040 H 
ATOM     17  H4  <0> d          -2.055  -0.199   0.534  0.00  0.00     0.040 H 
ENDBRANCH   1  14
TORSDOF 1
