REMARK  1 active torsions:
REMARK  status: ('A' for Active; 'I' for Inactive)
REMARK    1  A    between atoms: C1_1  and  C2_2 
ROOT
ATOM      1  C2  <0> d           0.002  -0.004   0.002  0.00  0.00    -0.087 C 
ATOM      2  C3  <0> d           0.004  -0.586  -1.151  0.00  0.00    -0.094 C 
ATOM      3  C4  <0> d          -0.000  -2.077  -1.345  0.00  0.00     0.006 C 
ATOM      4  C5  <0> d           0.253  -2.744  -0.009  0.00  0.00     0.130 C 
ATOM      5  O1  <0> d           0.976  -3.705   0.091  0.00  0.00    -0.298 OA
ATOM      6  C6  <0> d          -0.447  -2.146   1.196  0.00  0.00    -0.006 C 
ATOM      7  C7  <0> d           0.024  -0.693   1.331  0.00  0.00    -0.039 C 
ATOM      8  H4  <0> d           0.009   0.038  -2.032  0.00  0.00     0.077 H 
ATOM      9  H5  <0> d          -0.969  -2.392  -1.733  0.00  0.00     0.050 H 
ATOM     10  H6  <0> d           0.785  -2.356  -2.047  0.00  0.00     0.050 H 
ATOM     11  H7  <0> d          -1.526  -2.175   1.050  0.00  0.00     0.044 H 
ATOM     12  H8  <0> d          -0.180  -2.704   2.093  0.00  0.00     0.044 H 
ATOM     13  H9  <0> d           1.040  -0.677   1.727  0.00  0.00     0.040 H 
ATOM     14  H10 <0> d          -0.637  -0.167   2.019  0.00  0.00     0.040 H 
ENDROOT
BRANCH   1  15
ATOM     15  C1  <0> d          -0.018   1.503   0.010  0.00  0.00    -0.055 C 
ATOM     16  H1  <0> d           1.004   1.880   0.003  0.00  0.00     0.033 H 
ATOM     17  H2  <0> d          -0.545   1.864  -0.873  0.00  0.00     0.033 H 
ATOM     18  H3  <0> d          -0.529   1.854   0.907  0.00  0.00     0.033 H 
ENDBRANCH   1  15
TORSDOF 1
