REMARK  8 active torsions:
REMARK  status: ('A' for Active; 'I' for Inactive)
REMARK    1  A    between atoms: C1_1  and  C2_2 
REMARK    2  A    between atoms: C2_2  and  C3_3 
REMARK    3  A    between atoms: C3_3  and  C4_4 
REMARK    4  A    between atoms: C4_4  and  C5_5 
REMARK    5  A    between atoms: C5_5  and  C6_6 
REMARK    6  A    between atoms: C5_5  and  C8_8 
REMARK    7  A    between atoms: C5_5  and  O1_10 
REMARK    8  A    between atoms: C6_6  and  C7_7 
ROOT
ATOM      1  C8  <0> d           1.471   2.049   0.213  0.00  0.00    -0.079 C 
ATOM      2  C9  <0> d           2.517   2.582   0.229  0.00  0.00    -0.151 C 
ATOM      3  H15 <0> d           3.453   3.058   0.243  0.00  0.00     0.166 H 
ENDROOT
BRANCH   1   4
ATOM      4  C5  <0> d           0.160   1.381   0.193  0.00  0.00     0.119 C 
BRANCH   4   5
ATOM      5  C4  <0> d          -0.728   2.032  -0.870  0.00  0.00    -0.026 C 
ATOM      6  H8  <0> d          -0.272   1.904  -1.852  0.00  0.00     0.038 H 
ATOM      7  H9  <0> d          -1.711   1.560  -0.861  0.00  0.00     0.038 H 
BRANCH   5   8
ATOM      8  C3  <0> d          -0.876   3.525  -0.567  0.00  0.00    -0.062 C 
ATOM      9  H6  <0> d          -1.381   3.653   0.391  0.00  0.00     0.033 H 
ATOM     10  H7  <0> d           0.111   3.986  -0.522  0.00  0.00     0.033 H 
BRANCH   8  11
ATOM     11  C2  <0> d          -1.700   4.190  -1.671  0.00  0.00    -0.068 C 
ATOM     12  H4  <0> d          -1.195   4.062  -2.629  0.00  0.00     0.032 H 
ATOM     13  H5  <0> d          -2.687   3.728  -1.716  0.00  0.00     0.032 H 
BRANCH  11  14
ATOM     14  C1  <0> d          -1.848   5.682  -1.368  0.00  0.00    -0.077 C 
ATOM     15  H1  <0> d          -2.353   5.810  -0.411  0.00  0.00     0.027 H 
ATOM     16  H2  <0> d          -0.862   6.143  -1.323  0.00  0.00     0.027 H 
ATOM     17  H3  <0> d          -2.435   6.156  -2.155  0.00  0.00     0.027 H 
ENDBRANCH  11  14
ENDBRANCH   8  11
ENDBRANCH   5   8
ENDBRANCH   4   5
BRANCH   4  18
ATOM     18  C6  <0> d           0.347  -0.101  -0.137  0.00  0.00    -0.029 C 
ATOM     19  H10 <0> d           0.801  -0.199  -1.123  0.00  0.00     0.038 H 
ATOM     20  H11 <0> d           0.996  -0.560   0.609  0.00  0.00     0.038 H 
BRANCH  18  21
ATOM     21  C7  <0> d          -1.013  -0.801  -0.129  0.00  0.00    -0.073 C 
ATOM     22  H12 <0> d          -0.871  -1.874  -0.258  0.00  0.00     0.027 H 
ATOM     23  H13 <0> d          -1.514  -0.613   0.821  0.00  0.00     0.027 H 
ATOM     24  H14 <0> d          -1.625  -0.415  -0.945  0.00  0.00     0.027 H 
ENDBRANCH  18  21
ENDBRANCH   4  18
BRANCH   4  25
ATOM     25  O1  <0> d          -0.460   1.510   1.474  0.00  0.00    -0.378 OA
ATOM     26  H16 <0> d          -0.610   2.425   1.749  0.00  0.00     0.211 HD
ENDBRANCH   4  25
ENDBRANCH   1   4
TORSDOF 8
