REMARK  0 active torsions:
REMARK  status: ('A' for Active; 'I' for Inactive)
ROOT
ATOM      1  C1  <0> d           2.374   1.439  -0.015  0.00  0.00    -0.079 A 
ATOM      2  C2  <0> d           2.398   0.059  -0.022  0.00  0.00    -0.075 A 
ATOM      3  C3  <0> d           1.216  -0.666  -0.011  0.00  0.00    -0.034 A 
ATOM      4  C4  <0> d           0.002  -0.004   0.002  0.00  0.00     0.053 A 
ATOM      5  C5  <0> d          -0.017   1.393   0.010  0.00  0.00     0.138 A 
ATOM      6  C6  <0> d           1.164   2.107   0.002  0.00  0.00    -0.044 A 
ATOM      7  F1  <0> d          -1.198   2.049   0.019  0.00  0.00    -0.204 F 
ATOM      8  N1  <0> d          -1.225  -0.669   0.002  0.00  0.00    -0.290 NA
ATOM      9  C7  <0> d          -1.126  -2.059   0.451  0.00  0.00    -0.018 C 
ATOM     10  C8  <0> d          -0.053  -2.769  -0.384  0.00  0.00    -0.050 C 
ATOM     11  C9  <0> d           1.306  -2.172  -0.010  0.00  0.00    -0.038 C 
ATOM     12  H1  <0> d           3.300   1.996  -0.023  0.00  0.00     0.083 H 
ATOM     13  H2  <0> d           3.345  -0.461  -0.036  0.00  0.00     0.084 H 
ATOM     14  H3  <0> d           1.143   3.187   0.010  0.00  0.00     0.088 H 
ATOM     15  H4  <0> d          -1.667  -0.612  -0.903  0.00  0.00     0.127 HD
ATOM     16  H5  <0> d          -0.847  -2.084   1.504  0.00  0.00     0.056 H 
ATOM     17  H6  <0> d          -2.086  -2.557   0.312  0.00  0.00     0.056 H 
ATOM     18  H7  <0> d          -0.060  -3.836  -0.162  0.00  0.00     0.035 H 
ATOM     19  H8  <0> d          -0.246  -2.611  -1.445  0.00  0.00     0.035 H 
ATOM     20  H9  <0> d           1.593  -2.517   0.983  0.00  0.00     0.040 H 
ATOM     21  H10 <0> d           2.054  -2.491  -0.735  0.00  0.00     0.040 H 
ENDROOT
TORSDOF 0
