REMARK  1 active torsions:
REMARK  status: ('A' for Active; 'I' for Inactive)
REMARK    1  A    between atoms: C1_1  and  C2_2 
ROOT
ATOM      1  C2  <0> d          -0.718   1.572   1.248  0.00  0.00    -0.042 A 
ATOM      2  C3  <0> d          -0.005   1.809   2.413  0.00  0.00    -0.037 A 
ATOM      3  C4  <0> d          -0.697   2.256   3.531  0.00  0.00     0.134 A 
ATOM      4  C5  <0> d          -2.066   2.448   3.444  0.00  0.00     0.039 A 
ATOM      5  N1  <0> d          -2.709   2.212   2.317  0.00  0.00    -0.270 NA
ATOM      6  C6  <0> d          -2.082   1.792   1.236  0.00  0.00     0.008 A 
ATOM      7  F1  <0> d          -0.044   2.501   4.688  0.00  0.00    -0.205 F 
ATOM      8  H4  <0> d           1.062   1.649   2.451  0.00  0.00     0.089 H 
ATOM      9  H5  <0> d          -2.612   2.796   4.308  0.00  0.00     0.119 H 
ATOM     10  H6  <0> d          -2.643   1.613   0.330  0.00  0.00     0.115 H 
ENDROOT
BRANCH   1  11
ATOM     11  C1  <0> d          -0.013   1.086   0.008  0.00  0.00    -0.050 C 
ATOM     12  H1  <0> d           0.002  -0.004   0.002  0.00  0.00     0.033 H 
ATOM     13  H2  <0> d           1.010   1.463   0.000  0.00  0.00     0.033 H 
ATOM     14  H3  <0> d          -0.540   1.447  -0.875  0.00  0.00     0.033 H 
ENDBRANCH   1  11
TORSDOF 1
