REMARK  7 active torsions:
REMARK  status: ('A' for Active; 'I' for Inactive)
REMARK    1  A    between atoms: C1_1  and  C2_2 
REMARK    2  A    between atoms: C2_2  and  C3_3 
REMARK    3  A    between atoms: C3_3  and  C4_4 
REMARK    4  A    between atoms: C4_4  and  O1_5 
REMARK    5  A    between atoms: O1_5  and  C5_6 
REMARK       I    between atoms: C5_6  and  N1_8 
REMARK    6  A    between atoms: N1_8  and  C6_9 
REMARK    7  A    between atoms: N1_8  and  C7_10 
ROOT
ATOM      1  C4  <0> d           2.371   1.126  -0.015  0.00  0.00     0.030 C 
ATOM      2  H8  <0> d           2.413   0.493   0.872  0.00  0.00     0.075 H 
ATOM      3  H9  <0> d           2.396   0.502  -0.908  0.00  0.00     0.075 H 
ENDROOT
BRANCH   1   4
ATOM      4  C3  <0> d           3.571   2.074  -0.021  0.00  0.00    -0.045 C 
ATOM      5  H6  <0> d           3.529   2.707  -0.907  0.00  0.00     0.036 H 
ATOM      6  H7  <0> d           3.546   2.698   0.873  0.00  0.00     0.036 H 
BRANCH   4   7
ATOM      7  C2  <0> d           4.865   1.258  -0.038  0.00  0.00    -0.067 C 
ATOM      8  H4  <0> d           4.907   0.625   0.849  0.00  0.00     0.032 H 
ATOM      9  H5  <0> d           4.890   0.635  -0.931  0.00  0.00     0.032 H 
BRANCH   7  10
ATOM     10  C1  <0> d           6.066   2.207  -0.044  0.00  0.00    -0.076 C 
ATOM     11  H1  <0> d           6.024   2.840  -0.930  0.00  0.00     0.027 H 
ATOM     12  H2  <0> d           6.041   2.830   0.850  0.00  0.00     0.027 H 
ATOM     13  H3  <0> d           6.988   1.626  -0.056  0.00  0.00     0.027 H 
ENDBRANCH   7  10
ENDBRANCH   4   7
ENDBRANCH   1   4
BRANCH   1  14
ATOM     14  O1  <0> d           1.142   1.900   0.001  0.00  0.00    -0.304 OA
BRANCH  14  15
ATOM     15  C5  <0> d          -0.014   1.211   0.009  0.00  0.00     0.362 C 
ATOM     16  O2  <0> d           0.002  -0.004   0.002  0.00  0.00    -0.238 OA
ATOM     17  N1  <0> d          -1.191   1.869   0.018  0.00  0.00    -0.337 N 
BRANCH  17  18
ATOM     18  C6  <0> d          -2.449   1.119   0.020  0.00  0.00    -0.015 C 
ATOM     19  H10 <0> d          -2.757   0.928   1.048  0.00  0.00     0.056 H 
ATOM     20  H11 <0> d          -3.219   1.701  -0.487  0.00  0.00     0.056 H 
ATOM     21  H12 <0> d          -2.308   0.171  -0.500  0.00  0.00     0.056 H 
ENDBRANCH  17  18
BRANCH  17  22
ATOM     22  C7  <0> d          -1.210   3.334   0.026  0.00  0.00    -0.015 C 
ATOM     23  H13 <0> d          -1.220   3.703  -1.000  0.00  0.00     0.056 H 
ATOM     24  H14 <0> d          -2.103   3.682   0.546  0.00  0.00     0.056 H 
ATOM     25  H15 <0> d          -0.323   3.706   0.538  0.00  0.00     0.056 H 
ENDBRANCH  17  22
ENDBRANCH  14  15
ENDBRANCH   1  14
TORSDOF 7
