REMARK  2 active torsions:
REMARK  status: ('A' for Active; 'I' for Inactive)
REMARK    1  A    between atoms: C1_1  and  N1_2 
REMARK    2  A    between atoms: C2_3  and  N3_10 
ROOT
ATOM      1  N1  <0> d           0.002  -0.004   0.002  0.00  0.00    -0.258 N 
ATOM      2  C2  <0> d           0.008  -0.793  -1.095  0.00  0.00     0.125 A 
ATOM      3  C3  <0> d           0.028  -2.088  -0.671  0.00  0.00     0.013 A 
ATOM      4  C4  <0> d           0.035  -2.081   0.726  0.00  0.00     0.065 A 
ATOM      5  N2  <0> d           0.025  -0.834   1.129  0.00  0.00    -0.175 NA
ATOM      6  C5  <0> d           0.058  -3.505   1.239  0.00  0.00    -0.022 C 
ATOM      7  C6  <0> d          -0.376  -4.374   0.041  0.00  0.00    -0.056 C 
ATOM      8  C7  <0> d           0.046  -3.516  -1.171  0.00  0.00    -0.035 C 
ATOM      9  H4  <0> d           1.065  -3.775   1.558  0.00  0.00     0.042 H 
ATOM     10  H5  <0> d          -0.644  -3.620   2.065  0.00  0.00     0.042 H 
ATOM     11  H6  <0> d           0.153  -5.327   0.043  0.00  0.00     0.034 H 
ATOM     12  H7  <0> d          -1.455  -4.530   0.047  0.00  0.00     0.034 H 
ATOM     13  H8  <0> d          -0.665  -3.639  -1.988  0.00  0.00     0.040 H 
ATOM     14  H9  <0> d           1.049  -3.790  -1.497  0.00  0.00     0.040 H 
ENDROOT
BRANCH   1  15
ATOM     15  C1  <0> d          -0.018   1.461   0.010  0.00  0.00     0.004 C 
ATOM     16  H1  <0> d           1.005   1.838   0.002  0.00  0.00     0.059 H 
ATOM     17  H2  <0> d          -0.545   1.822  -0.873  0.00  0.00     0.059 H 
ATOM     18  H3  <0> d          -0.528   1.812   0.907  0.00  0.00     0.059 H 
ENDBRANCH   1  15
BRANCH   2  19
ATOM     19  N3  <0> d          -0.004  -0.362  -2.419  0.00  0.00    -0.384 N 
ATOM     20  H10 <0> d          -0.018   0.587  -2.619  0.00  0.00     0.157 HD
ATOM     21  H11 <0> d           0.001  -1.010  -3.141  0.00  0.00     0.157 HD
ENDBRANCH   2  19
TORSDOF 2
