REMARK  6 active torsions:
REMARK  status: ('A' for Active; 'I' for Inactive)
REMARK    1  A    between atoms: C1_1  and  C2_2 
REMARK    2  A    between atoms: C1_1  and  O3_7 
REMARK    3  A    between atoms: C2_2  and  C3_3 
REMARK    4  A    between atoms: C2_2  and  C4_5 
REMARK    5  A    between atoms: C3_3  and  O1_4 
REMARK    6  A    between atoms: C4_5  and  O2_6 
ROOT
ATOM      1  C2  <0> d          -0.013   1.086   0.008  0.00  0.00     0.007 C 
ATOM      2  H3  <0> d           0.002  -0.004   0.002  0.00  0.00     0.049 H 
ENDROOT
BRANCH   1   3
ATOM      3  C1  <0> d           1.423   1.615  -0.003  0.00  0.00     0.024 C 
ATOM      4  H1  <0> d           1.905   1.339  -0.940  0.00  0.00     0.074 H 
ATOM      5  H2  <0> d           1.410   2.701   0.093  0.00  0.00     0.074 H 
BRANCH   3   6
ATOM      6  O3  <0> d           2.147   1.049   1.091  0.00  0.00    -0.400 OA
ATOM      7  H10 <0> d           3.068   1.342   1.146  0.00  0.00     0.209 HD
ENDBRANCH   3   6
ENDBRANCH   1   3
BRANCH   1   8
ATOM      8  C3  <0> d          -0.753   1.593  -1.232  0.00  0.00     0.024 C 
ATOM      9  H4  <0> d          -1.798   1.290  -1.179  0.00  0.00     0.074 H 
ATOM     10  H5  <0> d          -0.691   2.680  -1.272  0.00  0.00     0.074 H 
BRANCH   8  11
ATOM     11  O1  <0> d          -0.154   1.037  -2.404  0.00  0.00    -0.400 OA
ATOM     12  H6  <0> d          -0.573   1.316  -3.230  0.00  0.00     0.209 HD
ENDBRANCH   8  11
ENDBRANCH   1   8
BRANCH   1  13
ATOM     13  C4  <0> d          -0.729   1.579   1.267  0.00  0.00     0.024 C 
ATOM     14  H7  <0> d          -0.666   2.666   1.318  0.00  0.00     0.074 H 
ATOM     15  H8  <0> d          -1.776   1.277   1.232  0.00  0.00     0.074 H 
BRANCH  13  16
ATOM     16  O2  <0> d          -0.108   1.012   2.422  0.00  0.00    -0.400 OA
ATOM     17  H9  <0> d          -0.511   1.282   3.258  0.00  0.00     0.209 HD
ENDBRANCH  13  16
ENDBRANCH   1  13
TORSDOF 6
