REMARK  2 active torsions:
REMARK  status: ('A' for Active; 'I' for Inactive)
REMARK    1  A    between atoms: C3_3  and  C5_6 
REMARK    2  A    between atoms: C5_6  and  N1_7 
REMARK       I    between atoms: N1_7  and  C6_8 
REMARK       I    between atoms: C6_8  and  N2_10 
ROOT
ATOM      1  C5  <0> d           0.002  -0.004   0.002  0.00  0.00     0.041 C 
ATOM      2  H4  <0> d          -0.498  -0.379   0.895  0.00  0.00     0.074 H 
ATOM      3  H5  <0> d          -0.515  -0.370  -0.885  0.00  0.00     0.074 H 
ENDROOT
BRANCH   1   4
ATOM      4  C3  <0> d           1.429  -0.487  -0.014  0.00  0.00     0.070 A 
ATOM      5  C2  <0> d           2.185  -0.745   1.068  0.00  0.00    -0.051 A 
ATOM      6  C1  <0> d           3.447  -1.171   0.595  0.00  0.00    -0.059 A 
ATOM      7  H2  <0> d           1.885  -0.645   2.101  0.00  0.00     0.087 H 
ATOM      8  C4  <0> d           3.388  -1.148  -0.749  0.00  0.00     0.019 A 
ATOM      9  H1  <0> d           4.297  -1.459   1.197  0.00  0.00     0.086 H 
ATOM     10  O1  <0> d           2.161  -0.738  -1.112  0.00  0.00    -0.325 OA
ATOM     11  H3  <0> d           4.188  -1.418  -1.421  0.00  0.00     0.123 H 
ENDBRANCH   1   4
BRANCH   1  12
ATOM     12  N1  <0> d          -0.018   1.461   0.010  0.00  0.00    -0.337 N 
ATOM     13  C6  <0> d          -1.194   2.119   0.019  0.00  0.00     0.314 C 
ATOM     14  O2  <0> d          -2.239   1.496   0.021  0.00  0.00    -0.248 OA
ATOM     15  N2  <0> d          -1.212   3.466   0.027  0.00  0.00    -0.352 N 
ATOM     16  H7  <0> d          -0.379   3.963   0.025  0.00  0.00     0.160 HD
ATOM     17  H8  <0> d          -2.059   3.940   0.033  0.00  0.00     0.160 HD
ATOM     18  H6  <0> d           0.816   1.957   0.005  0.00  0.00     0.164 HD
ENDBRANCH   1  12
TORSDOF 2
