REMARK  2 active torsions:
REMARK  status: ('A' for Active; 'I' for Inactive)
REMARK    1  A    between atoms: C7_9  and  C8_11 
REMARK    2  A    between atoms: C8_11  and  O1_12 
ROOT
ATOM      1  C1  <0> d          -1.323   3.679  -0.285  0.00  0.00    -0.061 C 
ATOM      2  C2  <0> d          -0.491   3.050  -1.425  0.00  0.00    -0.061 C 
ATOM      3  C3  <0> d          -0.761   1.490  -1.299  0.00  0.00    -0.048 C 
ATOM      4  H1  <0> d          -0.545   0.884  -2.179  0.00  0.00     0.040 H 
ATOM      5  C4  <0> d          -2.248   1.499  -0.786  0.00  0.00    -0.058 C 
ATOM      6  C5  <0> d          -2.002   2.468   0.424  0.00  0.00    -0.053 C 
ATOM      7  H2  <0> d          -2.871   2.701   1.039  0.00  0.00     0.040 H 
ATOM      8  C6  <0> d          -0.832   1.733   1.148  0.00  0.00    -0.056 C 
ATOM      9  C7  <0> d          -0.013   1.086   0.008  0.00  0.00    -0.030 C 
ATOM     10  H3  <0> d           0.001   0.002   0.118  0.00  0.00     0.043 H 
ATOM     11  H4  <0> d          -2.077   4.353  -0.691  0.00  0.00     0.033 H 
ATOM     12  H5  <0> d          -0.674   4.212   0.411  0.00  0.00     0.033 H 
ATOM     13  H6  <0> d          -0.837   3.414  -2.393  0.00  0.00     0.033 H 
ATOM     14  H7  <0> d           0.567   3.271  -1.291  0.00  0.00     0.033 H 
ATOM     15  H8  <0> d          -2.574   0.511  -0.459  0.00  0.00     0.034 H 
ATOM     16  H9  <0> d          -2.931   1.927  -1.520  0.00  0.00     0.034 H 
ATOM     17  H10 <0> d          -1.222   0.967   1.818  0.00  0.00     0.034 H 
ATOM     18  H11 <0> d          -0.219   2.446   1.699  0.00  0.00     0.034 H 
ENDROOT
BRANCH   9  19
ATOM     19  C8  <0> d           1.414   1.638  -0.003  0.00  0.00     0.020 C 
ATOM     20  H12 <0> d           1.943   1.261  -0.878  0.00  0.00     0.074 H 
ATOM     21  H13 <0> d           1.383   2.727  -0.038  0.00  0.00     0.074 H 
BRANCH  19  22
ATOM     22  O1  <0> d           2.096   1.219   1.182  0.00  0.00    -0.400 OA
ATOM     23  H14 <0> d           3.008   1.534   1.242  0.00  0.00     0.209 HD
ENDBRANCH  19  22
ENDBRANCH   9  19
TORSDOF 2
