REMARK  2 active torsions:
REMARK  status: ('A' for Active; 'I' for Inactive)
REMARK    1  A    between atoms: C4_4  and  N2_8 
REMARK    2  A    between atoms: C5_5  and  N1_7 
ROOT
ATOM      1  C1  <0> d          -0.017   1.379   0.010  0.00  0.00    -0.081 A 
ATOM      2  C2  <0> d           1.169   2.090   0.002  0.00  0.00    -0.081 A 
ATOM      3  C3  <0> d           2.380   1.423  -0.013  0.00  0.00    -0.056 A 
ATOM      4  C4  <0> d           2.408   0.037  -0.021  0.00  0.00     0.052 A 
ATOM      5  C5  <0> d           1.212  -0.681  -0.013  0.00  0.00     0.052 A 
ATOM      6  C6  <0> d           0.002  -0.004   0.002  0.00  0.00    -0.056 A 
ATOM      7  H1  <0> d          -0.960   1.904   0.026  0.00  0.00     0.083 H 
ATOM      8  H2  <0> d           1.149   3.170   0.008  0.00  0.00     0.083 H 
ATOM      9  H3  <0> d           3.304   1.982  -0.019  0.00  0.00     0.087 H 
ATOM     10  H4  <0> d          -0.926  -0.557   0.008  0.00  0.00     0.087 H 
ENDROOT
BRANCH   4  11
ATOM     11  N2  <0> d           3.633  -0.640  -0.037  0.00  0.00    -0.397 N 
ATOM     12  H7  <0> d           4.464  -0.140  -0.042  0.00  0.00     0.156 HD
ATOM     13  H8  <0> d           3.651  -1.610  -0.042  0.00  0.00     0.156 HD
ENDBRANCH   4  11
BRANCH   5  14
ATOM     14  N1  <0> d           1.234  -2.081  -0.021  0.00  0.00    -0.397 N 
ATOM     15  H5  <0> d           2.081  -2.553  -0.032  0.00  0.00     0.156 HD
ATOM     16  H6  <0> d           0.401  -2.579  -0.016  0.00  0.00     0.156 HD
ENDBRANCH   5  14
TORSDOF 2
