REMARK  6 active torsions:
REMARK  status: ('A' for Active; 'I' for Inactive)
REMARK    1  A    between atoms: C1_1  and  C2_2 
REMARK    2  A    between atoms: C2_2  and  C3_3 
REMARK    3  A    between atoms: C2_2  and  C4_4 
REMARK    4  A    between atoms: C4_4  and  C5_6 
REMARK    5  A    between atoms: C4_4  and  O2_10 
REMARK    6  A    between atoms: C6_7  and  C7_8 
ROOT
ATOM      1  C2  <0> d          -0.729   1.579   1.267  0.00  0.00    -0.026 C 
ATOM      2  H5  <0> d          -1.751   1.202   1.275  0.00  0.00     0.044 H 
ENDROOT
BRANCH   1   3
ATOM      3  C1  <0> d          -0.013   1.086   0.008  0.00  0.00    -0.070 C 
ATOM      4  H2  <0> d           0.002  -0.004   0.002  0.00  0.00     0.028 H 
ATOM      5  H3  <0> d           1.010   1.463   0.000  0.00  0.00     0.028 H 
ATOM      6  H4  <0> d          -0.540   1.447  -0.875  0.00  0.00     0.028 H 
ENDBRANCH   1   3
BRANCH   1   7
ATOM      7  C3  <0> d          -0.750   3.109   1.275  0.00  0.00    -0.070 C 
ATOM      8  H6  <0> d          -1.277   3.470   0.392  0.00  0.00     0.028 H 
ATOM      9  H7  <0> d          -1.260   3.461   2.172  0.00  0.00     0.028 H 
ATOM     10  H8  <0> d           0.273   3.486   1.268  0.00  0.00     0.028 H 
ENDBRANCH   1   7
BRANCH   1  11
ATOM     11  C4  <0> d           0.011   1.072   2.506  0.00  0.00     0.097 C 
ATOM     12  H1  <0> d           0.104  -0.013   2.456  0.00  0.00     0.103 H 
BRANCH  11  13
ATOM     13  C5  <0> d          -0.743   1.445   3.714  0.00  0.00    -0.063 C 
ATOM     14  C6  <0> d          -1.344   1.742   4.678  0.00  0.00     0.007 C 
BRANCH  14  15
ATOM     15  C7  <0> d          -2.078   2.105   5.853  0.00  0.00     0.258 C 
ATOM     16  O1  <0> d          -3.119   2.722   5.753  0.00  0.00    -0.637 OA
ATOM     17  O3  <0> d          -1.613   1.761   7.071  0.00  0.00    -0.637 OA
ENDBRANCH  14  15
ENDBRANCH  11  13
BRANCH  11  18
ATOM     18  O2  <0> d           1.313   1.660   2.557  0.00  0.00    -0.383 OA
ATOM     19  H9  <0> d           1.307   2.626   2.603  0.00  0.00     0.211 HD
ENDBRANCH  11  18
ENDBRANCH   1  11
TORSDOF 6
