REMARK  4 active torsions:
REMARK  status: ('A' for Active; 'I' for Inactive)
REMARK    1  A    between atoms: C1_1  and  C2_2 
REMARK    2  A    between atoms: C2_2  and  O1_3 
REMARK    3  A    between atoms: O1_3  and  C3_4 
REMARK    4  A    between atoms: C4_7  and  C5_9 
ROOT
ATOM      1  C3  <0> d          -0.151   1.183   2.375  0.00  0.00     0.312 A 
ATOM      2  N1  <0> d           0.914   0.445   2.557  0.00  0.00    -0.096 NA
ATOM      3  N2  <0> d           1.126   0.306   3.819  0.00  0.00    -0.125 NA
ATOM      4  C4  <0> d           0.206   0.940   4.486  0.00  0.00     0.167 A 
ATOM      5  O2  <0> d          -0.624   1.510   3.591  0.00  0.00    -0.255 OA
ENDROOT
BRANCH   1   6
ATOM      6  O1  <0> d          -0.682   1.547   1.184  0.00  0.00    -0.314 OA
BRANCH   6   7
ATOM      7  C2  <0> d          -0.013   1.086   0.008  0.00  0.00     0.026 C 
ATOM      8  H4  <0> d           0.002  -0.004   0.002  0.00  0.00     0.074 H 
ATOM      9  H5  <0> d           1.010   1.463   0.000  0.00  0.00     0.074 H 
BRANCH   7  10
ATOM     10  C1  <0> d          -0.753   1.593  -1.232  0.00  0.00    -0.056 C 
ATOM     11  H1  <0> d          -1.775   1.215  -1.224  0.00  0.00     0.030 H 
ATOM     12  H2  <0> d          -0.767   2.683  -1.226  0.00  0.00     0.030 H 
ATOM     13  H3  <0> d          -0.242   1.241  -2.128  0.00  0.00     0.030 H 
ENDBRANCH   7  10
ENDBRANCH   6   7
ENDBRANCH   1   6
BRANCH   4  14
ATOM     14  C5  <0> d           0.090   1.021   5.986  0.00  0.00    -0.013 C 
ATOM     15  H6  <0> d          -0.520   0.193   6.349  0.00  0.00     0.038 H 
ATOM     16  H7  <0> d           1.084   0.961   6.431  0.00  0.00     0.038 H 
ATOM     17  H8  <0> d          -0.376   1.966   6.264  0.00  0.00     0.038 H 
ENDBRANCH   4  14
TORSDOF 4
