REMARK  9 active torsions:
REMARK  status: ('A' for Active; 'I' for Inactive)
REMARK    1  A    between atoms: C1_1  and  C2_2 
REMARK    2  A    between atoms: C2_2  and  C3_3 
REMARK    3  A    between atoms: C3_3  and  O1_4 
REMARK    4  A    between atoms: O1_4  and  C4_5 
REMARK    5  A    between atoms: C4_5  and  C5_7 
REMARK    6  A    between atoms: C5_7  and  C6_8 
REMARK    7  A    between atoms: C6_8  and  C7_9 
REMARK    8  A    between atoms: C7_9  and  C8_10 
REMARK    9  A    between atoms: C7_9  and  C9_11 
ROOT
ATOM      1  C5  <0> d          -0.064   0.971   2.503  0.00  0.00     0.016 C 
ATOM      2  H8  <0> d           0.992   1.276   2.539  0.00  0.00     0.048 H 
ATOM      3  H9  <0> d          -0.127  -0.126   2.452  0.00  0.00     0.048 H 
ENDROOT
BRANCH   1   4
ATOM      4  C4  <0> d          -0.769   1.457   3.743  0.00  0.00     0.258 C 
ATOM      5  O2  <0> d          -1.708   2.212   3.648  0.00  0.00    -0.265 OA
BRANCH   4   6
ATOM      6  O1  <0> d          -0.355   1.051   4.954  0.00  0.00    -0.322 OA
BRANCH   6   7
ATOM      7  C3  <0> d          -1.081   1.560   6.104  0.00  0.00     0.029 C 
ATOM      8  H6  <0> d          -2.136   1.255   6.035  0.00  0.00     0.075 H 
ATOM      9  H7  <0> d          -1.017   2.658   6.122  0.00  0.00     0.075 H 
BRANCH   7  10
ATOM     10  C2  <0> d          -0.469   0.991   7.386  0.00  0.00    -0.048 C 
ATOM     11  H4  <0> d           0.586   1.295   7.454  0.00  0.00     0.035 H 
ATOM     12  H5  <0> d          -0.534  -0.107   7.367  0.00  0.00     0.035 H 
BRANCH  10  13
ATOM     13  C1  <0> d          -1.234   1.527   8.597  0.00  0.00    -0.075 C 
ATOM     14  H1  <0> d          -0.794   1.118   9.519  0.00  0.00     0.027 H 
ATOM     15  H2  <0> d          -2.289   1.223   8.528  0.00  0.00     0.027 H 
ATOM     16  H3  <0> d          -1.170   2.625   8.616  0.00  0.00     0.027 H 
ENDBRANCH  10  13
ENDBRANCH   7  10
ENDBRANCH   6   7
ENDBRANCH   4   6
ENDBRANCH   1   4
BRANCH   1  17
ATOM     17  C6  <0> d          -0.729   1.579   1.267  0.00  0.00    -0.054 C 
ATOM     18  H10 <0> d          -1.785   1.274   1.231  0.00  0.00     0.034 H 
ATOM     19  H11 <0> d          -0.666   2.676   1.318  0.00  0.00     0.034 H 
BRANCH  17  20
ATOM     20  C7  <0> d          -0.013   1.086   0.008  0.00  0.00    -0.061 C 
ATOM     21  H12 <0> d           0.002  -0.014   0.002  0.00  0.00     0.038 H 
BRANCH  20  22
ATOM     22  C8  <0> d           1.423   1.615  -0.003  0.00  0.00    -0.073 C 
ATOM     23  H13 <0> d           1.938   1.261  -0.908  0.00  0.00     0.028 H 
ATOM     24  H14 <0> d           1.955   1.251   0.888  0.00  0.00     0.028 H 
ATOM     25  H15 <0> d           1.408   2.715   0.003  0.00  0.00     0.028 H 
ENDBRANCH  20  22
BRANCH  20  26
ATOM     26  C9  <0> d          -0.753   1.593  -1.232  0.00  0.00    -0.073 C 
ATOM     27  H16 <0> d          -0.238   1.238  -2.136  0.00  0.00     0.028 H 
ATOM     28  H17 <0> d          -0.768   2.693  -1.225  0.00  0.00     0.028 H 
ATOM     29  H18 <0> d          -1.785   1.212  -1.224  0.00  0.00     0.028 H 
ENDBRANCH  20  26
ENDBRANCH  17  20
ENDBRANCH   1  17
TORSDOF 9
