REMARK  4 active torsions:
REMARK  status: ('A' for Active; 'I' for Inactive)
REMARK    1  A    between atoms: C1_1  and  C2_2 
REMARK    2  A    between atoms: C2_2  and  C3_3 
REMARK    3  A    between atoms: C3_3  and  N1_4 
REMARK    4  A    between atoms: N1_4  and  C4_5 
ROOT
ATOM      1  N1  <0> d          -0.698   1.558   1.213  0.00  0.00    -0.387 N 
ATOM      2  H8  <0> d          -1.602   2.179   1.124  0.00  0.00     0.159 HD
ENDROOT
BRANCH   1   3
ATOM      3  C3  <0> d          -0.013   1.086   0.008  0.00  0.00    -0.007 C 
ATOM      4  H6  <0> d           0.002  -0.014   0.002  0.00  0.00     0.063 H 
ATOM      5  H7  <0> d           1.019   1.466   0.000  0.00  0.00     0.063 H 
BRANCH   3   6
ATOM      6  C2  <0> d          -0.753   1.593  -1.232  0.00  0.00    -0.054 C 
ATOM      7  H4  <0> d          -0.767   2.693  -1.226  0.00  0.00     0.034 H 
ATOM      8  H5  <0> d          -1.785   1.212  -1.224  0.00  0.00     0.034 H 
BRANCH   6   9
ATOM      9  C1  <0> d          -0.037   1.099  -2.490  0.00  0.00    -0.075 C 
ATOM     10  H1  <0> d          -0.569   1.464  -3.381  0.00  0.00     0.027 H 
ATOM     11  H2  <0> d          -0.022  -0.001  -2.496  0.00  0.00     0.027 H 
ATOM     12  H3  <0> d           0.995   1.480  -2.498  0.00  0.00     0.027 H 
ENDBRANCH   6   9
ENDBRANCH   3   6
ENDBRANCH   1   3
BRANCH   1  13
ATOM     13  C4  <0> d          -0.204   1.220   2.477  0.00  0.00     0.067 A 
ATOM     14  C9  <0> d          -0.854   1.668   3.622  0.00  0.00     0.142 A 
ATOM     15  C8  <0> d          -0.362   1.331   4.870  0.00  0.00    -0.043 A 
ATOM     16  F1  <0> d          -1.964   2.430   3.516  0.00  0.00    -0.204 F 
ATOM     17  C7  <0> d           0.774   0.549   4.978  0.00  0.00    -0.080 A 
ATOM     18  H12 <0> d          -0.865   1.677   5.760  0.00  0.00     0.088 H 
ATOM     19  C6  <0> d           1.421   0.103   3.841  0.00  0.00    -0.081 A 
ATOM     20  H11 <0> d           1.157   0.287   5.954  0.00  0.00     0.083 H 
ATOM     21  C5  <0> d           0.933   0.432   2.591  0.00  0.00    -0.054 A 
ATOM     22  H10 <0> d           2.308  -0.507   3.930  0.00  0.00     0.083 H 
ATOM     23  H9  <0> d           1.438   0.079   1.704  0.00  0.00     0.087 H 
ENDBRANCH   1  13
TORSDOF 4
