REMARK  3 active torsions:
REMARK  status: ('A' for Active; 'I' for Inactive)
REMARK    1  A    between atoms: C1_1  and  C2_2 
REMARK    2  A    between atoms: C3_3  and  N4_9 
REMARK    3  A    between atoms: C4_4  and  N3_8 
ROOT
ATOM      1  C2  <0> d           0.002  -0.004   0.002  0.00  0.00     0.062 A 
ATOM      2  C3  <0> d          -0.017   1.383   0.010  0.00  0.00     0.096 A 
ATOM      3  C4  <0> d           1.210   2.062   0.002  0.00  0.00     0.151 A 
ATOM      4  N1  <0> d           2.334   1.355  -0.013  0.00  0.00    -0.223 NA
ATOM      5  C5  <0> d           2.303   0.037  -0.020  0.00  0.00     0.089 A 
ATOM      6  N2  <0> d           1.169  -0.633  -0.013  0.00  0.00    -0.244 NA
ATOM      7  H4  <0> d           3.234  -0.509  -0.032  0.00  0.00     0.146 H 
ENDROOT
BRANCH   1   8
ATOM      8  C1  <0> d          -1.287  -0.785   0.010  0.00  0.00    -0.033 C 
ATOM      9  H1  <0> d          -1.607  -0.968  -1.016  0.00  0.00     0.035 H 
ATOM     10  H2  <0> d          -1.131  -1.738   0.517  0.00  0.00     0.035 H 
ATOM     11  H3  <0> d          -2.054  -0.215   0.534  0.00  0.00     0.035 H 
ENDBRANCH   1   8
BRANCH   2  12
ATOM     12  N4  <0> d          -1.228   2.085   0.019  0.00  0.00    -0.394 N 
ATOM     13  H7  <0> d          -2.069   1.602   0.021  0.00  0.00     0.156 HD
ATOM     14  H8  <0> d          -1.226   3.055   0.025  0.00  0.00     0.156 HD
ENDBRANCH   2  12
BRANCH   3  15
ATOM     15  N3  <0> d           1.248   3.450   0.009  0.00  0.00    -0.382 N 
ATOM     16  H5  <0> d           0.421   3.958   0.019  0.00  0.00     0.157 HD
ATOM     17  H6  <0> d           2.101   3.911   0.003  0.00  0.00     0.157 HD
ENDBRANCH   3  15
TORSDOF 3
