REMARK  3 active torsions:
REMARK  status: ('A' for Active; 'I' for Inactive)
REMARK    1  A    between atoms: C1_1  and  C2_2 
REMARK    2  A    between atoms: C2_2  and  C3_3 
REMARK    3  A    between atoms: C6_6  and  O1_10 
ROOT
ATOM      1  C3  <0> d          -0.718   1.572   1.248  0.00  0.00    -0.057 A 
ATOM      2  C4  <0> d          -0.359   2.779   1.818  0.00  0.00    -0.074 A 
ATOM      3  C5  <0> d          -1.007   3.230   2.952  0.00  0.00    -0.049 A 
ATOM      4  C6  <0> d          -2.011   2.465   3.525  0.00  0.00     0.087 A 
ATOM      5  C7  <0> d          -2.367   1.250   2.955  0.00  0.00     0.067 A 
ATOM      6  C8  <0> d          -1.719   0.807   1.817  0.00  0.00    -0.053 A 
ATOM      7 Cl1  <0> d          -3.624   0.289   3.670  0.00  0.00    -0.081 Cl
ATOM      8  H6  <0> d           0.427   3.373   1.374  0.00  0.00     0.084 H 
ATOM      9  H7  <0> d          -0.728   4.175   3.394  0.00  0.00     0.087 H 
ATOM     10  H8  <0> d          -1.995  -0.138   1.372  0.00  0.00     0.087 H 
ENDROOT
BRANCH   1  11
ATOM     11  C2  <0> d          -0.013   1.086   0.008  0.00  0.00    -0.044 C 
ATOM     12  H4  <0> d           0.002  -0.004   0.002  0.00  0.00     0.039 H 
ATOM     13  H5  <0> d           1.010   1.463   0.000  0.00  0.00     0.039 H 
BRANCH  11  14
ATOM     14  C1  <0> d          -0.753   1.593  -1.232  0.00  0.00    -0.073 C 
ATOM     15  H1  <0> d          -0.767   2.683  -1.226  0.00  0.00     0.028 H 
ATOM     16  H2  <0> d          -0.242   1.241  -2.128  0.00  0.00     0.028 H 
ATOM     17  H3  <0> d          -1.775   1.215  -1.224  0.00  0.00     0.028 H 
ENDBRANCH  11  14
ENDBRANCH   1  11
BRANCH   4  18
ATOM     18  O1  <0> d          -2.647   2.904   4.644  0.00  0.00    -0.359 OA
ATOM     19  H9  <0> d          -2.232   2.619   5.470  0.00  0.00     0.217 HD
ENDBRANCH   4  18
TORSDOF 3
