REMARK  0 active torsions:
REMARK  status: ('A' for Active; 'I' for Inactive)
ROOT
ATOM      1  C1  <0> d          -0.587   2.986  -1.618  0.00  0.00    -0.064 C 
ATOM      2  C2  <0> d          -1.048   4.159  -0.827  0.00  0.00    -0.061 C 
ATOM      3  C3  <0> d          -0.873   4.002   0.685  0.00  0.00    -0.048 C 
ATOM      4  C4  <0> d           0.556   3.809   1.128  0.00  0.00    -0.061 C 
ATOM      5  C5  <0> d           1.477   3.134   0.176  0.00  0.00    -0.064 C 
ATOM      6  C6  <0> d           1.423   1.653  -0.003  0.00  0.00    -0.055 C 
ATOM      7  C7  <0> d          -0.013   1.107   0.008  0.00  0.00     0.004 C 
ATOM      8  C8  <0> d          -0.851   1.601  -1.143  0.00  0.00    -0.055 C 
ATOM      9  C9  <0> d          -0.698   1.603   1.301  0.00  0.00     0.131 C 
ATOM     10  O1  <0> d          -0.471   1.099   2.372  0.00  0.00    -0.298 OA
ATOM     11  C10 <0> d          -1.671   2.748   1.166  0.00  0.00    -0.006 C 
ATOM     12  H1  <0> d          -1.109   3.065  -2.602  0.00  0.00     0.033 H 
ATOM     13  H2  <0> d           0.460   3.085  -1.895  0.00  0.00     0.033 H 
ATOM     14  H3  <0> d          -2.112   4.349  -1.053  0.00  0.00     0.033 H 
ATOM     15  H4  <0> d          -0.502   5.058  -1.165  0.00  0.00     0.033 H 
ATOM     16  H5  <0> d          -1.285   4.897   1.197  0.00  0.00     0.040 H 
ATOM     17  H6  <0> d           0.563   3.266   2.080  0.00  0.00     0.033 H 
ATOM     18  H7  <0> d           0.972   4.806   1.353  0.00  0.00     0.033 H 
ATOM     19  H8  <0> d           2.506   3.352   0.553  0.00  0.00     0.033 H 
ATOM     20  H9  <0> d           1.458   3.647  -0.782  0.00  0.00     0.033 H 
ATOM     21  H10 <0> d           2.009   1.167   0.796  0.00  0.00     0.034 H 
ATOM     22  H11 <0> d           1.913   1.382  -0.954  0.00  0.00     0.034 H 
ATOM     23  H12 <0> d           0.010   0.108  -0.028  0.00  0.00     0.051 H 
ATOM     24  H13 <0> d          -0.686   0.916  -1.992  0.00  0.00     0.034 H 
ATOM     25  H14 <0> d          -1.910   1.501  -0.885  0.00  0.00     0.034 H 
ATOM     26  H15 <0> d          -2.092   2.941   2.052  0.00  0.00     0.044 H 
ATOM     27  H16 <0> d          -2.453   2.502   0.459  0.00  0.00     0.044 H 
ENDROOT
TORSDOF 0
