REMARK  7 active torsions:
REMARK  status: ('A' for Active; 'I' for Inactive)
REMARK    1  A    between atoms: C1_1  and  C2_2 
REMARK    2  A    between atoms: C2_2  and  C3_3 
REMARK    3  A    between atoms: C3_3  and  C4_5 
REMARK    4  A    between atoms: C3_3  and  C5_6 
REMARK    5  A    between atoms: C5_6  and  O2_8 
REMARK    6  A    between atoms: O2_8  and  S1_9 
REMARK    7  A    between atoms: S1_9  and  C6_10 
ROOT
ATOM      1  C3  <0> d          -1.433  -0.534   0.013  0.00  0.00     0.027 C 
ATOM      2  H1  <0> d          -1.986  -0.102  -0.821  0.00  0.00     0.054 H 
ENDROOT
BRANCH   1   3
ATOM      3  C2  <0> d           0.002  -0.004   0.002  0.00  0.00    -0.057 C 
ATOM      4  H5  <0> d           0.512  -0.356  -0.895  0.00  0.00     0.033 H 
ATOM      5  H6  <0> d           0.529  -0.365   0.885  0.00  0.00     0.033 H 
BRANCH   3   6
ATOM      6  C1  <0> d          -0.019   1.526   0.010  0.00  0.00    -0.076 C 
ATOM      7  H2  <0> d           1.004   1.903   0.003  0.00  0.00     0.027 H 
ATOM      8  H3  <0> d          -0.546   1.887  -0.873  0.00  0.00     0.027 H 
ATOM      9  H4  <0> d          -0.529   1.877   0.907  0.00  0.00     0.027 H 
ENDBRANCH   3   6
ENDBRANCH   1   3
BRANCH   1  10
ATOM     10  C4  <0> d          -2.110  -0.145   1.329  0.00  0.00    -0.064 C 
ATOM     11  H7  <0> d          -1.557  -0.577   2.163  0.00  0.00     0.028 H 
ATOM     12  H8  <0> d          -2.123   0.941   1.424  0.00  0.00     0.028 H 
ATOM     13  H9  <0> d          -3.133  -0.522   1.337  0.00  0.00     0.028 H 
ENDBRANCH   1  10
BRANCH   1  14
ATOM     14  C5  <0> d          -1.416  -2.035  -0.119  0.00  0.00     0.274 C 
ATOM     15  O1  <0> d          -0.363  -2.621  -0.212  0.00  0.00    -0.264 OA
BRANCH  14  16
ATOM     16  O2  <0> d          -2.570  -2.721  -0.133  0.00  0.00    -0.245 OA
BRANCH  16  17
ATOM     17  S1  <0> d          -2.393  -4.226  -0.272  0.00  0.00    -0.006 SA
BRANCH  17  18
ATOM     18  C6  <0> d          -4.089  -4.870  -0.261  0.00  0.00    -0.010 C 
ATOM     19  H10 <0> d          -4.067  -5.955  -0.357  0.00  0.00     0.045 H 
ATOM     20  H11 <0> d          -4.575  -4.598   0.676  0.00  0.00     0.045 H 
ATOM     21  H12 <0> d          -4.645  -4.442  -1.095  0.00  0.00     0.045 H 
ENDBRANCH  17  18
ENDBRANCH  16  17
ENDBRANCH  14  16
ENDBRANCH   1  14
TORSDOF 7
