REMARK  8 active torsions:
REMARK  status: ('A' for Active; 'I' for Inactive)
REMARK    1  A    between atoms: C1_1  and  C2_2 
REMARK    2  A    between atoms: C2_2  and  C3_3 
REMARK    3  A    between atoms: C3_3  and  C4_4 
REMARK    4  A    between atoms: C3_3  and  C5_5 
REMARK    5  A    between atoms: C3_3  and  O3_10 
REMARK    6  A    between atoms: C5_5  and  O2_7 
REMARK    7  A    between atoms: O2_7  and  C6_8 
REMARK    8  A    between atoms: C6_8  and  C7_9 
ROOT
ATOM      1  C3  <0> d           0.002  -0.004   0.002  0.00  0.00     0.141 C 
ENDROOT
BRANCH   1   2
ATOM      2  C2  <0> d           0.742  -0.511   1.242  0.00  0.00    -0.031 C 
ATOM      3  H4  <0> d           0.835  -1.596   1.191  0.00  0.00     0.037 H 
ATOM      4  H5  <0> d           1.735  -0.063   1.280  0.00  0.00     0.037 H 
BRANCH   2   5
ATOM      5  C1  <0> d          -0.042  -0.124   2.497  0.00  0.00    -0.073 C 
ATOM      6  H1  <0> d           0.486  -0.485   3.380  0.00  0.00     0.027 H 
ATOM      7  H2  <0> d          -0.134   0.961   2.548  0.00  0.00     0.027 H 
ATOM      8  H3  <0> d          -1.034  -0.572   2.458  0.00  0.00     0.027 H 
ENDBRANCH   2   5
ENDBRANCH   1   2
BRANCH   1   9
ATOM      9  C4  <0> d          -1.433  -0.534   0.013  0.00  0.00    -0.039 C 
ATOM     10  H6  <0> d          -1.960  -0.173  -0.870  0.00  0.00     0.032 H 
ATOM     11  H7  <0> d          -1.419  -1.623   0.007  0.00  0.00     0.032 H 
ATOM     12  H8  <0> d          -1.944  -0.182   0.910  0.00  0.00     0.032 H 
ENDBRANCH   1   9
BRANCH   1  13
ATOM     13  C5  <0> d           0.707  -0.490  -1.238  0.00  0.00     0.293 C 
ATOM     14  O1  <0> d           1.383  -1.491  -1.195  0.00  0.00    -0.262 OA
BRANCH  13  15
ATOM     15  O2  <0> d           0.585   0.189  -2.389  0.00  0.00    -0.320 OA
BRANCH  15  16
ATOM     16  C6  <0> d           1.292  -0.337  -3.543  0.00  0.00     0.026 C 
ATOM     17  H9  <0> d           2.361  -0.366  -3.332  0.00  0.00     0.074 H 
ATOM     18  H10 <0> d           0.937  -1.345  -3.758  0.00  0.00     0.074 H 
BRANCH  16  19
ATOM     19  C7  <0> d           1.035   0.563  -4.753  0.00  0.00    -0.056 C 
ATOM     20  H11 <0> d           1.390   1.571  -4.538  0.00  0.00     0.030 H 
ATOM     21  H12 <0> d           1.566   0.168  -5.619  0.00  0.00     0.030 H 
ATOM     22  H13 <0> d          -0.034   0.591  -4.964  0.00  0.00     0.030 H 
ENDBRANCH  16  19
ENDBRANCH  15  16
ENDBRANCH  13  15
ENDBRANCH   1  13
BRANCH   1  23
ATOM     23  O3  <0> d          -0.017   1.425   0.010  0.00  0.00    -0.380 OA
ATOM     24  H14 <0> d           0.861   1.830   0.004  0.00  0.00     0.211 HD
ENDBRANCH   1  23
TORSDOF 8
