REMARK  2 active torsions:
REMARK  status: ('A' for Active; 'I' for Inactive)
REMARK    1  A    between atoms: C5_6  and  C8_10 
REMARK    2  A    between atoms: C8_10  and  O1_11 
ROOT
ATOM      1  C1  <0> d          -1.240   1.758   0.018  0.00  0.00    -0.078 A 
ATOM      2  C2  <0> d          -0.013   1.076   0.008  0.00  0.00    -0.067 A 
ATOM      3  C3  <0> d           1.149   1.763   0.001  0.00  0.00    -0.014 A 
ATOM      4  N1  <0> d           1.148   3.128   0.007  0.00  0.00    -0.316 N 
ATOM      5  C4  <0> d           2.156   4.054   0.002  0.00  0.00     0.012 A 
ATOM      6  C5  <0> d           1.576   5.274   0.014  0.00  0.00     0.076 A 
ATOM      7  N2  <0> d           0.250   5.117   0.026  0.00  0.00    -0.232 NA
ATOM      8  C6  <0> d          -0.034   3.822   0.022  0.00  0.00     0.134 A 
ATOM      9  C7  <0> d          -1.255   3.119   0.031  0.00  0.00    -0.038 A 
ATOM     10  H1  <0> d          -2.168   1.206   0.019  0.00  0.00     0.083 H 
ATOM     11  H2  <0> d           0.002  -0.004   0.002  0.00  0.00     0.085 H 
ATOM     12  H3  <0> d           2.087   1.229  -0.011  0.00  0.00     0.112 H 
ATOM     13  H4  <0> d           3.216   3.848  -0.009  0.00  0.00     0.115 H 
ATOM     14  H5  <0> d          -2.193   3.654   0.042  0.00  0.00     0.089 H 
ENDROOT
BRANCH   6  15
ATOM     15  C8  <0> d           2.304   6.594   0.014  0.00  0.00     0.058 C 
ATOM     16  H6  <0> d           2.021   7.165  -0.871  0.00  0.00     0.083 H 
ATOM     17  H7  <0> d           2.039   7.155   0.909  0.00  0.00     0.083 H 
BRANCH  15  18
ATOM     18  O1  <0> d           3.714   6.360  -0.002  0.00  0.00    -0.395 OA
ATOM     19  H8  <0> d           4.247   7.167  -0.003  0.00  0.00     0.209 HD
ENDBRANCH  15  18
ENDBRANCH   6  15
TORSDOF 2
