REMARK  8 active torsions:
REMARK  status: ('A' for Active; 'I' for Inactive)
REMARK    1  A    between atoms: C1_1  and  C2_2 
REMARK    2  A    between atoms: C2_2  and  C3_3 
REMARK    3  A    between atoms: C3_3  and  C4_4 
REMARK    4  A    between atoms: C4_4  and  C5_5 
REMARK    5  A    between atoms: C5_5  and  C6_7 
REMARK    6  A    between atoms: C5_5  and  N1_11 
REMARK    7  A    between atoms: C6_7  and  O2_9 
REMARK    8  A    between atoms: O2_9  and  C7_10 
ROOT
ATOM      1  C4  <0> d           0.739  -2.027  -1.265  0.00  0.00    -0.027 C 
ATOM      2  H9  <0> d           1.266  -2.388  -0.382  0.00  0.00     0.036 H 
ATOM      3  H10 <0> d          -0.284  -2.405  -1.258  0.00  0.00     0.036 H 
ENDROOT
BRANCH   1   4
ATOM      4  C3  <0> d           0.718  -0.497  -1.257  0.00  0.00    -0.063 C 
ATOM      5  H7  <0> d           0.191  -0.136  -2.140  0.00  0.00     0.033 H 
ATOM      6  H8  <0> d           1.741  -0.120  -1.264  0.00  0.00     0.033 H 
BRANCH   4   7
ATOM      7  C2  <0> d           0.002  -0.004   0.002  0.00  0.00    -0.068 C 
ATOM      8  H5  <0> d           0.529  -0.365   0.885  0.00  0.00     0.032 H 
ATOM      9  H6  <0> d          -1.020  -0.381   0.010  0.00  0.00     0.032 H 
BRANCH   7  10
ATOM     10  C1  <0> d          -0.019   1.526   0.010  0.00  0.00    -0.077 C 
ATOM     11  H2  <0> d           1.004   1.903   0.003  0.00  0.00     0.027 H 
ATOM     12  H3  <0> d          -0.546   1.887  -0.873  0.00  0.00     0.027 H 
ATOM     13  H4  <0> d          -0.529   1.877   0.907  0.00  0.00     0.027 H 
ENDBRANCH   7  10
ENDBRANCH   4   7
ENDBRANCH   1   4
BRANCH   1  14
ATOM     14  C5  <0> d           1.455  -2.521  -2.524  0.00  0.00     0.213 C 
ATOM     15  H1  <0> d           2.447  -2.072  -2.577  0.00  0.00     0.104 H 
BRANCH  14  16
ATOM     16  C6  <0> d           1.584  -4.021  -2.473  0.00  0.00     0.291 C 
ATOM     17  O1  <0> d           0.813  -4.715  -3.092  0.00  0.00    -0.263 OA
BRANCH  16  18
ATOM     18  O2  <0> d           2.556  -4.587  -1.739  0.00  0.00    -0.325 OA
BRANCH  18  19
ATOM     19  C7  <0> d           2.619  -6.014  -1.737  0.00  0.00     0.013 C 
ATOM     20  H11 <0> d           2.774  -6.373  -2.754  0.00  0.00     0.067 H 
ATOM     21  H12 <0> d           3.447  -6.340  -1.107  0.00  0.00     0.067 H 
ATOM     22  H13 <0> d           1.685  -6.419  -1.347  0.00  0.00     0.067 H 
ENDBRANCH  18  19
ENDBRANCH  16  18
ENDBRANCH  14  16
BRANCH  14  23
ATOM     23  N1  <0> d           0.680  -2.136  -3.711  0.00  0.00     0.092 N 
ATOM     24  H14 <0> d           1.164  -2.394  -4.558  0.00  0.00     0.313 HD
ATOM     25  H15 <0> d          -0.245  -2.540  -3.686  0.00  0.00     0.313 HD
ENDBRANCH  14  23
ENDBRANCH   1  14
TORSDOF 8
