REMARK  2 active torsions:
REMARK  status: ('A' for Active; 'I' for Inactive)
REMARK    1  A    between atoms: C1_1  and  C2_2 
REMARK    2  A    between atoms: C5_8  and  C6_10 
ROOT
ATOM      1  C2  <0> d           0.002  -0.004   0.002  0.00  0.00    -0.012 C 
ATOM      2  H1  <0> d           0.512  -0.357  -0.894  0.00  0.00     0.046 H 
ATOM      3  C3  <0> d          -1.435  -0.537   0.019  0.00  0.00     0.027 C 
ATOM      4  O1  <0> d          -2.050  -0.175   1.259  0.00  0.00    -0.366 OA
ATOM      5  C4  <0> d          -1.355  -0.660   2.411  0.00  0.00     0.103 C 
ATOM      6  O2  <0> d          -0.018  -0.153   2.410  0.00  0.00    -0.362 OA
ATOM      7  C5  <0> d           0.737  -0.514   1.246  0.00  0.00     0.042 C 
ATOM      8  H2  <0> d           0.832  -1.599   1.195  0.00  0.00     0.083 H 
ATOM      9  H6  <0> d          -1.996  -0.101  -0.807  0.00  0.00     0.075 H 
ATOM     10  H7  <0> d          -1.422  -1.623  -0.078  0.00  0.00     0.075 H 
ATOM     11  H8  <0> d          -1.869  -0.328   3.312  0.00  0.00     0.117 H 
ATOM     12  H9  <0> d          -1.331  -1.750   2.388  0.00  0.00     0.117 H 
ENDROOT
BRANCH   1  13
ATOM     13  C1  <0> d          -0.019   1.526   0.010  0.00  0.00    -0.069 C 
ATOM     14  H3  <0> d           1.004   1.903   0.003  0.00  0.00     0.028 H 
ATOM     15  H4  <0> d          -0.546   1.887  -0.873  0.00  0.00     0.028 H 
ATOM     16  H5  <0> d          -0.529   1.877   0.907  0.00  0.00     0.028 H 
ENDBRANCH   1  13
BRANCH   7  17
ATOM     17  C6  <0> d           2.128   0.120   1.316  0.00  0.00    -0.052 C 
ATOM     18  H10 <0> d           2.030   1.204   1.372  0.00  0.00     0.030 H 
ATOM     19  H11 <0> d           2.649  -0.244   2.201  0.00  0.00     0.030 H 
ATOM     20  H12 <0> d           2.695  -0.148   0.424  0.00  0.00     0.030 H 
ENDBRANCH   7  17
TORSDOF 2
