REMARK  2 active torsions:
REMARK  status: ('A' for Active; 'I' for Inactive)
REMARK    1  A    between atoms: C1_1  and  C2_2 
REMARK    2  A    between atoms: C6_6  and  C8_9 
ROOT
ATOM      1  C8  <0> d          -0.018   1.468   0.010  0.00  0.00     0.041 C 
ATOM      2  C9  <0> d           0.002  -0.004   0.002  0.00  0.00     0.063 C 
ATOM      3  N1  <0> d           0.018  -1.140  -0.004  0.00  0.00    -0.197 NA
ATOM      4  H7  <0> d          -0.545   1.829  -0.873  0.00  0.00     0.062 H 
ATOM      5  H8  <0> d          -0.528   1.819   0.907  0.00  0.00     0.062 H 
ENDROOT
BRANCH   1   6
ATOM      6  C6  <0> d           1.396   1.989  -0.001  0.00  0.00    -0.006 A 
ATOM      7  C5  <0> d           2.020   2.320   1.187  0.00  0.00    -0.073 A 
ATOM      8  C4  <0> d           3.317   2.799   1.178  0.00  0.00    -0.082 A 
ATOM      9  H6  <0> d           1.494   2.205   2.123  0.00  0.00     0.084 H 
ATOM     10  C3  <0> d           3.991   2.948  -0.020  0.00  0.00    -0.074 A 
ATOM     11  H5  <0> d           3.803   3.058   2.107  0.00  0.00     0.083 H 
ATOM     12  C2  <0> d           3.369   2.617  -1.209  0.00  0.00    -0.023 A 
ATOM     13  H4  <0> d           5.004   3.322  -0.026  0.00  0.00     0.084 H 
ATOM     14  C7  <0> d           2.072   2.132  -1.200  0.00  0.00     0.129 A 
ATOM     15  F1  <0> d           1.466   1.804  -2.362  0.00  0.00    -0.205 F 
BRANCH  12  16
ATOM     16  C1  <0> d           4.104   2.780  -2.515  0.00  0.00    -0.048 C 
ATOM     17  H1  <0> d           4.638   1.859  -2.749  0.00  0.00     0.033 H 
ATOM     18  H2  <0> d           3.390   2.998  -3.309  0.00  0.00     0.033 H 
ATOM     19  H3  <0> d           4.816   3.601  -2.431  0.00  0.00     0.033 H 
ENDBRANCH  12  16
ENDBRANCH   1   6
TORSDOF 2
