REMARK  4 active torsions:
REMARK  status: ('A' for Active; 'I' for Inactive)
REMARK    1  A    between atoms: C1_1  and  C2_2 
REMARK    2  A    between atoms: C2_2  and  C3_3 
REMARK    3  A    between atoms: C3_3  and  C4_5 
REMARK    4  A    between atoms: N2_8  and  C7_10 
ROOT
ATOM      1  C4  <0> d           1.092   1.911   0.002  0.00  0.00     0.046 A 
ATOM      2  C5  <0> d           0.607   3.241   0.014  0.00  0.00     0.036 A 
ATOM      3  N1  <0> d          -0.696   3.194   0.026  0.00  0.00    -0.185 NA
ATOM      4  N2  <0> d          -1.104   1.855   0.017  0.00  0.00    -0.285 N 
ATOM      5  C6  <0> d          -0.013   1.076   0.008  0.00  0.00     0.013 A 
ATOM      6  H6  <0> d           1.210   4.136   0.012  0.00  0.00     0.118 H 
ATOM      7  H7  <0> d           0.002  -0.004   0.002  0.00  0.00     0.115 H 
ENDROOT
BRANCH   1   8
ATOM      8  C3  <0> d           2.498   1.496  -0.014  0.00  0.00     0.162 C 
ATOM      9  O1  <0> d           2.783   0.317  -0.023  0.00  0.00    -0.292 OA
BRANCH   8  10
ATOM     10  C2  <0> d           3.590   2.535  -0.019  0.00  0.00    -0.008 C 
ATOM     11  H4  <0> d           3.499   3.110  -0.831  0.00  0.00     0.044 H 
ATOM     12  H5  <0> d           3.508   3.153   0.875  0.00  0.00     0.044 H 
BRANCH  10  13
ATOM     13  C1  <0> d           4.954   1.841  -0.035  0.00  0.00    -0.070 C 
ATOM     14  H1  <0> d           5.053   1.214   0.850  0.00  0.00     0.028 H 
ATOM     15  H2  <0> d           5.036   1.223  -0.929  0.00  0.00     0.028 H 
ATOM     16  H3  <0> d           5.744   2.592  -0.039  0.00  0.00     0.028 H 
ENDBRANCH  10  13
ENDBRANCH   8  10
ENDBRANCH   1   8
BRANCH   4  17
ATOM     17  C7  <0> d          -2.491   1.384   0.019  0.00  0.00     0.002 C 
ATOM     18  H8  <0> d          -2.831   1.262   1.048  0.00  0.00     0.059 H 
ATOM     19  H9  <0> d          -3.123   2.113  -0.488  0.00  0.00     0.059 H 
ATOM     20  H10 <0> d          -2.551   0.428  -0.500  0.00  0.00     0.059 H 
ENDBRANCH   4  17
TORSDOF 4
