REMARK  3 active torsions:
REMARK  status: ('A' for Active; 'I' for Inactive)
REMARK    1  A    between atoms: C1_1  and  C2_2 
REMARK    2  A    between atoms: C4_4  and  O1_10 
REMARK    3  A    between atoms: C5_5  and  C8_9 
ROOT
ATOM      1  C2  <0> d          -1.229   2.406   0.021  0.00  0.00    -0.038 A 
ATOM      2  C3  <0> d          -1.250   3.788   0.034  0.00  0.00    -0.043 A 
ATOM      3  C4  <0> d          -0.059   4.498   0.027  0.00  0.00     0.072 A 
ATOM      4  C5  <0> d           1.151   3.820   0.012  0.00  0.00    -0.027 A 
ATOM      5  C6  <0> d           1.168   2.439   0.004  0.00  0.00    -0.053 A 
ATOM      6  C7  <0> d          -0.021   1.732   0.012  0.00  0.00     0.040 A 
ATOM      7 Cl1  <0> d           0.002  -0.004   0.002  0.00  0.00    -0.084 Cl
ATOM      8  H4  <0> d          -2.193   4.314   0.046  0.00  0.00     0.088 H 
ATOM      9  H5  <0> d           2.110   1.911  -0.008  0.00  0.00     0.087 H 
ENDROOT
BRANCH   1  10
ATOM     10  C1  <0> d          -2.523   1.634   0.022  0.00  0.00    -0.050 C 
ATOM     11  H1  <0> d          -2.830   1.441   1.050  0.00  0.00     0.033 H 
ATOM     12  H2  <0> d          -3.294   2.214  -0.485  0.00  0.00     0.033 H 
ATOM     13  H3  <0> d          -2.381   0.686  -0.498  0.00  0.00     0.033 H 
ENDBRANCH   1  10
BRANCH   3  14
ATOM     14  O1  <0> d          -0.077   5.857   0.036  0.00  0.00    -0.360 OA
ATOM     15  H9  <0> d          -0.091   6.256  -0.845  0.00  0.00     0.217 HD
ENDBRANCH   3  14
BRANCH   4  16
ATOM     16  C8  <0> d           2.447   4.590   0.005  0.00  0.00    -0.049 C 
ATOM     17  H6  <0> d           2.750   4.781  -1.024  0.00  0.00     0.033 H 
ATOM     18  H7  <0> d           2.309   5.538   0.525  0.00  0.00     0.033 H 
ATOM     19  H8  <0> d           3.218   4.007   0.508  0.00  0.00     0.033 H 
ENDBRANCH   4  16
TORSDOF 3
