REMARK  2 active torsions:
REMARK  status: ('A' for Active; 'I' for Inactive)
REMARK    1  A    between atoms: C2_2  and  C4_5 
REMARK    2  A    between atoms: C2_2  and  C5_7 
ROOT
ATOM      1  C1  <0> d          -0.017   1.429   0.010  0.00  0.00     0.033 C 
ATOM      2  C2  <0> d           1.516   1.409  -0.005  0.00  0.00     0.054 C 
ATOM      3  C3  <0> d           1.258   0.059  -0.686  0.00  0.00     0.033 C 
ATOM      4  O1  <0> d           0.002  -0.004   0.002  0.00  0.00    -0.389 OA
ATOM      5  H1  <0> d          -0.436   1.851   0.924  0.00  0.00     0.075 H 
ATOM      6  H2  <0> d          -0.453   1.861  -0.891  0.00  0.00     0.075 H 
ATOM      7  H3  <0> d           1.156   0.133  -1.768  0.00  0.00     0.075 H 
ATOM      8  H4  <0> d           1.958  -0.720  -0.381  0.00  0.00     0.075 H 
ENDROOT
BRANCH   2   9
ATOM      9  C4  <0> d           2.158   2.464  -0.908  0.00  0.00     0.071 C 
ATOM     10  F1  <0> d           3.551   2.350  -0.841  0.00  0.00    -0.254 F 
ATOM     11  H5  <0> d           1.830   2.311  -1.936  0.00  0.00     0.083 H 
ATOM     12  H6  <0> d           1.858   3.458  -0.575  0.00  0.00     0.083 H 
ENDBRANCH   2   9
BRANCH   2  13
ATOM     13  C5  <0> d           2.164   1.310   1.378  0.00  0.00     0.071 C 
ATOM     14  F2  <0> d           3.556   1.299   1.240  0.00  0.00    -0.254 F 
ATOM     15  H7  <0> d           1.865   2.167   1.981  0.00  0.00     0.083 H 
ATOM     16  H8  <0> d           1.840   0.391   1.866  0.00  0.00     0.083 H 
ENDBRANCH   2  13
TORSDOF 2
