REMARK  5 active torsions:
REMARK  status: ('A' for Active; 'I' for Inactive)
REMARK    1  A    between atoms: C1_1  and  C2_2 
REMARK    2  A    between atoms: C1_1  and  O5_14 
REMARK    3  A    between atoms: C3_4  and  O4_13 
REMARK    4  A    between atoms: C4_6  and  O3_12 
REMARK    5  A    between atoms: C5_8  and  O2_11 
ROOT
ATOM      1  C2  <0> d           1.847   3.537  -1.312  0.00  0.00     0.089 C 
ATOM      2  H1  <0> d           2.892   3.793  -1.137  0.00  0.00     0.090 H 
ATOM      3  C3  <0> d           1.171   3.103   0.007  0.00  0.00     0.092 C 
ATOM      4  H2  <0> d           0.125   3.407   0.022  0.00  0.00     0.091 H 
ATOM      5  C4  <0> d           1.286   1.562  -0.002  0.00  0.00     0.110 C 
ATOM      6  H3  <0> d           1.871   1.217   0.851  0.00  0.00     0.094 H 
ATOM      7  C5  <0> d           2.018   1.248  -1.326  0.00  0.00     0.156 C 
ATOM      8  H4  <0> d           1.620   0.337  -1.772  0.00  0.00     0.133 H 
ATOM      9  O1  <0> d           1.747   2.384  -2.175  0.00  0.00    -0.349 OA
ENDROOT
BRANCH   1  10
ATOM     10  C1  <0> d           1.105   4.727  -1.924  0.00  0.00     0.043 C 
ATOM     11  H5  <0> d           0.100   4.419  -2.212  0.00  0.00     0.078 H 
ATOM     12  H6  <0> d           1.042   5.532  -1.191  0.00  0.00     0.078 H 
BRANCH  10  13
ATOM     13  O5  <0> d           1.811   5.187  -3.078  0.00  0.00    -0.398 OA
ATOM     14  H10 <0> d           1.396   5.941  -3.518  0.00  0.00     0.209 HD
ENDBRANCH  10  13
ENDBRANCH   1  10
BRANCH   3  15
ATOM     15  O4  <0> d           1.866   3.650   1.130  0.00  0.00    -0.390 OA
ATOM     16  H9  <0> d           1.521   3.360   1.986  0.00  0.00     0.210 HD
ENDBRANCH   3  15
BRANCH   7  17
ATOM     17  O2  <0> d           3.423   1.120  -1.099  0.00  0.00    -0.369 OA
ATOM     18  H7  <0> d           3.934   0.923  -1.896  0.00  0.00     0.212 HD
ENDBRANCH   7  17
BRANCH   5  19
ATOM     19  O3  <0> d          -0.011   0.963   0.007  0.00  0.00    -0.388 OA
ATOM     20  H8  <0> d           0.002  -0.004   0.002  0.00  0.00     0.210 HD
ENDBRANCH   5  19
TORSDOF 5
