REMARK  2 active torsions:
REMARK  status: ('A' for Active; 'I' for Inactive)
REMARK    1  A    between atoms: C1_1  and  C2_2 
REMARK    2  A    between atoms: C4_4  and  N3_10 
ROOT
ATOM      1  C2  <0> d          -1.240   2.102   0.019  0.00  0.00    -0.020 A 
ATOM      2  C3  <0> d          -1.246   3.484   0.033  0.00  0.00    -0.048 A 
ATOM      3  C4  <0> d          -0.024   4.154   0.025  0.00  0.00     0.044 A 
ATOM      4  C5  <0> d           1.158   3.414   0.009  0.00  0.00     0.029 A 
ATOM      5  N1  <0> d           1.129   2.101   0.003  0.00  0.00    -0.247 NA
ATOM      6  C6  <0> d          -0.017   1.428   0.010  0.00  0.00     0.142 A 
ATOM      7  C7  <0> d           0.002  -0.004   0.002  0.00  0.00     0.120 C 
ATOM      8  N2  <0> d           0.018  -1.140  -0.004  0.00  0.00    -0.190 NA
ATOM      9  H4  <0> d          -2.177   4.032   0.044  0.00  0.00     0.087 H 
ATOM     10  H5  <0> d           2.108   3.927   0.003  0.00  0.00     0.118 H 
ENDROOT
BRANCH   1  11
ATOM     11  C1  <0> d          -2.535   1.332   0.021  0.00  0.00    -0.048 C 
ATOM     12  H1  <0> d          -3.380   2.037   0.029  0.00  0.00     0.033 H 
ATOM     13  H2  <0> d          -2.582   0.695   0.916  0.00  0.00     0.033 H 
ATOM     14  H3  <0> d          -2.590   0.704  -0.880  0.00  0.00     0.033 H 
ENDBRANCH   1  11
BRANCH   3  15
ATOM     15  N3  <0> d           0.017   5.546   0.032  0.00  0.00    -0.398 N 
ATOM     16  H6  <0> d           0.985   6.068   0.026  0.00  0.00     0.156 HD
ATOM     17  H7  <0> d          -0.919   6.123   0.044  0.00  0.00     0.156 HD
ENDBRANCH   3  15
TORSDOF 2
