REMARK  5 active torsions:
REMARK  status: ('A' for Active; 'I' for Inactive)
REMARK    1  A    between atoms: C1_1  and  C2_2 
REMARK    2  A    between atoms: C2_2  and  C3_3 
REMARK    3  A    between atoms: C2_2  and  N1_4 
REMARK    4  A    between atoms: N1_4  and  C4_5 
REMARK    5  A    between atoms: N3_8  and  C7_10 
ROOT
ATOM      1  N1  <0> d           0.711  -0.489   1.189  0.00  0.00    -0.384 N 
ATOM      2  H8  <0> d           1.654  -0.707   1.135  0.00  0.00     0.160 HD
ENDROOT
BRANCH   1   3
ATOM      3  C2  <0> d           0.002  -0.004   0.002  0.00  0.00     0.003 C 
ATOM      4  H4  <0> d          -1.020  -0.381   0.010  0.00  0.00     0.071 H 
BRANCH   3   5
ATOM      5  C1  <0> d          -0.019   1.526   0.010  0.00  0.00    -0.058 C 
ATOM      6  H1  <0> d           1.004   1.903   0.003  0.00  0.00     0.030 H 
ATOM      7  H2  <0> d          -0.546   1.887  -0.873  0.00  0.00     0.030 H 
ATOM      8  H3  <0> d          -0.529   1.877   0.907  0.00  0.00     0.030 H 
ENDBRANCH   3   5
BRANCH   3   9
ATOM      9  C3  <0> d           0.718  -0.497  -1.257  0.00  0.00    -0.058 C 
ATOM     10  H5  <0> d           1.741  -0.120  -1.264  0.00  0.00     0.030 H 
ATOM     11  H6  <0> d           0.733  -1.587  -1.263  0.00  0.00     0.030 H 
ATOM     12  H7  <0> d           0.191  -0.136  -2.140  0.00  0.00     0.030 H 
ENDBRANCH   3   9
ENDBRANCH   1   3
BRANCH   1  13
ATOM     13  C4  <0> d           0.022  -0.640   2.408  0.00  0.00     0.065 A 
ATOM     14  C6  <0> d           0.553  -1.077   3.577  0.00  0.00     0.025 A 
ATOM     15  N3  <0> d          -0.440  -1.074   4.505  0.00  0.00    -0.283 N 
ATOM     16  H10 <0> d           1.579  -1.372   3.741  0.00  0.00     0.117 H 
ATOM     17  N2  <0> d          -1.612  -0.630   3.880  0.00  0.00    -0.183 NA
ATOM     18  C5  <0> d          -1.337  -0.370   2.627  0.00  0.00     0.048 A 
ATOM     19  H9  <0> d          -2.037  -0.010   1.887  0.00  0.00     0.121 H 
BRANCH  15  20
ATOM     20  C7  <0> d          -0.309  -1.470   5.910  0.00  0.00     0.002 C 
ATOM     21  H11 <0> d          -0.510  -2.537   6.007  0.00  0.00     0.059 H 
ATOM     22  H12 <0> d           0.703  -1.258   6.255  0.00  0.00     0.059 H 
ATOM     23  H13 <0> d          -1.024  -0.910   6.513  0.00  0.00     0.059 H 
ENDBRANCH  15  20
ENDBRANCH   1  13
TORSDOF 5
