REMARK  3 active torsions:
REMARK  status: ('A' for Active; 'I' for Inactive)
REMARK    1  A    between atoms: C1_1  and  O1_2 
REMARK    2  A    between atoms: O1_2  and  C2_3 
REMARK    3  A    between atoms: C6_7  and  O2_9 
ROOT
ATOM      1  C2  <0> d          -1.237   3.139   0.029  0.00  0.00     0.070 A 
ATOM      2  C3  <0> d          -1.213   1.748   0.017  0.00  0.00    -0.049 A 
ATOM      3  C4  <0> d          -0.013   1.076   0.008  0.00  0.00    -0.058 A 
ATOM      4  C5  <0> d           1.188   1.792   0.000  0.00  0.00     0.077 A 
ATOM      5  C6  <0> d           1.162   3.195   0.008  0.00  0.00     0.089 A 
ATOM      6  C7  <0> d          -0.052   3.859   0.022  0.00  0.00    -0.017 A 
ATOM      7  C8  <0> d           2.440   1.096  -0.015  0.00  0.00     0.102 C 
ATOM      8  N1  <0> d           3.433   0.544  -0.028  0.00  0.00    -0.191 NA
ATOM      9  H4  <0> d          -2.140   1.194   0.019  0.00  0.00     0.087 H 
ATOM     10  H5  <0> d           0.002  -0.004   0.002  0.00  0.00     0.086 H 
ATOM     11  H6  <0> d          -0.076   4.939   0.028  0.00  0.00     0.092 H 
ENDROOT
BRANCH   5  12
ATOM     12  O2  <0> d           2.323   3.897   0.001  0.00  0.00    -0.359 OA
ATOM     13  H7  <0> d           2.652   4.106  -0.885  0.00  0.00     0.217 HD
ENDBRANCH   5  12
BRANCH   1  14
ATOM     14  O1  <0> d          -2.426   3.794   0.043  0.00  0.00    -0.356 OA
BRANCH  14  15
ATOM     15  C1  <0> d          -3.609   2.993   0.049  0.00  0.00     0.010 C 
ATOM     16  H1  <0> d          -4.486   3.639   0.060  0.00  0.00     0.066 H 
ATOM     17  H2  <0> d          -3.629   2.368  -0.843  0.00  0.00     0.066 H 
ATOM     18  H3  <0> d          -3.614   2.359   0.936  0.00  0.00     0.066 H 
ENDBRANCH  14  15
ENDBRANCH   1  14
TORSDOF 3
