REMARK  1 active torsions:
REMARK  status: ('A' for Active; 'I' for Inactive)
REMARK    1  A    between atoms: C5_6  and  C6_7 
ROOT
ATOM      1  C1  <0> d          -2.921  -0.007  -0.717  0.00  0.00    -0.060 A 
ATOM      2  C2  <0> d          -3.844  -0.789  -1.385  0.00  0.00     0.002 A 
ATOM      3  N1  <0> d          -4.002  -0.680  -2.689  0.00  0.00    -0.273 NA
ATOM      4  C3  <0> d          -3.297   0.174  -3.404  0.00  0.00     0.002 A 
ATOM      5  C4  <0> d          -2.358   0.993  -2.805  0.00  0.00    -0.060 A 
ATOM      6  C5  <0> d          -2.164   0.907  -1.435  0.00  0.00    -0.051 A 
ATOM      7  H1  <0> d          -2.792  -0.104   0.351  0.00  0.00     0.086 H 
ATOM      8  H2  <0> d          -4.439  -1.501  -0.832  0.00  0.00     0.114 H 
ATOM      9  H3  <0> d          -3.454   0.235  -4.471  0.00  0.00     0.114 H 
ATOM     10  H4  <0> d          -1.784   1.690  -3.396  0.00  0.00     0.086 H 
ENDROOT
BRANCH   6  11
ATOM     11  C6  <0> d          -1.150   1.781  -0.743  0.00  0.00    -0.028 A 
ATOM     12  C8  <0> d          -1.136   1.773   0.788  0.00  0.00    -0.057 A 
ATOM     13  C7  <0> d          -0.013   1.086   0.008  0.00  0.00    -0.057 A 
ATOM     14  H8  <0> d          -1.859   1.135   1.295  0.00  0.00     0.034 H 
ATOM     15  H9  <0> d          -0.897   2.708   1.294  0.00  0.00     0.034 H 
ATOM     16  H6  <0> d           0.002  -0.004   0.002  0.00  0.00     0.034 H 
ATOM     17  H7  <0> d           0.964   1.569   0.001  0.00  0.00     0.034 H 
ATOM     18  H5  <0> d          -0.922   2.722  -1.243  0.00  0.00     0.047 H 
ENDBRANCH   6  11
TORSDOF 1
