REMARK  6 active torsions:
REMARK  status: ('A' for Active; 'I' for Inactive)
REMARK    1  A    between atoms: C1_1  and  C2_2 
REMARK    2  A    between atoms: C2_2  and  C3_4 
REMARK    3  A    between atoms: C2_2  and  S1_7 
REMARK    4  A    between atoms: C3_4  and  O1_5 
REMARK    5  A    between atoms: O1_5  and  C4_6 
REMARK    6  A    between atoms: S1_7  and  N1_10 
ROOT
ATOM      1  C2  <0> d           0.002  -0.004   0.002  0.00  0.00     0.079 C 
ATOM      2  H1  <0> d           0.512  -0.356  -0.895  0.00  0.00     0.069 H 
ENDROOT
BRANCH   1   3
ATOM      3  C1  <0> d          -0.019   1.526   0.010  0.00  0.00    -0.057 C 
ATOM      4  H2  <0> d           1.004   1.903   0.003  0.00  0.00     0.029 H 
ATOM      5  H3  <0> d          -0.546   1.887  -0.873  0.00  0.00     0.029 H 
ATOM      6  H4  <0> d          -0.529   1.877   0.907  0.00  0.00     0.029 H 
ENDBRANCH   1   3
BRANCH   1   7
ATOM      7  C3  <0> d           0.742  -0.511   1.242  0.00  0.00     0.036 C 
ATOM      8  H5  <0> d           0.184  -0.235   2.136  0.00  0.00     0.076 H 
ATOM      9  H6  <0> d           0.835  -1.596   1.191  0.00  0.00     0.076 H 
BRANCH   7  10
ATOM     10  O1  <0> d           2.044   0.076   1.292  0.00  0.00    -0.395 OA
BRANCH  10  11
ATOM     11  C4  <0> d           2.823  -0.333   2.418  0.00  0.00     0.004 C 
ATOM     12  H7  <0> d           2.307  -0.054   3.337  0.00  0.00     0.066 H 
ATOM     13  H8  <0> d           2.958  -1.414   2.393  0.00  0.00     0.066 H 
ATOM     14  H9  <0> d           3.796   0.156   2.384  0.00  0.00     0.066 H 
ENDBRANCH  10  11
ENDBRANCH   7  10
ENDBRANCH   1   7
BRANCH   1  15
ATOM     15  S1  <0> d          -1.700  -0.632   0.015  0.00  0.00     0.230 S 
ATOM     16  O2  <0> d          -1.703  -2.041  -0.172  0.00  0.00    -0.206 OA
ATOM     17  O3  <0> d          -2.431  -0.041   1.080  0.00  0.00    -0.206 OA
BRANCH  15  18
ATOM     18  N1  <0> d          -2.389  -0.021  -1.361  0.00  0.00    -0.328 N 
ATOM     19  H10 <0> d          -1.869   0.541  -1.956  0.00  0.00     0.168 HD
ATOM     20  H11 <0> d          -3.314  -0.226  -1.573  0.00  0.00     0.168 HD
ENDBRANCH  15  18
ENDBRANCH   1  15
TORSDOF 6
