REMARK  3 active torsions:
REMARK  status: ('A' for Active; 'I' for Inactive)
REMARK    1  A    between atoms: C1_1  and  C2_2 
REMARK    2  A    between atoms: C2_2  and  N1_3 
REMARK       I    between atoms: N1_3  and  C3_4 
REMARK    3  A    between atoms: C3_4  and  C4_6 
ROOT
ATOM      1  C4  <0> d           1.532  -2.285  -2.665  0.00  0.00     0.024 C 
ATOM      2  C5  <0> d           2.968  -1.755  -2.676  0.00  0.00    -0.054 C 
ATOM      3  C6  <0> d           3.684  -2.248  -3.935  0.00  0.00    -0.064 C 
ATOM      4  C7  <0> d           3.704  -3.778  -3.943  0.00  0.00    -0.065 C 
ATOM      5  C8  <0> d           2.269  -4.308  -3.932  0.00  0.00    -0.064 C 
ATOM      6  C9  <0> d           1.553  -3.814  -2.673  0.00  0.00    -0.054 C 
ATOM      7  H7  <0> d           1.005  -1.924  -3.548  0.00  0.00     0.054 H 
ATOM      8  H8  <0> d           2.953  -0.665  -2.670  0.00  0.00     0.034 H 
ATOM      9  H9  <0> d           3.495  -2.116  -1.793  0.00  0.00     0.034 H 
ATOM     10  H10 <0> d           3.157  -1.887  -4.818  0.00  0.00     0.033 H 
ATOM     11  H11 <0> d           4.706  -1.871  -3.942  0.00  0.00     0.033 H 
ATOM     12  H12 <0> d           4.215  -4.130  -4.840  0.00  0.00     0.033 H 
ATOM     13  H13 <0> d           4.232  -4.139  -3.060  0.00  0.00     0.033 H 
ATOM     14  H14 <0> d           1.742  -3.947  -4.815  0.00  0.00     0.033 H 
ATOM     15  H15 <0> d           2.284  -5.398  -3.938  0.00  0.00     0.033 H 
ATOM     16  H16 <0> d           2.080  -4.176  -1.790  0.00  0.00     0.034 H 
ATOM     17  H17 <0> d           0.530  -4.192  -2.666  0.00  0.00     0.034 H 
ENDROOT
BRANCH   1  18
ATOM     18  C3  <0> d           0.827  -1.799  -1.425  0.00  0.00     0.221 C 
ATOM     19  N1  <0> d           0.688  -0.476  -1.203  0.00  0.00    -0.361 N 
ATOM     20  H6  <0> d           1.042   0.162  -1.842  0.00  0.00     0.162 HD
ATOM     21  O1  <0> d           0.384  -2.597  -0.627  0.00  0.00    -0.273 OA
BRANCH  19  22
ATOM     22  C2  <0> d           0.002  -0.004   0.002  0.00  0.00    -0.008 C 
ATOM     23  H4  <0> d           0.529  -0.365   0.885  0.00  0.00     0.063 H 
ATOM     24  H5  <0> d          -1.020  -0.381   0.010  0.00  0.00     0.063 H 
BRANCH  22  25
ATOM     25  C1  <0> d          -0.019   1.526   0.010  0.00  0.00    -0.061 C 
ATOM     26  H1  <0> d           1.004   1.903   0.003  0.00  0.00     0.029 H 
ATOM     27  H2  <0> d          -0.546   1.887  -0.873  0.00  0.00     0.029 H 
ATOM     28  H3  <0> d          -0.529   1.877   0.907  0.00  0.00     0.029 H 
ENDBRANCH  22  25
ENDBRANCH  19  22
ENDBRANCH   1  18
TORSDOF 3
