REMARK  1 active torsions:
REMARK  status: ('A' for Active; 'I' for Inactive)
REMARK    1  A    between atoms: C3_4  and  N3_7 
REMARK       I    between atoms: N3_7  and  C5_8 
REMARK       I    between atoms: C5_8  and  N4_10 
ROOT
ATOM      1  C1  <0> d          -4.684  -0.211   0.023  0.00  0.00    -0.048 A 
ATOM      2  C2  <0> d          -4.685   1.175   0.031  0.00  0.00     0.022 A 
ATOM      3  N1  <0> d          -3.530   1.821   0.029  0.00  0.00    -0.075 NA
ATOM      4  C3  <0> d          -2.384   1.159   0.020  0.00  0.00     0.730 A 
ATOM      5  N2  <0> d          -2.348  -0.165   0.007  0.00  0.00    -0.075 NA
ATOM      6  C4  <0> d          -3.465  -0.872   0.014  0.00  0.00     0.022 A 
ATOM      7  H1  <0> d          -5.612  -0.764   0.025  0.00  0.00     0.087 H 
ATOM      8  H2  <0> d          -5.617   1.721   0.038  0.00  0.00     0.115 H 
ATOM      9  H3  <0> d          -3.429  -1.952   0.008  0.00  0.00     0.115 H 
ENDROOT
BRANCH   4  10
ATOM     10  N3  <0> d          -1.191   1.869   0.018  0.00  0.00    -0.138 N 
ATOM     11  C5  <0> d          -0.014   1.212   0.009  0.00  0.00     0.332 C 
ATOM     12  O1  <0> d           0.002  -0.004   0.002  0.00  0.00    -0.247 OA
ATOM     13  N4  <0> d           1.143   1.901   0.001  0.00  0.00    -0.351 N 
ATOM     14  H5  <0> d           2.103   1.364  -0.006  0.00  0.00     0.160 HD
ATOM     15  H6  <0> d           1.129   3.001   0.003  0.00  0.00     0.160 HD
ATOM     16  H4  <0> d          -1.206   2.969   0.024  0.00  0.00     0.189 HD
ENDBRANCH   4  10
TORSDOF 1
