REMARK  3 active torsions:
REMARK  status: ('A' for Active; 'I' for Inactive)
REMARK    1  A    between atoms: C1_1  and  N1_2 
REMARK    2  A    between atoms: N1_2  and  C2_3 
REMARK    3  A    between atoms: N1_2  and  C3_4 
ROOT
ATOM      1  C3  <0> d          -0.016   1.324   0.009  0.00  0.00     0.149 A 
ATOM      2  C4  <0> d           1.217   2.020   0.001  0.00  0.00     0.066 A 
ATOM      3  N2  <0> d           2.334   1.346  -0.013  0.00  0.00    -0.179 NA
ATOM      4  N3  <0> d           2.329   0.059  -0.020  0.00  0.00    -0.227 N 
ATOM      5  H1  <0> d           3.173  -0.419  -0.030  0.00  0.00     0.194 HD
ATOM      6  C5  <0> d           1.178  -0.638  -0.013  0.00  0.00     0.364 A 
ATOM      7  O1  <0> d           1.209  -1.857  -0.019  0.00  0.00    -0.243 OA
ATOM      8  N4  <0> d           0.002  -0.004   0.002  0.00  0.00    -0.174 NA
ATOM      9  H8  <0> d           1.232   3.100   0.007  0.00  0.00     0.123 H 
ENDROOT
BRANCH   1  10
ATOM     10  N1  <0> d          -1.208   2.009   0.019  0.00  0.00    -0.373 N 
BRANCH  10  11
ATOM     11  C1  <0> d          -2.475   1.274   0.021  0.00  0.00    -0.018 C 
ATOM     12  H2  <0> d          -2.274   0.203   0.014  0.00  0.00     0.056 H 
ATOM     13  H3  <0> d          -3.043   1.531   0.915  0.00  0.00     0.056 H 
ATOM     14  H4  <0> d          -3.052   1.541  -0.865  0.00  0.00     0.056 H 
ENDBRANCH  10  11
BRANCH  10  15
ATOM     15  C2  <0> d          -1.211   3.474   0.027  0.00  0.00    -0.018 C 
ATOM     16  H5  <0> d          -1.217   3.843  -0.999  0.00  0.00     0.056 H 
ATOM     17  H6  <0> d          -2.099   3.833   0.547  0.00  0.00     0.056 H 
ATOM     18  H7  <0> d          -0.319   3.836   0.538  0.00  0.00     0.056 H 
ENDBRANCH  10  15
ENDBRANCH   1  10
TORSDOF 3
