REMARK  3 active torsions:
REMARK  status: ('A' for Active; 'I' for Inactive)
REMARK    1  A    between atoms: C1_1  and  C2_2 
REMARK    2  A    between atoms: C2_2  and  N1_3 
REMARK       I    between atoms: N1_3  and  C3_4 
REMARK    3  A    between atoms: C3_4  and  C4_6 
ROOT
ATOM      1  C4  <0> d          -0.763   1.597   1.255  0.00  0.00     0.024 C 
ATOM      2  C5  <0> d          -0.013   1.086   0.008  0.00  0.00    -0.054 C 
ATOM      3  C6  <0> d          -0.784   1.609  -1.216  0.00  0.00    -0.064 C 
ATOM      4  C7  <0> d          -1.978   2.421  -0.670  0.00  0.00    -0.064 C 
ATOM      5  C8  <0> d          -1.531   2.845   0.750  0.00  0.00    -0.054 C 
ATOM      6  H7  <0> d          -1.460   0.842   1.618  0.00  0.00     0.054 H 
ATOM      7  H8  <0> d           0.002  -0.004   0.002  0.00  0.00     0.034 H 
ATOM      8  H9  <0> d           1.006   1.473   0.000  0.00  0.00     0.034 H 
ATOM      9  H10 <0> d          -0.140   2.251  -1.817  0.00  0.00     0.033 H 
ATOM     10  H11 <0> d          -1.144   0.773  -1.816  0.00  0.00     0.033 H 
ATOM     11  H12 <0> d          -2.159   3.298  -1.292  0.00  0.00     0.033 H 
ATOM     12  H13 <0> d          -2.871   1.798  -0.619  0.00  0.00     0.033 H 
ATOM     13  H14 <0> d          -0.871   3.712   0.705  0.00  0.00     0.034 H 
ATOM     14  H15 <0> d          -2.395   3.052   1.382  0.00  0.00     0.034 H 
ENDROOT
BRANCH   1  15
ATOM     15  C3  <0> d           0.213   1.980   2.338  0.00  0.00     0.221 C 
ATOM     16  N1  <0> d          -0.239   2.453   3.516  0.00  0.00    -0.361 N 
ATOM     17  H6  <0> d          -1.192   2.548   3.667  0.00  0.00     0.162 HD
ATOM     18  O1  <0> d           1.405   1.861   2.149  0.00  0.00    -0.273 OA
BRANCH  16  19
ATOM     19  C2  <0> d           0.710   2.825   4.569  0.00  0.00    -0.008 C 
ATOM     20  H4  <0> d           1.305   1.954   4.845  0.00  0.00     0.063 H 
ATOM     21  H5  <0> d           1.368   3.613   4.203  0.00  0.00     0.063 H 
BRANCH  19  22
ATOM     22  C1  <0> d          -0.058   3.328   5.793  0.00  0.00    -0.061 C 
ATOM     23  H1  <0> d           0.648   3.604   6.576  0.00  0.00     0.029 H 
ATOM     24  H2  <0> d          -0.652   4.198   5.516  0.00  0.00     0.029 H 
ATOM     25  H3  <0> d          -0.715   2.540   6.158  0.00  0.00     0.029 H 
ENDBRANCH  19  22
ENDBRANCH  16  19
ENDBRANCH   1  15
TORSDOF 3
