REMARK  5 active torsions:
REMARK  status: ('A' for Active; 'I' for Inactive)
REMARK    1  A    between atoms: C1_1  and  C2_2 
REMARK    2  A    between atoms: C3_3  and  C7_11 
REMARK    3  A    between atoms: C4_5  and  N3_10 
REMARK    4  A    between atoms: C5_7  and  O1_8 
REMARK    5  A    between atoms: O1_8  and  C6_9 
ROOT
ATOM      1  C2  <0> d           1.247   3.449   0.009  0.00  0.00     0.016 A 
ATOM      2  C3  <0> d           2.491   4.051  -0.000  0.00  0.00     0.060 A 
ATOM      3  N1  <0> d           3.577   3.293  -0.015  0.00  0.00    -0.068 NA
ATOM      4  C4  <0> d           3.484   1.971  -0.021  0.00  0.00     0.722 A 
ATOM      5  N2  <0> d           2.310   1.358  -0.007  0.00  0.00    -0.038 NA
ATOM      6  C5  <0> d           1.182   2.056   0.002  0.00  0.00     0.191 A 
ENDROOT
BRANCH   6   7
ATOM      7  O1  <0> d          -0.017   1.425   0.010  0.00  0.00    -0.339 OA
BRANCH   7   8
ATOM      8  C6  <0> d           0.002  -0.004   0.002  0.00  0.00     0.012 C 
ATOM      9  H4  <0> d          -1.020  -0.381   0.010  0.00  0.00     0.067 H 
ATOM     10  H5  <0> d           0.512  -0.356  -0.895  0.00  0.00     0.067 H 
ATOM     11  H6  <0> d           0.529  -0.365   0.885  0.00  0.00     0.067 H 
ENDBRANCH   7   8
ENDBRANCH   6   7
BRANCH   1  12
ATOM     12  C1  <0> d          -0.011   4.279   0.025  0.00  0.00    -0.045 C 
ATOM     13  H1  <0> d          -0.304   4.474   1.056  0.00  0.00     0.033 H 
ATOM     14  H2  <0> d           0.172   5.225  -0.486  0.00  0.00     0.033 H 
ATOM     15  H3  <0> d          -0.809   3.739  -0.485  0.00  0.00     0.033 H 
ENDBRANCH   1  12
BRANCH   2  16
ATOM     16  C7  <0> d           2.611   5.553   0.007  0.00  0.00    -0.034 C 
ATOM     17  H9  <0> d           2.650   5.910   1.037  0.00  0.00     0.035 H 
ATOM     18  H10 <0> d           3.522   5.848  -0.514  0.00  0.00     0.035 H 
ATOM     19  H11 <0> d           1.748   5.989  -0.496  0.00  0.00     0.035 H 
ENDBRANCH   2  16
BRANCH   4  20
ATOM     20  N3  <0> d           4.642   1.213  -0.035  0.00  0.00    -0.231 N 
ATOM     21  H7  <0> d           5.508   1.651  -0.041  0.00  0.00     0.174 HD
ATOM     22  H8  <0> d           4.588   0.245  -0.040  0.00  0.00     0.174 HD
ENDBRANCH   4  20
TORSDOF 5
