REMARK  1 active torsions:
REMARK  status: ('A' for Active; 'I' for Inactive)
REMARK    1  A    between atoms: C1_1  and  N1_2 
ROOT
ATOM      1  N1  <0> d           0.868   3.435   0.012  0.00  0.00    -0.286 N 
ATOM      2  C2  <0> d           1.192   2.085   0.002  0.00  0.00     0.160 A 
ATOM      3  C3  <0> d          -0.017   1.383   0.010  0.00  0.00     0.083 A 
ATOM      4  C4  <0> d           0.002  -0.004   0.002  0.00  0.00    -0.052 A 
ATOM      5  C5  <0> d           1.233  -0.643  -0.013  0.00  0.00    -0.064 A 
ATOM      6  C6  <0> d           2.389   0.114  -0.020  0.00  0.00     0.005 A 
ATOM      7  N2  <0> d           2.343   1.432  -0.012  0.00  0.00    -0.241 NA
ATOM      8  N3  <0> d          -1.036   2.330   0.019  0.00  0.00    -0.305 N 
ATOM      9  H1  <0> d          -1.988   2.142   0.021  0.00  0.00     0.171 HD
ATOM     10  C7  <0> d          -0.473   3.554   0.025  0.00  0.00     0.328 A 
ATOM     11  O1  <0> d          -1.083   4.606   0.035  0.00  0.00    -0.246 OA
ATOM     12  H5  <0> d          -0.917  -0.571   0.008  0.00  0.00     0.087 H 
ATOM     13  H6  <0> d           1.288  -1.722  -0.020  0.00  0.00     0.085 H 
ATOM     14  H7  <0> d           3.348  -0.383  -0.032  0.00  0.00     0.114 H 
ENDROOT
BRANCH   1  15
ATOM     15  C1  <0> d           1.825   4.545   0.008  0.00  0.00    -0.008 C 
ATOM     16  H2  <0> d           2.052   4.825  -1.021  0.00  0.00     0.057 H 
ATOM     17  H3  <0> d           1.393   5.399   0.530  0.00  0.00     0.057 H 
ATOM     18  H4  <0> d           2.741   4.237   0.511  0.00  0.00     0.057 H 
ENDBRANCH   1  15
TORSDOF 1
