REMARK  3 active torsions:
REMARK  status: ('A' for Active; 'I' for Inactive)
REMARK    1  A    between atoms: C1_1  and  C2_2 
REMARK    2  A    between atoms: C5_5  and  C7_8 
REMARK    3  A    between atoms: N1_6  and  C6_7 
ROOT
ATOM      1  C2  <0> d          -2.034   1.810   1.320  0.00  0.00     0.007 A 
ATOM      2  C3  <0> d          -2.286   2.223   2.579  0.00  0.00    -0.060 A 
ATOM      3  C4  <0> d          -1.059   2.236   3.272  0.00  0.00    -0.060 A 
ATOM      4  C5  <0> d          -0.105   1.825   2.412  0.00  0.00     0.007 A 
ATOM      5  N1  <0> d          -0.698   1.558   1.213  0.00  0.00    -0.359 N 
ATOM      6  H4  <0> d          -3.250   2.498   2.981  0.00  0.00     0.086 H 
ATOM      7  H5  <0> d          -0.910   2.522   4.303  0.00  0.00     0.086 H 
ENDROOT
BRANCH   1   8
ATOM      8  C1  <0> d          -3.054   1.651   0.222  0.00  0.00    -0.037 C 
ATOM      9  H1  <0> d          -3.460   0.640   0.247  0.00  0.00     0.035 H 
ATOM     10  H2  <0> d          -3.860   2.370   0.368  0.00  0.00     0.035 H 
ATOM     11  H3  <0> d          -2.579   1.828  -0.743  0.00  0.00     0.035 H 
ENDBRANCH   1   8
BRANCH   5  12
ATOM     12  C6  <0> d          -0.013   1.086   0.008  0.00  0.00    -0.014 C 
ATOM     13  H6  <0> d           0.002  -0.004   0.002  0.00  0.00     0.057 H 
ATOM     14  H7  <0> d           1.010   1.463   0.000  0.00  0.00     0.057 H 
ATOM     15  H8  <0> d          -0.540   1.447  -0.875  0.00  0.00     0.057 H 
ENDBRANCH   5  12
BRANCH   4  16
ATOM     16  C7  <0> d           1.363   1.683   2.722  0.00  0.00    -0.037 C 
ATOM     17  H9  <0> d           1.872   2.621   2.504  0.00  0.00     0.035 H 
ATOM     18  H10 <0> d           1.489   1.438   3.776  0.00  0.00     0.035 H 
ATOM     19  H11 <0> d           1.788   0.887   2.110  0.00  0.00     0.035 H 
ENDBRANCH   4  16
TORSDOF 3
