REMARK  6 active torsions:
REMARK  status: ('A' for Active; 'I' for Inactive)
REMARK    1  A    between atoms: C1_1  and  C2_2 
REMARK    2  A    between atoms: C2_2  and  O1_3 
REMARK    3  A    between atoms: O1_3  and  C3_4 
REMARK    4  A    between atoms: C3_4  and  C4_5 
REMARK    5  A    between atoms: C4_5  and  C5_7 
REMARK    6  A    between atoms: C4_5  and  O2_8 
ROOT
ATOM      1  C3  <0> d           1.423   1.615  -0.003  0.00  0.00     0.043 C 
ATOM      2  H7  <0> d           1.923   1.329   0.922  0.00  0.00     0.078 H 
ATOM      3  H8  <0> d           1.960   1.193  -0.852  0.00  0.00     0.078 H 
ENDROOT
BRANCH   1   4
ATOM      4  O1  <0> d           1.404   3.040  -0.112  0.00  0.00    -0.389 OA
BRANCH   4   5
ATOM      5  C2  <0> d           2.701   3.639  -0.132  0.00  0.00     0.016 C 
ATOM      6  H5  <0> d           3.228   3.394   0.791  0.00  0.00     0.073 H 
ATOM      7  H6  <0> d           3.265   3.258  -0.983  0.00  0.00     0.073 H 
BRANCH   5   8
ATOM      8  C1  <0> d           2.561   5.157  -0.251  0.00  0.00    -0.056 C 
ATOM      9  H2  <0> d           3.550   5.614  -0.265  0.00  0.00     0.030 H 
ATOM     10  H3  <0> d           2.034   5.402  -1.173  0.00  0.00     0.030 H 
ATOM     11  H4  <0> d           1.997   5.538   0.601  0.00  0.00     0.030 H 
ENDBRANCH   5   8
ENDBRANCH   4   5
ENDBRANCH   1   4
BRANCH   1  12
ATOM     12  C4  <0> d          -0.013   1.086   0.008  0.00  0.00     0.052 C 
ATOM     13  H1  <0> d           0.002  -0.004   0.002  0.00  0.00     0.085 H 
BRANCH  12  14
ATOM     14  C5  <0> d          -0.753   1.593  -1.232  0.00  0.00    -0.051 C 
ATOM     15  H9  <0> d          -0.767   2.683  -1.226  0.00  0.00     0.031 H 
ATOM     16  H10 <0> d          -0.242   1.241  -2.128  0.00  0.00     0.031 H 
ATOM     17  H11 <0> d          -1.775   1.215  -1.224  0.00  0.00     0.031 H 
ENDBRANCH  12  14
BRANCH  12  18
ATOM     18  O2  <0> d          -0.682   1.547   1.184  0.00  0.00    -0.394 OA
ATOM     19  H12 <0> d          -1.599   1.248   1.257  0.00  0.00     0.210 HD
ENDBRANCH  12  18
ENDBRANCH   1  12
TORSDOF 6
