REMARK  3 active torsions:
REMARK  status: ('A' for Active; 'I' for Inactive)
REMARK    1  A    between atoms: C1_1  and  C2_2 
REMARK    2  A    between atoms: C2_2  and  O3_7 
REMARK    3  A    between atoms: O3_7  and  C5_8 
ROOT
ATOM      1  C2  <0> d          -1.758   2.105  -0.567  0.00  0.00     0.277 C 
ATOM      2  O1  <0> d          -0.738   1.218  -1.057  0.00  0.00    -0.331 OA
ATOM      3  C3  <0> d          -0.127   0.601   0.090  0.00  0.00     0.045 C 
ATOM      4  C4  <0> d          -0.837   1.226   1.311  0.00  0.00     0.045 C 
ATOM      5  O2  <0> d          -1.367   2.465   0.775  0.00  0.00    -0.331 OA
ATOM      6  H4  <0> d          -0.281  -0.488   0.046  0.00  0.00     0.077 H 
ATOM      7  H5  <0> d           0.951   0.818   0.094  0.00  0.00     0.077 H 
ATOM      8  H6  <0> d          -1.625   0.545   1.666  0.00  0.00     0.077 H 
ATOM      9  H7  <0> d          -0.105   1.391   2.116  0.00  0.00     0.077 H 
ENDROOT
BRANCH   1  10
ATOM     10  C1  <0> d          -1.834   3.356  -1.446  0.00  0.00    -0.000 C 
ATOM     11  H1  <0> d          -2.132   3.070  -2.465  0.00  0.00     0.038 H 
ATOM     12  H2  <0> d          -0.849   3.844  -1.475  0.00  0.00     0.038 H 
ATOM     13  H3  <0> d          -2.576   4.052  -1.028  0.00  0.00     0.038 H 
ENDBRANCH   1  10
BRANCH   1  14
ATOM     14  O3  <0> d          -3.022   1.438  -0.550  0.00  0.00    -0.338 OA
BRANCH  14  15
ATOM     15  C5  <0> d          -3.412   0.898  -1.814  0.00  0.00     0.010 C 
ATOM     16  H8  <0> d          -4.390   0.405  -1.716  0.00  0.00     0.066 H 
ATOM     17  H9  <0> d          -2.662   0.165  -2.147  0.00  0.00     0.066 H 
ATOM     18  H10 <0> d          -3.483   1.710  -2.553  0.00  0.00     0.066 H 
ENDBRANCH  14  15
ENDBRANCH   1  14
TORSDOF 3
