REMARK  5 active torsions:
REMARK  status: ('A' for Active; 'I' for Inactive)
REMARK    1  A    between atoms: C1_1  and  C2_2 
REMARK    2  A    between atoms: C2_2  and  C3_3 
REMARK    3  A    between atoms: C7_7  and  C10_11 
REMARK    4  A    between atoms: C8_8  and  N1_9 
REMARK    5  A    between atoms: N1_9  and  C9_10 
ROOT
ATOM      1  C3  <0> d          -2.071   3.545   1.252  0.00  0.00    -0.032 A 
ATOM      2  C4  <0> d          -2.182   4.922   1.249  0.00  0.00    -0.075 A 
ATOM      3  C5  <0> d          -1.046   5.709   1.208  0.00  0.00    -0.082 A 
ATOM      4  C6  <0> d           0.205   5.121   1.169  0.00  0.00    -0.075 A 
ATOM      5  C7  <0> d           0.324   3.745   1.178  0.00  0.00    -0.035 A 
ATOM      6  C8  <0> d          -0.816   2.951   1.213  0.00  0.00     0.040 A 
ATOM      7  H6  <0> d          -3.158   5.385   1.279  0.00  0.00     0.084 H 
ATOM      8  H7  <0> d          -1.136   6.785   1.205  0.00  0.00     0.083 H 
ATOM      9  H8  <0> d           1.091   5.738   1.137  0.00  0.00     0.084 H 
ENDROOT
BRANCH   1  10
ATOM     10  C2  <0> d          -3.310   2.689   1.296  0.00  0.00    -0.042 C 
ATOM     11  H4  <0> d          -3.148   1.779   0.699  0.00  0.00     0.039 H 
ATOM     12  H5  <0> d          -4.160   3.252   0.883  0.00  0.00     0.039 H 
BRANCH  10  13
ATOM     13  C1  <0> d          -3.611   2.302   2.745  0.00  0.00    -0.073 C 
ATOM     14  H1  <0> d          -4.516   1.676   2.777  0.00  0.00     0.028 H 
ATOM     15  H2  <0> d          -3.773   3.212   3.342  0.00  0.00     0.028 H 
ATOM     16  H3  <0> d          -2.761   1.739   3.159  0.00  0.00     0.028 H 
ENDBRANCH  10  13
ENDBRANCH   1  10
BRANCH   6  17
ATOM     17  N1  <0> d          -0.700   1.560   1.217  0.00  0.00    -0.393 N 
ATOM     18  H9  <0> d          -1.044   0.838   1.972  0.00  0.00     0.159 HD
BRANCH  17  19
ATOM     19  C9  <0> d          -0.013   1.086   0.008  0.00  0.00    -0.021 C 
ATOM     20  H10 <0> d           0.065  -0.011   0.036  0.00  0.00     0.056 H 
ATOM     21  H11 <0> d           0.996   1.524  -0.036  0.00  0.00     0.056 H 
ATOM     22  H12 <0> d          -0.584   1.390  -0.882  0.00  0.00     0.056 H 
ENDBRANCH  17  19
ENDBRANCH   6  17
BRANCH   5  23
ATOM     23  C10 <0> d           1.687   3.105   1.142  0.00  0.00    -0.049 C 
ATOM     24  H13 <0> d           1.579   2.010   1.155  0.00  0.00     0.033 H 
ATOM     25  H14 <0> d           2.266   3.427   2.021  0.00  0.00     0.033 H 
ATOM     26  H15 <0> d           2.212   3.411   0.225  0.00  0.00     0.033 H 
ENDBRANCH   5  23
TORSDOF 5
