REMARK  8 active torsions:
REMARK  status: ('A' for Active; 'I' for Inactive)
REMARK    1  A    between atoms: C1_1  and  C2_2 
REMARK    2  A    between atoms: C2_2  and  C3_3 
REMARK    3  A    between atoms: C2_2  and  C4_4 
REMARK    4  A    between atoms: C4_4  and  O1_5 
REMARK    5  A    between atoms: O1_5  and  C5_6 
REMARK    6  A    between atoms: C5_6  and  C6_8 
REMARK    7  A    between atoms: C6_8  and  O3_9 
REMARK    8  A    between atoms: O3_9  and  C7_10 
ROOT
ATOM      1  C4  <0> d           0.742  -0.511   1.242  0.00  0.00     0.032 C 
ATOM      2  H8  <0> d           0.835  -1.596   1.191  0.00  0.00     0.075 H 
ATOM      3  H9  <0> d           1.735  -0.063   1.280  0.00  0.00     0.075 H 
ENDROOT
BRANCH   1   4
ATOM      4  C2  <0> d           0.002  -0.004   0.002  0.00  0.00    -0.040 C 
ATOM      5  H4  <0> d          -1.020  -0.381   0.010  0.00  0.00     0.042 H 
BRANCH   4   6
ATOM      6  C1  <0> d          -0.019   1.526   0.010  0.00  0.00    -0.071 C 
ATOM      7  H1  <0> d           1.004   1.903   0.003  0.00  0.00     0.028 H 
ATOM      8  H2  <0> d          -0.546   1.887  -0.873  0.00  0.00     0.028 H 
ATOM      9  H3  <0> d          -0.529   1.877   0.907  0.00  0.00     0.028 H 
ENDBRANCH   4   6
BRANCH   4  10
ATOM     10  C3  <0> d           0.718  -0.497  -1.257  0.00  0.00    -0.071 C 
ATOM     11  H5  <0> d           1.741  -0.120  -1.264  0.00  0.00     0.028 H 
ATOM     12  H6  <0> d           0.733  -1.587  -1.263  0.00  0.00     0.028 H 
ATOM     13  H7  <0> d           0.191  -0.136  -2.140  0.00  0.00     0.028 H 
ENDBRANCH   4  10
ENDBRANCH   1   4
BRANCH   1  14
ATOM     14  O1  <0> d           0.010  -0.149   2.414  0.00  0.00    -0.319 OA
BRANCH  14  15
ATOM     15  C5  <0> d           0.528  -0.522   3.595  0.00  0.00     0.282 C 
ATOM     16  O2  <0> d           1.569  -1.135   3.632  0.00  0.00    -0.263 OA
BRANCH  15  17
ATOM     17  C6  <0> d          -0.188  -0.176   4.875  0.00  0.00     0.099 C 
ATOM     18  H10 <0> d          -0.280   0.907   4.958  0.00  0.00     0.089 H 
ATOM     19  H11 <0> d          -1.181  -0.626   4.869  0.00  0.00     0.089 H 
BRANCH  17  20
ATOM     20  O3  <0> d           0.556  -0.678   5.988  0.00  0.00    -0.386 OA
BRANCH  20  21
ATOM     21  C7  <0> d          -0.040  -0.402   7.257  0.00  0.00     0.005 C 
ATOM     22  H12 <0> d          -0.129   0.677   7.389  0.00  0.00     0.066 H 
ATOM     23  H13 <0> d          -1.030  -0.856   7.300  0.00  0.00     0.066 H 
ATOM     24  H14 <0> d           0.585  -0.815   8.049  0.00  0.00     0.066 H 
ENDBRANCH  20  21
ENDBRANCH  17  20
ENDBRANCH  15  17
ENDBRANCH  14  15
ENDBRANCH   1  14
TORSDOF 8
