REMARK  3 active torsions:
REMARK  status: ('A' for Active; 'I' for Inactive)
REMARK    1  A    between atoms: C1_1  and  O1_2 
REMARK    2  A    between atoms: O1_2  and  C2_3 
REMARK    3  A    between atoms: C2_3  and  C3_5 
ROOT
ATOM      1  C2  <0> d           1.880   3.381   0.002  0.00  0.00     0.314 C 
ATOM      2  O2  <0> d           1.126   4.333   0.014  0.00  0.00    -0.257 OA
ENDROOT
BRANCH   1   3
ATOM      3  O1  <0> d           3.213   3.577  -0.010  0.00  0.00    -0.321 OA
BRANCH   3   4
ATOM      4  C1  <0> d           3.677   4.953  -0.007  0.00  0.00     0.013 C 
ATOM      5  H1  <0> d           4.767   4.970  -0.018  0.00  0.00     0.067 H 
ATOM      6  H2  <0> d           3.297   5.466  -0.891  0.00  0.00     0.067 H 
ATOM      7  H3  <0> d           3.314   5.457   0.889  0.00  0.00     0.067 H 
ENDBRANCH   3   4
ENDBRANCH   1   3
BRANCH   1   8
ATOM      8  C3  <0> d           1.337   2.011   0.000  0.00  0.00     0.162 A 
ATOM      9  N2  <0> d           2.099   0.923  -0.013  0.00  0.00    -0.136 NA
ATOM     10  N1  <0> d           1.562  -0.242  -0.014  0.00  0.00    -0.110 NA
ATOM     11  S1  <0> d           0.002  -0.004   0.002  0.00  0.00     0.025 SA
ATOM     12  C4  <0> d          -0.021   1.728   0.011  0.00  0.00     0.010 A 
ATOM     13  H4  <0> d          -0.864   2.403   0.019  0.00  0.00     0.101 H 
ENDBRANCH   1   8
TORSDOF 3
