REMARK  3 active torsions:
REMARK  status: ('A' for Active; 'I' for Inactive)
REMARK    1  A    between atoms: C1_1  and  C2_2 
REMARK    2  A    between atoms: C2_2  and  C3_3 
REMARK    3  A    between atoms: C5_7  and  C6_9 
ROOT
ATOM      1  C3  <0> d           1.497   1.760  -0.003  0.00  0.00     0.055 C 
ATOM      2  H1  <0> d           1.870   1.920   1.009  0.00  0.00     0.079 H 
ATOM      3  C4  <0> d          -0.018   1.438   0.010  0.00  0.00     0.048 C 
ATOM      4  O1  <0> d           0.002  -0.004   0.002  0.00  0.00    -0.336 OA
ATOM      5  C5  <0> d           1.168  -0.394  -0.546  0.00  0.00     0.131 C 
ATOM      6  N1  <0> d           2.065   0.528  -0.585  0.00  0.00    -0.264 NA
ATOM      7  H7  <0> d          -0.508   1.829  -0.881  0.00  0.00     0.078 H 
ATOM      8  H8  <0> d          -0.491   1.819   0.915  0.00  0.00     0.078 H 
ENDROOT
BRANCH   1   9
ATOM      9  C2  <0> d           1.792   2.970  -0.891  0.00  0.00    -0.045 C 
ATOM     10  H5  <0> d           1.553   2.728  -1.926  0.00  0.00     0.035 H 
ATOM     11  H6  <0> d           1.186   3.816  -0.566  0.00  0.00     0.035 H 
BRANCH   9  12
ATOM     12  C1  <0> d           3.274   3.334  -0.781  0.00  0.00    -0.075 C 
ATOM     13  H2  <0> d           3.484   4.197  -1.414  0.00  0.00     0.027 H 
ATOM     14  H3  <0> d           3.513   3.576   0.254  0.00  0.00     0.027 H 
ATOM     15  H4  <0> d           3.881   2.489  -1.106  0.00  0.00     0.027 H 
ENDBRANCH   9  12
ENDBRANCH   1   9
BRANCH   5  16
ATOM     16  C6  <0> d           1.403  -1.788  -1.068  0.00  0.00    -0.016 C 
ATOM     17  H9  <0> d           0.502  -2.385  -0.926  0.00  0.00     0.038 H 
ATOM     18  H10 <0> d           1.644  -1.742  -2.130  0.00  0.00     0.038 H 
ATOM     19  H11 <0> d           2.231  -2.244  -0.526  0.00  0.00     0.038 H 
ENDBRANCH   5  16
TORSDOF 3
