REMARK  4 active torsions:
REMARK  status: ('A' for Active; 'I' for Inactive)
REMARK    1  A    between atoms: C1_1  and  C2_2 
REMARK    2  A    between atoms: C4_4  and  C6_8 
REMARK    3  A    between atoms: N2_6  and  C5_7 
REMARK    4  A    between atoms: C6_8  and  C7_9 
ROOT
ATOM      1  C2  <0> d           0.002  -0.004   0.002  0.00  0.00     0.028 A 
ATOM      2  C3  <0> d           0.008  -0.796  -1.095  0.00  0.00    -0.034 A 
ATOM      3  C4  <0> d           0.029  -2.127  -0.666  0.00  0.00     0.066 A 
ATOM      4  N1  <0> d           0.034  -2.134   0.643  0.00  0.00    -0.177 NA
ATOM      5  N2  <0> d           0.023  -0.805   1.088  0.00  0.00    -0.278 N 
ATOM      6  H4  <0> d          -0.001  -0.460  -2.122  0.00  0.00     0.089 H 
ENDROOT
BRANCH   3   7
ATOM      7  C6  <0> d           0.041  -3.343  -1.556  0.00  0.00     0.057 C 
ATOM      8  H8  <0> d          -0.882  -3.905  -1.415  0.00  0.00     0.058 H 
ATOM      9  H9  <0> d           0.121  -3.030  -2.597  0.00  0.00     0.058 H 
BRANCH   7  10
ATOM     10  C7  <0> d           1.219  -4.213  -1.201  0.00  0.00     0.178 C 
ATOM     11  O1  <0> d           1.978  -3.878  -0.307  0.00  0.00    -0.648 OA
ATOM     12  O2  <0> d           1.413  -5.253  -1.807  0.00  0.00    -0.648 OA
ENDBRANCH   7  10
ENDBRANCH   3   7
BRANCH   1  13
ATOM     13  C1  <0> d          -0.018   1.503   0.010  0.00  0.00    -0.036 C 
ATOM     14  H1  <0> d           1.004   1.880   0.003  0.00  0.00     0.035 H 
ATOM     15  H2  <0> d          -0.545   1.864  -0.873  0.00  0.00     0.035 H 
ATOM     16  H3  <0> d          -0.529   1.854   0.907  0.00  0.00     0.035 H 
ENDBRANCH   1  13
BRANCH   5  17
ATOM     17  C5  <0> d           0.030  -0.364   2.485  0.00  0.00     0.002 C 
ATOM     18  H5  <0> d          -0.996  -0.269   2.841  0.00  0.00     0.059 H 
ATOM     19  H6  <0> d           0.560  -1.096   3.094  0.00  0.00     0.059 H 
ATOM     20  H7  <0> d           0.531   0.601   2.558  0.00  0.00     0.059 H 
ENDBRANCH   5  17
TORSDOF 4
