REMARK  6 active torsions:
REMARK  status: ('A' for Active; 'I' for Inactive)
REMARK    1  A    between atoms: C1_1  and  C2_2 
REMARK    2  A    between atoms: C2_2  and  C3_4 
REMARK    3  A    between atoms: C2_2  and  O3_10 
REMARK       I    between atoms: C3_4  and  N1_6 
REMARK    4  A    between atoms: N1_6  and  C4_7 
REMARK    5  A    between atoms: C4_7  and  C5_8 
REMARK    6  A    between atoms: C5_8  and  O2_9 
ROOT
ATOM      1  C3  <0> d          -1.187   1.624   0.017  0.00  0.00     0.246 C 
ATOM      2  O1  <0> d          -1.204   2.837   0.023  0.00  0.00    -0.271 OA
ATOM      3  N1  <0> d          -0.011   0.966   0.007  0.00  0.00    -0.357 N 
ATOM      4  H5  <0> d           0.002  -0.004   0.002  0.00  0.00     0.162 HD
ENDROOT
BRANCH   1   5
ATOM      5  C2  <0> d          -2.482   0.853   0.018  0.00  0.00     0.108 C 
ATOM      6  H1  <0> d          -2.489   0.156   0.857  0.00  0.00     0.097 H 
BRANCH   5   7
ATOM      7  C1  <0> d          -2.615   0.075  -1.292  0.00  0.00    -0.044 C 
ATOM      8  H2  <0> d          -1.779  -0.618  -1.390  0.00  0.00     0.031 H 
ATOM      9  H3  <0> d          -3.551  -0.483  -1.291  0.00  0.00     0.031 H 
ATOM     10  H4  <0> d          -2.608   0.772  -2.131  0.00  0.00     0.031 H 
ENDBRANCH   5   7
BRANCH   5  11
ATOM     11  O3  <0> d          -3.578   1.761   0.146  0.00  0.00    -0.387 OA
ATOM     12  H11 <0> d          -3.634   2.412  -0.567  0.00  0.00     0.210 HD
ENDBRANCH   5  11
ENDBRANCH   1   5
BRANCH   3  13
ATOM     13  C4  <0> d           1.248   1.716  -0.001  0.00  0.00     0.015 C 
ATOM     14  H6  <0> d           1.288   2.348  -0.888  0.00  0.00     0.067 H 
ATOM     15  H7  <0> d           1.305   2.338   0.892  0.00  0.00     0.067 H 
BRANCH  13  16
ATOM     16  C5  <0> d           2.424   0.737  -0.017  0.00  0.00     0.031 C 
ATOM     17  H8  <0> d           3.359   1.292   0.067  0.00  0.00     0.076 H 
ATOM     18  H9  <0> d           2.334   0.047   0.822  0.00  0.00     0.076 H 
BRANCH  16  19
ATOM     19  O2  <0> d           2.414   0.001  -1.242  0.00  0.00    -0.399 OA
ATOM     20  H10 <0> d           3.134  -0.639  -1.322  0.00  0.00     0.209 HD
ENDBRANCH  16  19
ENDBRANCH  13  16
ENDBRANCH   3  13
TORSDOF 6
