REMARK  2 active torsions:
REMARK  status: ('A' for Active; 'I' for Inactive)
REMARK    1  A    between atoms: C1_1  and  O1_2 
REMARK    2  A    between atoms: O1_2  and  C2_3 
ROOT
ATOM      1  C2  <0> d           0.002  -0.004   0.002  0.00  0.00     0.135 C 
ATOM      2  H1  <0> d           0.553  -0.359  -0.869  0.00  0.00     0.129 H 
ATOM      3  C3  <0> d          -0.019   1.531   0.011  0.00  0.00    -0.016 C 
ATOM      4  C4  <0> d           1.431   2.028  -0.001  0.00  0.00    -0.044 C 
ATOM      5  C5  <0> d           2.229   1.267   1.022  0.00  0.00    -0.082 C 
ATOM      6  C6  <0> d           1.821   0.135   1.532  0.00  0.00     0.012 C 
ATOM      7  O2  <0> d           0.649  -0.450   1.197  0.00  0.00    -0.333 OA
ATOM      8  H5  <0> d          -0.540   1.897  -0.874  0.00  0.00     0.040 H 
ATOM      9  H6  <0> d          -0.523   1.887   0.909  0.00  0.00     0.040 H 
ATOM     10  H7  <0> d           1.862   1.870  -0.989  0.00  0.00     0.039 H 
ATOM     11  H8  <0> d           1.452   3.091   0.239  0.00  0.00     0.039 H 
ATOM     12  H9  <0> d           3.176   1.672   1.348  0.00  0.00     0.079 H 
ATOM     13  H10 <0> d           2.451  -0.358   2.257  0.00  0.00     0.122 H 
ENDROOT
BRANCH   1  14
ATOM     14  O1  <0> d          -1.336  -0.504  -0.037  0.00  0.00    -0.366 OA
BRANCH  14  15
ATOM     15  C1  <0> d          -1.422  -1.925  -0.161  0.00  0.00     0.007 C 
ATOM     16  H2  <0> d          -0.935  -2.239  -1.084  0.00  0.00     0.066 H 
ATOM     17  H3  <0> d          -0.928  -2.395   0.689  0.00  0.00     0.066 H 
ATOM     18  H4  <0> d          -2.470  -2.225  -0.184  0.00  0.00     0.066 H 
ENDBRANCH  14  15
ENDBRANCH   1  14
TORSDOF 2
