REMARK  2 active torsions:
REMARK  status: ('A' for Active; 'I' for Inactive)
REMARK    1  A    between atoms: C3_3  and  N1_4 
REMARK       I    between atoms: N1_4  and  C4_5 
REMARK    2  A    between atoms: C4_5  and  C5_7 
ROOT
ATOM      1  C5  <0> d          -1.281  -2.630  -2.470  0.00  0.00     0.129 A 
ATOM      2  C6  <0> d          -2.772  -2.899  -2.686  0.00  0.00    -0.035 A 
ATOM      3  C7  <0> d          -1.826  -4.055  -2.356  0.00  0.00    -0.035 A 
ATOM      4  C8  <0> d          -0.471  -2.305  -3.655  0.00  0.00     0.079 C 
ATOM      5  N2  <0> d           0.155  -2.054  -4.569  0.00  0.00    -0.196 NA
ATOM      6  H7  <0> d          -3.460  -2.574  -1.906  0.00  0.00     0.036 H 
ATOM      7  H8  <0> d          -3.153  -2.835  -3.705  0.00  0.00     0.036 H 
ATOM      8  H9  <0> d          -1.584  -4.752  -3.159  0.00  0.00     0.036 H 
ATOM      9  H10 <0> d          -1.891  -4.491  -1.359  0.00  0.00     0.036 H 
ENDROOT
BRANCH   1  10
ATOM     10  C4  <0> d          -0.877  -1.935  -1.196  0.00  0.00     0.240 C 
ATOM     11  N1  <0> d          -0.391  -0.679  -1.237  0.00  0.00    -0.355 N 
ATOM     12  H6  <0> d          -0.302  -0.222  -2.088  0.00  0.00     0.162 HD
ATOM     13  O1  <0> d          -0.989  -2.507  -0.132  0.00  0.00    -0.272 OA
BRANCH  11  14
ATOM     14  C3  <0> d           0.002  -0.004   0.002  0.00  0.00     0.012 A 
ATOM     15  C1  <0> d          -0.019   1.526   0.010  0.00  0.00    -0.044 A 
ATOM     16  C2  <0> d           1.317   0.779  -0.006  0.00  0.00    -0.044 A 
ATOM     17  H1  <0> d          -0.307   2.020   0.938  0.00  0.00     0.036 H 
ATOM     18  H2  <0> d          -0.325   2.030  -0.906  0.00  0.00     0.036 H 
ATOM     19  H3  <0> d           1.889   0.792  -0.934  0.00  0.00     0.036 H 
ATOM     20  H4  <0> d           1.906   0.782   0.910  0.00  0.00     0.036 H 
ATOM     21  H5  <0> d          -0.273  -0.516   0.924  0.00  0.00     0.072 H 
ENDBRANCH  11  14
ENDBRANCH   1  10
TORSDOF 2
