REMARK  2 active torsions:
REMARK  status: ('A' for Active; 'I' for Inactive)
REMARK    1  A    between atoms: C1_1  and  C2_2 
REMARK    2  A    between atoms: C2_2  and  C3_4 
ROOT
ATOM      1  C3  <0> d          -0.000  -0.729  -1.270  0.00  0.00     0.142 A 
ATOM      2  N1  <0> d          -0.012  -0.252  -2.511  0.00  0.00    -0.249 NA
ATOM      3  C4  <0> d          -0.011  -1.099  -3.504  0.00  0.00     0.010 A 
ATOM      4  C5  <0> d           0.003  -2.439  -3.251  0.00  0.00    -0.026 A 
ATOM      5  S1  <0> d           0.021  -2.489  -1.568  0.00  0.00    -0.077 SA
ATOM      6  H4  <0> d          -0.021  -0.741  -4.523  0.00  0.00     0.115 H 
ATOM      7  H5  <0> d           0.005  -3.260  -3.952  0.00  0.00     0.097 H 
ENDROOT
BRANCH   1   8
ATOM      8  C2  <0> d           0.002  -0.004   0.002  0.00  0.00     0.181 C 
ATOM      9  O1  <0> d           0.020  -0.616   1.050  0.00  0.00    -0.291 OA
BRANCH   8  10
ATOM     10  C1  <0> d          -0.018   1.503   0.010  0.00  0.00    -0.015 C 
ATOM     11  H1  <0> d           1.004   1.880   0.003  0.00  0.00     0.038 H 
ATOM     12  H2  <0> d          -0.545   1.864  -0.873  0.00  0.00     0.038 H 
ATOM     13  H3  <0> d          -0.529   1.854   0.907  0.00  0.00     0.038 H 
ENDBRANCH   8  10
ENDBRANCH   1   8
TORSDOF 2
