REMARK  4 active torsions:
REMARK  status: ('A' for Active; 'I' for Inactive)
REMARK    1  A    between atoms: C1_1  and  C2_2 
REMARK    2  A    between atoms: C7_9  and  C8_11 
REMARK    3  A    between atoms: C8_11  and  O2_12 
REMARK    4  A    between atoms: O2_12  and  C9_13 
ROOT
ATOM      1  C2  <0> d           0.002  -0.004   0.002  0.00  0.00    -0.046 C 
ATOM      2  H1  <0> d          -1.020  -0.382   0.009  0.00  0.00     0.040 H 
ATOM      3  C3  <0> d           0.742  -0.511   1.241  0.00  0.00    -0.061 C 
ATOM      4  C4  <0> d           0.690  -2.039   1.287  0.00  0.00    -0.059 C 
ATOM      5  C5  <0> d           1.435  -2.610   0.075  0.00  0.00    -0.009 C 
ATOM      6  C6  <0> d           0.847  -2.004  -1.180  0.00  0.00     0.133 C 
ATOM      7  O1  <0> d           0.489  -2.704  -2.096  0.00  0.00    -0.297 OA
ATOM      8  C7  <0> d           0.721  -0.498  -1.258  0.00  0.00     0.027 C 
ATOM      9  H2  <0> d           1.628  -0.080  -1.310  0.00  0.00     0.055 H 
ATOM     10  H6  <0> d           1.781  -0.185   1.202  0.00  0.00     0.033 H 
ATOM     11  H7  <0> d           0.269  -0.107   2.136  0.00  0.00     0.033 H 
ATOM     12  H8  <0> d           1.163  -2.392   2.204  0.00  0.00     0.033 H 
ATOM     13  H9  <0> d          -0.348  -2.369   1.264  0.00  0.00     0.033 H 
ATOM     14  H10 <0> d           2.406  -2.381   0.143  0.00  0.00     0.044 H 
ATOM     15  H11 <0> d           1.318  -3.694   0.051  0.00  0.00     0.044 H 
ENDROOT
BRANCH   8  16
ATOM     16  C8  <0> d          -0.091  -0.115  -2.497  0.00  0.00     0.029 C 
ATOM     17  H12 <0> d          -1.044  -0.642  -2.484  0.00  0.00     0.075 H 
ATOM     18  H13 <0> d          -0.271   0.961  -2.494  0.00  0.00     0.075 H 
BRANCH  16  19
ATOM     19  O2  <0> d           0.637  -0.473  -3.673  0.00  0.00    -0.395 OA
BRANCH  19  20
ATOM     20  C9  <0> d          -0.037  -0.156  -4.893  0.00  0.00     0.004 C 
ATOM     21  H14 <0> d          -0.989  -0.684  -4.930  0.00  0.00     0.066 H 
ATOM     22  H15 <0> d          -0.215   0.919  -4.940  0.00  0.00     0.066 H 
ATOM     23  H16 <0> d           0.581  -0.459  -5.738  0.00  0.00     0.066 H 
ENDBRANCH  19  20
ENDBRANCH  16  19
ENDBRANCH   8  16
BRANCH   1  24
ATOM     24  C1  <0> d          -0.019   1.526   0.010  0.00  0.00    -0.072 C 
ATOM     25  H3  <0> d           1.004   1.903   0.003  0.00  0.00     0.028 H 
ATOM     26  H4  <0> d          -0.546   1.887  -0.873  0.00  0.00     0.028 H 
ATOM     27  H5  <0> d          -0.529   1.877   0.907  0.00  0.00     0.028 H 
ENDBRANCH   1  24
TORSDOF 4
