REMARK  6 active torsions:
REMARK  status: ('A' for Active; 'I' for Inactive)
REMARK    1  A    between atoms: C1_1  and  C2_2 
REMARK    2  A    between atoms: C2_2  and  C3_3 
REMARK    3  A    between atoms: C2_2  and  C4_4 
REMARK    4  A    between atoms: C4_4  and  C5_6 
REMARK    5  A    between atoms: C4_4  and  O3_9 
REMARK    6  A    between atoms: O3_9  and  C6_10 
ROOT
ATOM      1  C2  <0> d           0.015   1.077   0.151  0.00  0.00    -0.026 C 
ATOM      2  H5  <0> d          -0.479   1.056  -0.831  0.00  0.00     0.043 H 
ENDROOT
BRANCH   1   3
ATOM      3  C1  <0> d           0.227  -0.355   0.647  0.00  0.00    -0.070 C 
ATOM      4  H2  <0> d          -0.747  -0.859   0.737  0.00  0.00     0.028 H 
ATOM      5  H3  <0> d           0.721  -0.334   1.629  0.00  0.00     0.028 H 
ATOM      6  H4  <0> d           0.858  -0.901  -0.069  0.00  0.00     0.028 H 
ENDBRANCH   1   3
BRANCH   1   7
ATOM      7  C3  <0> d           1.369   1.778   0.026  0.00  0.00    -0.070 C 
ATOM      8  H6  <0> d           1.218   2.808  -0.331  0.00  0.00     0.028 H 
ATOM      9  H7  <0> d           2.001   1.232  -0.690  0.00  0.00     0.028 H 
ATOM     10  H8  <0> d           1.864   1.800   1.008  0.00  0.00     0.028 H 
ENDBRANCH   1   7
BRANCH   1  11
ATOM     11  C4  <0> d          -0.863   1.837   1.147  0.00  0.00     0.124 C 
ATOM     12  H1  <0> d          -1.015   2.882   0.840  0.00  0.00     0.101 H 
BRANCH  11  13
ATOM     13  C5  <0> d          -0.236   1.777   2.517  0.00  0.00     0.203 C 
ATOM     14  O1  <0> d          -0.799   1.196   3.413  0.00  0.00    -0.646 OA
ATOM     15  O2  <0> d           0.947   2.369   2.740  0.00  0.00    -0.646 OA
ENDBRANCH  11  13
BRANCH  11  16
ATOM     16  O3  <0> d          -2.160   1.241   1.190  0.00  0.00    -0.380 OA
BRANCH  16  17
ATOM     17  C6  <0> d          -3.083   1.787   0.245  0.00  0.00     0.005 C 
ATOM     18  H9  <0> d          -4.052   1.276   0.343  0.00  0.00     0.066 H 
ATOM     19  H10 <0> d          -2.693   1.643  -0.773  0.00  0.00     0.066 H 
ATOM     20  H11 <0> d          -3.213   2.862   0.440  0.00  0.00     0.066 H 
ENDBRANCH  16  17
ENDBRANCH  11  16
ENDBRANCH   1  11
TORSDOF 6
