REMARK  1 active torsions:
REMARK  status: ('A' for Active; 'I' for Inactive)
REMARK    1  A    between atoms: C5_7  and  C6_9 
ROOT
ATOM      1  C6  <0> d           2.141   6.661   0.019  0.00  0.00     0.069 C 
ATOM      2  C7  <0> d           3.085   6.717   1.148  0.00  0.00     0.066 C 
ATOM      3  N3  <0> d           3.813   6.759   2.018  0.00  0.00    -0.197 NA
ATOM      4  H4  <0> d           2.686   6.786  -0.916  0.00  0.00     0.066 H 
ATOM      5  H5  <0> d           1.406   7.460   0.121  0.00  0.00     0.066 H 
ENDROOT
BRANCH   1   6
ATOM      6  C5  <0> d           1.438   5.329   0.018  0.00  0.00     0.119 A 
ATOM      7  N1  <0> d           0.087   5.160   0.029  0.00  0.00    -0.326 N 
ATOM      8  C4  <0> d          -0.160   3.804   0.024  0.00  0.00     0.157 A 
ATOM      9  H1  <0> d          -0.600   5.886   0.040  0.00  0.00     0.169 HD
ATOM     10  C3  <0> d           1.103   3.184   0.009  0.00  0.00     0.104 A 
ATOM     11  N4  <0> d          -1.263   3.073   0.030  0.00  0.00    -0.241 NA
ATOM     12  C2  <0> d           1.172   1.788   0.001  0.00  0.00    -0.050 A 
ATOM     13  N2  <0> d           2.033   4.172   0.005  0.00  0.00    -0.231 NA
ATOM     14  C1  <0> d          -0.013   1.076   0.008  0.00  0.00    -0.064 A 
ATOM     15  H3  <0> d           2.125   1.279  -0.011  0.00  0.00     0.087 H 
ATOM     16  C8  <0> d          -1.219   1.757   0.017  0.00  0.00     0.005 A 
ATOM     17  H2  <0> d           0.002  -0.004   0.002  0.00  0.00     0.085 H 
ATOM     18  H6  <0> d          -2.143   1.197   0.019  0.00  0.00     0.114 H 
ENDBRANCH   1   6
TORSDOF 1
