REMARK  5 active torsions:
REMARK  status: ('A' for Active; 'I' for Inactive)
REMARK    1  A    between atoms: C1_1  and  C2_2 
REMARK    2  A    between atoms: C2_2  and  N1_3 
REMARK    3  A    between atoms: N1_3  and  C3_4 
REMARK    4  A    between atoms: C5_6  and  C9_11 
REMARK    5  A    between atoms: C8_9  and  O1_10 
ROOT
ATOM      1  C3  <0> d          -0.006  -0.696  -1.207  0.00  0.00     0.062 A 
ATOM      2  C4  <0> d           0.018  -2.083  -1.209  0.00  0.00    -0.049 A 
ATOM      3  C5  <0> d           0.040  -2.775  -0.012  0.00  0.00    -0.060 A 
ATOM      4  C6  <0> d           0.042  -2.087   1.188  0.00  0.00    -0.074 A 
ATOM      5  C7  <0> d           0.023  -0.705   1.197  0.00  0.00    -0.048 A 
ATOM      6  C8  <0> d           0.002  -0.004   0.002  0.00  0.00     0.092 A 
ATOM      7  H7  <0> d           0.017  -2.622  -2.144  0.00  0.00     0.087 H 
ATOM      8  H8  <0> d           0.058  -2.632   2.120  0.00  0.00     0.084 H 
ATOM      9  H9  <0> d           0.024  -0.171   2.135  0.00  0.00     0.087 H 
ENDROOT
BRANCH   1  10
ATOM     10  N1  <0> d          -0.033   0.007  -2.417  0.00  0.00    -0.388 N 
ATOM     11  H6  <0> d          -0.046   0.977  -2.415  0.00  0.00     0.159 HD
BRANCH  10  12
ATOM     12  C2  <0> d          -0.041  -0.723  -3.688  0.00  0.00    -0.011 C 
ATOM     13  H4  <0> d           0.857  -1.337  -3.760  0.00  0.00     0.063 H 
ATOM     14  H5  <0> d          -0.923  -1.361  -3.735  0.00  0.00     0.063 H 
BRANCH  12  15
ATOM     15  C1  <0> d          -0.071   0.274  -4.848  0.00  0.00    -0.061 C 
ATOM     16  H1  <0> d          -0.968   0.888  -4.776  0.00  0.00     0.029 H 
ATOM     17  H2  <0> d           0.811   0.913  -4.801  0.00  0.00     0.029 H 
ATOM     18  H3  <0> d          -0.077  -0.269  -5.793  0.00  0.00     0.029 H 
ENDBRANCH  12  15
ENDBRANCH  10  12
ENDBRANCH   1  10
BRANCH   6  19
ATOM     19  O1  <0> d          -0.016   1.356   0.009  0.00  0.00    -0.358 OA
ATOM     20  H10 <0> d           0.862   1.761   0.003  0.00  0.00     0.217 HD
ENDBRANCH   6  19
BRANCH   3  21
ATOM     21  C9  <0> d           0.060  -4.281  -0.015  0.00  0.00    -0.051 C 
ATOM     22  H11 <0> d          -0.962  -4.659  -0.006  0.00  0.00     0.033 H 
ATOM     23  H12 <0> d           0.571  -4.636  -0.911  0.00  0.00     0.033 H 
ATOM     24  H13 <0> d           0.587  -4.639   0.869  0.00  0.00     0.033 H 
ENDBRANCH   3  21
TORSDOF 5
