REMARK  3 active torsions:
REMARK  status: ('A' for Active; 'I' for Inactive)
REMARK    1  A    between atoms: C2_2  and  C3_3 
REMARK    2  A    between atoms: C3_3  and  O1_4 
REMARK    3  A    between atoms: O1_4  and  C4_5 
ROOT
ATOM      1  C4  <0> d          -1.295  -0.603   0.011  0.00  0.00     0.131 C 
ATOM      2  H1  <0> d          -1.895  -0.160   0.806  0.00  0.00     0.129 H 
ATOM      3  C5  <0> d          -1.161  -2.109   0.252  0.00  0.00    -0.019 C 
ATOM      4  C6  <0> d          -2.550  -2.752   0.200  0.00  0.00    -0.059 C 
ATOM      5  C7  <0> d          -3.198  -2.435  -1.151  0.00  0.00    -0.045 C 
ATOM      6  C8  <0> d          -3.254  -0.917  -1.337  0.00  0.00     0.023 C 
ATOM      7  O2  <0> d          -1.933  -0.378  -1.248  0.00  0.00    -0.361 OA
ATOM      8  H7  <0> d          -0.528  -2.546  -0.520  0.00  0.00     0.040 H 
ATOM      9  H8  <0> d          -0.715  -2.283   1.231  0.00  0.00     0.040 H 
ATOM     10  H9  <0> d          -3.167  -2.352   1.004  0.00  0.00     0.033 H 
ATOM     11  H10 <0> d          -2.457  -3.832   0.316  0.00  0.00     0.033 H 
ATOM     12  H11 <0> d          -4.208  -2.842  -1.175  0.00  0.00     0.036 H 
ATOM     13  H12 <0> d          -2.606  -2.879  -1.952  0.00  0.00     0.036 H 
ATOM     14  H13 <0> d          -3.879  -0.478  -0.560  0.00  0.00     0.074 H 
ATOM     15  H14 <0> d          -3.675  -0.685  -2.316  0.00  0.00     0.074 H 
ENDROOT
BRANCH   1  16
ATOM     16  O1  <0> d           0.002  -0.004   0.002  0.00  0.00    -0.358 OA
BRANCH  16  17
ATOM     17  C3  <0> d          -0.017   1.425   0.010  0.00  0.00     0.037 C 
ATOM     18  H5  <0> d          -0.544   1.786  -0.873  0.00  0.00     0.080 H 
ATOM     19  H6  <0> d          -0.527   1.776   0.907  0.00  0.00     0.080 H 
BRANCH  17  20
ATOM     20  C2  <0> d           1.397   1.946  -0.001  0.00  0.00    -0.089 C 
ATOM     21  C1  <0> d           1.726   2.930  -0.801  0.00  0.00    -0.123 C 
ATOM     22  H2  <0> d           0.984   3.367  -1.453  0.00  0.00     0.066 H 
ATOM     23  H3  <0> d           2.739   3.304  -0.809  0.00  0.00     0.066 H 
ATOM     24  H4  <0> d           2.138   1.509   0.651  0.00  0.00     0.078 H 
ENDBRANCH  17  20
ENDBRANCH  16  17
ENDBRANCH   1  16
TORSDOF 3
