REMARK  6 active torsions:
REMARK  status: ('A' for Active; 'I' for Inactive)
REMARK    1  A    between atoms: C1_1  and  C2_2 
REMARK    2  A    between atoms: C2_2  and  C3_3 
REMARK    3  A    between atoms: C3_3  and  C4_5 
REMARK    4  A    between atoms: C3_3  and  O1_6 
REMARK    5  A    between atoms: O1_6  and  C5_7 
REMARK    6  A    between atoms: C5_7  and  C6_8 
ROOT
ATOM      1  C3  <0> d           0.011   1.072   2.506  0.00  0.00     0.034 C 
ATOM      2  H1  <0> d           1.057   1.375   2.454  0.00  0.00     0.082 H 
ENDROOT
BRANCH   1   3
ATOM      3  C2  <0> d          -0.729   1.579   1.267  0.00  0.00    -0.044 C 
ATOM      4  H5  <0> d          -0.744   2.669   1.273  0.00  0.00     0.036 H 
ATOM      5  H6  <0> d          -1.751   1.202   1.275  0.00  0.00     0.036 H 
BRANCH   3   6
ATOM      6  C1  <0> d          -0.013   1.086   0.008  0.00  0.00    -0.074 C 
ATOM      7  H2  <0> d           0.002  -0.004   0.002  0.00  0.00     0.027 H 
ATOM      8  H3  <0> d           1.010   1.463   0.000  0.00  0.00     0.027 H 
ATOM      9  H4  <0> d          -0.540   1.447  -0.875  0.00  0.00     0.027 H 
ENDBRANCH   3   6
ENDBRANCH   1   3
BRANCH   1  10
ATOM     10  C4  <0> d          -0.630   1.667   3.762  0.00  0.00    -0.052 C 
ATOM     11  H7  <0> d          -1.676   1.364   3.814  0.00  0.00     0.030 H 
ATOM     12  H8  <0> d          -0.103   1.306   4.645  0.00  0.00     0.030 H 
ATOM     13  H9  <0> d          -0.568   2.754   3.721  0.00  0.00     0.030 H 
ENDBRANCH   1  10
BRANCH   1  14
ATOM     14  O1  <0> d          -0.070  -0.353   2.560  0.00  0.00    -0.387 OA
BRANCH  14  15
ATOM     15  C5  <0> d           1.051  -0.976   3.191  0.00  0.00     0.017 C 
ATOM     16  H10 <0> d           1.961  -0.726   2.645  0.00  0.00     0.073 H 
ATOM     17  H11 <0> d           1.134  -0.620   4.218  0.00  0.00     0.073 H 
BRANCH  15  18
ATOM     18  C6  <0> d           0.858  -2.494   3.191  0.00  0.00    -0.056 C 
ATOM     19  H12 <0> d          -0.052  -2.744   3.737  0.00  0.00     0.030 H 
ATOM     20  H13 <0> d           0.775  -2.850   2.164  0.00  0.00     0.030 H 
ATOM     21  H14 <0> d           1.713  -2.969   3.673  0.00  0.00     0.030 H 
ENDBRANCH  15  18
ENDBRANCH  14  15
ENDBRANCH   1  14
TORSDOF 6
