REMARK  1 active torsions:
REMARK  status: ('A' for Active; 'I' for Inactive)
REMARK    1  A    between atoms: N3_5  and  N4_6 
ROOT
ATOM      1  C1  <0> d          -0.016   1.351   0.009  0.00  0.00     0.103 A 
ATOM      2  N1  <0> d           1.224   1.756  -0.000  0.00  0.00    -0.143 NA
ATOM      3  N2  <0> d           2.012   0.739  -0.013  0.00  0.00    -0.143 NA
ATOM      4  C2  <0> d           1.309  -0.361  -0.012  0.00  0.00     0.103 A 
ATOM      5  N3  <0> d           0.002  -0.004   0.002  0.00  0.00    -0.263 N 
ATOM      6  H1  <0> d          -0.895   1.979   0.025  0.00  0.00     0.148 H 
ATOM      7  H2  <0> d           1.698  -1.368  -0.022  0.00  0.00     0.148 H 
ENDROOT
BRANCH   5   8
ATOM      8  N4  <0> d          -1.078  -0.841   0.008  0.00  0.00    -0.241 NA
ATOM      9  H3  <0> d          -1.373  -1.057  -0.932  0.00  0.00     0.143 HD
ATOM     10  H4  <0> d          -0.880  -1.683   0.528  0.00  0.00     0.143 HD
ENDBRANCH   5   8
TORSDOF 1
