REMARK  0 active torsions:
REMARK  status: ('A' for Active; 'I' for Inactive)
ROOT
ATOM      1  C1  <0> d          -0.016   1.352   0.009  0.00  0.00     0.089 A 
ATOM      2  N1  <0> d           1.224   1.756  -0.000  0.00  0.00    -0.143 NA
ATOM      3  N2  <0> d           2.011   0.739  -0.014  0.00  0.00    -0.135 NA
ATOM      4  C2  <0> d           1.306  -0.361  -0.016  0.00  0.00     0.129 A 
ATOM      5  N3  <0> d           0.002  -0.004   0.002  0.00  0.00    -0.327 N 
ATOM      6  C3  <0> d          -0.871  -1.185   0.008  0.00  0.00     0.002 C 
ATOM      7  C4  <0> d           0.021  -2.361  -0.444  0.00  0.00    -0.043 C 
ATOM      8  C5  <0> d           1.427  -1.870  -0.030  0.00  0.00    -0.006 C 
ATOM      9  H1  <0> d          -0.894   1.980   0.025  0.00  0.00     0.146 H 
ATOM     10  H2  <0> d          -1.253  -1.365   1.013  0.00  0.00     0.065 H 
ATOM     11  H3  <0> d          -1.696  -1.047  -0.691  0.00  0.00     0.065 H 
ATOM     12  H4  <0> d          -0.243  -3.277   0.086  0.00  0.00     0.035 H 
ATOM     13  H5  <0> d          -0.040  -2.505  -1.523  0.00  0.00     0.035 H 
ATOM     14  H6  <0> d           2.172  -2.185  -0.762  0.00  0.00     0.044 H 
ATOM     15  H7  <0> d           1.685  -2.241   0.961  0.00  0.00     0.044 H 
ENDROOT
TORSDOF 0
