REMARK  3 active torsions:
REMARK  status: ('A' for Active; 'I' for Inactive)
REMARK    1  A    between atoms: C1_1  and  C2_2 
REMARK    2  A    between atoms: C2_2  and  C5_6 
REMARK    3  A    between atoms: C5_6  and  O2_7 
ROOT
ATOM      1  C2  <0> d          -1.387   2.667   0.100  0.00  0.00     0.080 C 
ATOM      2  C3  <0> d          -0.973   1.702  -1.027  0.00  0.00    -0.015 C 
ATOM      3  C4  <0> d          -0.013   1.086   0.008  0.00  0.00     0.023 C 
ATOM      4  O1  <0> d          -0.893   1.652   1.000  0.00  0.00    -0.378 OA
ATOM      5  H4  <0> d          -0.468   2.189  -1.861  0.00  0.00     0.040 H 
ATOM      6  H5  <0> d          -1.768   1.028  -1.345  0.00  0.00     0.040 H 
ATOM      7  H6  <0> d           0.002  -0.004   0.002  0.00  0.00     0.074 H 
ATOM      8  H7  <0> d           0.985   1.526   0.001  0.00  0.00     0.074 H 
ENDROOT
BRANCH   1   9
ATOM      9  C1  <0> d          -0.580   3.967   0.129  0.00  0.00    -0.046 C 
ATOM     10  H1  <0> d          -0.710   4.497  -0.815  0.00  0.00     0.031 H 
ATOM     11  H2  <0> d          -0.930   4.594   0.949  0.00  0.00     0.031 H 
ATOM     12  H3  <0> d           0.475   3.736   0.274  0.00  0.00     0.031 H 
ENDBRANCH   1   9
BRANCH   1  13
ATOM     13  C5  <0> d          -2.897   2.899   0.193  0.00  0.00     0.045 C 
ATOM     14  H8  <0> d          -3.273   3.238  -0.772  0.00  0.00     0.078 H 
ATOM     15  H9  <0> d          -3.391   1.967   0.468  0.00  0.00     0.078 H 
BRANCH  13  16
ATOM     16  O2  <0> d          -3.166   3.892   1.185  0.00  0.00    -0.398 OA
ATOM     17  H10 <0> d          -4.106   4.089   1.298  0.00  0.00     0.209 HD
ENDBRANCH  13  16
ENDBRANCH   1  13
TORSDOF 3
