REMARK  0 active torsions:
REMARK  status: ('A' for Active; 'I' for Inactive)
ROOT
ATOM      1  C1  <0> d           1.230   1.687  -0.001  0.00  0.00    -0.083 A 
ATOM      2  C2  <0> d          -0.013   1.076   0.008  0.00  0.00    -0.082 A 
ATOM      3  C3  <0> d          -1.272   1.653   0.018  0.00  0.00    -0.072 A 
ATOM      4  C4  <0> d          -1.584   3.015   0.033  0.00  0.00    -0.026 A 
ATOM      5  C5  <0> d          -2.871   3.552   0.047  0.00  0.00    -0.072 A 
ATOM      6  C6  <0> d          -2.770   4.932   0.052  0.00  0.00    -0.081 A 
ATOM      7  C7  <0> d          -1.441   5.316   0.040  0.00  0.00    -0.072 A 
ATOM      8  C8  <0> d          -0.650   4.167   0.028  0.00  0.00    -0.026 A 
ATOM      9  C9  <0> d           0.747   4.142   0.015  0.00  0.00    -0.072 A 
ATOM     10  C10 <0> d           1.572   3.029   0.003  0.00  0.00    -0.082 A 
ATOM     11  H1  <0> d           2.069   1.006  -0.012  0.00  0.00     0.083 H 
ATOM     12  H2  <0> d           0.002  -0.004   0.002  0.00  0.00     0.083 H 
ATOM     13  H3  <0> d          -2.110   0.971   0.019  0.00  0.00     0.084 H 
ATOM     14  H4  <0> d          -3.791   2.986   0.055  0.00  0.00     0.084 H 
ATOM     15  H5  <0> d          -3.608   5.612   0.063  0.00  0.00     0.083 H 
ATOM     16  H6  <0> d          -1.077   6.332   0.041  0.00  0.00     0.084 H 
ATOM     17  H7  <0> d           1.242   5.102   0.015  0.00  0.00     0.084 H 
ATOM     18  H8  <0> d           2.631   3.237  -0.007  0.00  0.00     0.083 H 
ENDROOT
TORSDOF 0
