REMARK  6 active torsions:
REMARK  status: ('A' for Active; 'I' for Inactive)
REMARK    1  A    between atoms: C1_1  and  C2_2 
REMARK    2  A    between atoms: C3_4  and  C7_11 
REMARK    3  A    between atoms: C6_8  and  O1_10 
REMARK    4  A    between atoms: C7_11  and  C8_12 
REMARK    5  A    between atoms: C7_11  and  C9_13 
REMARK    6  A    between atoms: C7_11  and  C10_14 
ROOT
ATOM      1  C2  <0> d           0.963   1.014  -1.960  0.00  0.00    -0.029 C 
ATOM      2  H1  <0> d           0.545   1.313  -0.999  0.00  0.00     0.043 H 
ATOM      3  C3  <0> d           1.481   2.253  -2.719  0.00  0.00    -0.042 C 
ATOM      4  H2  <0> d           0.969   3.152  -2.376  0.00  0.00     0.041 H 
ATOM      5  C4  <0> d           1.138   1.962  -4.201  0.00  0.00    -0.058 C 
ATOM      6  C5  <0> d          -0.243   1.266  -4.102  0.00  0.00    -0.040 C 
ATOM      7  C6  <0> d          -0.133   0.387  -2.839  0.00  0.00     0.039 C 
ATOM      8  H3  <0> d           0.146  -0.630  -3.116  0.00  0.00     0.083 H 
ATOM      9  H7  <0> d           1.063   2.889  -4.769  0.00  0.00     0.033 H 
ATOM     10  H8  <0> d           1.878   1.296  -4.645  0.00  0.00     0.033 H 
ATOM     11  H9  <0> d          -0.423   0.650  -4.982  0.00  0.00     0.036 H 
ATOM     12  H10 <0> d          -1.035   2.006  -3.984  0.00  0.00     0.036 H 
ENDROOT
BRANCH   3  13
ATOM     13  C7  <0> d           2.993   2.398  -2.538  0.00  0.00    -0.047 C 
BRANCH  13  14
ATOM     14  C8  <0> d           3.703   1.230  -3.225  0.00  0.00    -0.069 C 
ATOM     15  H12 <0> d           3.047   0.801  -3.982  0.00  0.00     0.028 H 
ATOM     16  H13 <0> d           4.618   1.587  -3.696  0.00  0.00     0.028 H 
ATOM     17  H14 <0> d           3.950   0.468  -2.484  0.00  0.00     0.028 H 
ENDBRANCH  13  14
BRANCH  13  18
ATOM     18  C9  <0> d           3.458   3.715  -3.162  0.00  0.00    -0.069 C 
ATOM     19  H15 <0> d           2.952   4.548  -2.673  0.00  0.00     0.028 H 
ATOM     20  H16 <0> d           4.535   3.818  -3.033  0.00  0.00     0.028 H 
ATOM     21  H17 <0> d           3.217   3.718  -4.225  0.00  0.00     0.028 H 
ENDBRANCH  13  18
BRANCH  13  22
ATOM     22  C10 <0> d           3.331   2.394  -1.046  0.00  0.00    -0.069 C 
ATOM     23  H18 <0> d           2.577   1.823  -0.504  0.00  0.00     0.028 H 
ATOM     24  H19 <0> d           4.309   1.937  -0.896  0.00  0.00     0.028 H 
ATOM     25  H20 <0> d           3.348   3.418  -0.674  0.00  0.00     0.028 H 
ENDBRANCH  13  22
ENDBRANCH   3  13
BRANCH   1  26
ATOM     26  C1  <0> d           2.102   0.014  -1.749  0.00  0.00    -0.070 C 
ATOM     27  H4  <0> d           2.532  -0.255  -2.713  0.00  0.00     0.028 H 
ATOM     28  H5  <0> d           2.870   0.466  -1.121  0.00  0.00     0.028 H 
ATOM     29  H6  <0> d           1.714  -0.880  -1.262  0.00  0.00     0.028 H 
ENDBRANCH   1  26
BRANCH   7  30
ATOM     30  O1  <0> d          -1.378   0.378  -2.138  0.00  0.00    -0.395 OA
ATOM     31  H11 <0> d          -2.112   0.004  -2.644  0.00  0.00     0.210 HD
ENDBRANCH   7  30
TORSDOF 6
