REMARK  4 active torsions:
REMARK  status: ('A' for Active; 'I' for Inactive)
REMARK    1  A    between atoms: C1_1  and  C2_2 
REMARK    2  A    between atoms: C3_3  and  C7_9 
REMARK    3  A    between atoms: C4_4  and  C6_8 
REMARK    4  A    between atoms: N1_5  and  C5_7 
ROOT
ATOM      1  C7  <0> d           0.002  -0.004   0.002  0.00  0.00    -0.074 C 
ATOM      2  C8  <0> d           0.018  -1.178  -0.004  0.00  0.00    -0.149 C 
ATOM      3  H10 <0> d           0.033  -2.278  -0.010  0.00  0.00     0.166 H 
ENDROOT
BRANCH   1   4
ATOM      4  C3  <0> d          -0.017   1.428   0.010  0.00  0.00     0.066 A 
ATOM      5  C2  <0> d          -1.166   2.246   0.019  0.00  0.00     0.071 A 
ATOM      6  N2  <0> d          -0.775   3.493   0.027  0.00  0.00    -0.176 NA
ATOM      7  N1  <0> d           0.625   3.522   0.014  0.00  0.00    -0.277 N 
ATOM      8  C4  <0> d           1.073   2.251   0.004  0.00  0.00     0.047 A 
BRANCH   5   9
ATOM      9  C1  <0> d          -2.594   1.766   0.022  0.00  0.00    -0.032 C 
ATOM     10  H1  <0> d          -2.612   0.667   0.014  0.00  0.00     0.035 H 
ATOM     11  H2  <0> d          -3.111   2.148  -0.870  0.00  0.00     0.035 H 
ATOM     12  H3  <0> d          -3.103   2.134   0.926  0.00  0.00     0.035 H 
ENDBRANCH   5   9
BRANCH   7  13
ATOM     13  C5  <0> d           1.458   4.727   0.012  0.00  0.00     0.003 C 
ATOM     14  H4  <0> d           0.814   5.618   0.022  0.00  0.00     0.059 H 
ATOM     15  H5  <0> d           2.085   4.737  -0.892  0.00  0.00     0.059 H 
ATOM     16  H6  <0> d           2.102   4.729   0.904  0.00  0.00     0.059 H 
ENDBRANCH   7  13
BRANCH   8  17
ATOM     17  C6  <0> d           2.516   1.816  -0.011  0.00  0.00    -0.034 C 
ATOM     18  H7  <0> d           3.167   2.704  -0.013  0.00  0.00     0.035 H 
ATOM     19  H8  <0> d           2.710   1.218  -0.913  0.00  0.00     0.035 H 
ATOM     20  H9  <0> d           2.726   1.210   0.883  0.00  0.00     0.035 H 
ENDBRANCH   8  17
ENDBRANCH   1   4
TORSDOF 4
