REMARK  4 active torsions:
REMARK  status: ('A' for Active; 'I' for Inactive)
REMARK    1  A    between atoms: C1_1  and  C2_2 
REMARK    2  A    between atoms: C2_2  and  N1_3 
REMARK    3  A    between atoms: N1_3  and  C3_4 
REMARK    4  A    between atoms: C7_8  and  C9_10 
ROOT
ATOM      1  C9  <0> d          -1.021   1.785   6.057  0.00  0.00    -0.078 C 
ATOM      2  C10 <0> d          -1.566   2.160   7.027  0.00  0.00    -0.149 C 
ATOM      3  H11 <0> d          -2.077   2.512   7.935  0.00  0.00     0.166 H 
ENDROOT
BRANCH   1   4
ATOM      4  C7  <0> d          -0.356   1.328   4.874  0.00  0.00     0.019 A 
ATOM      5  C6  <0> d           0.791   0.540   4.976  0.00  0.00    -0.065 A 
ATOM      6  C5  <0> d           1.430   0.099   3.835  0.00  0.00    -0.079 A 
ATOM      7  H9  <0> d           1.179   0.275   5.949  0.00  0.00     0.085 H 
ATOM      8  C4  <0> d           0.934   0.431   2.588  0.00  0.00    -0.058 A 
ATOM      9  H8  <0> d           2.317  -0.511   3.916  0.00  0.00     0.083 H 
ATOM     10  C3  <0> d          -0.204   1.220   2.476  0.00  0.00     0.029 A 
ATOM     11  H7  <0> d           1.436   0.080   1.699  0.00  0.00     0.086 H 
ATOM     12  C8  <0> d          -0.853   1.668   3.616  0.00  0.00    -0.040 A 
ATOM     13  H10 <0> d          -1.741   2.277   3.531  0.00  0.00     0.089 H 
BRANCH  10  14
ATOM     14  N1  <0> d          -0.698   1.558   1.213  0.00  0.00    -0.390 N 
ATOM     15  H6  <0> d          -1.602   2.179   1.124  0.00  0.00     0.159 HD
BRANCH  14  16
ATOM     16  C2  <0> d          -0.013   1.086   0.008  0.00  0.00    -0.011 C 
ATOM     17  H4  <0> d           0.002  -0.014   0.002  0.00  0.00     0.063 H 
ATOM     18  H5  <0> d           1.019   1.466   0.000  0.00  0.00     0.063 H 
BRANCH  16  19
ATOM     19  C1  <0> d          -0.753   1.593  -1.232  0.00  0.00    -0.061 C 
ATOM     20  H1  <0> d          -0.238   1.238  -2.136  0.00  0.00     0.029 H 
ATOM     21  H2  <0> d          -0.767   2.693  -1.225  0.00  0.00     0.029 H 
ATOM     22  H3  <0> d          -1.785   1.212  -1.224  0.00  0.00     0.029 H 
ENDBRANCH  16  19
ENDBRANCH  14  16
ENDBRANCH  10  14
ENDBRANCH   1   4
TORSDOF 4
