REMARK  3 active torsions:
REMARK  status: ('A' for Active; 'I' for Inactive)
REMARK    1  A    between atoms: C1_1  and  C2_2 
REMARK    2  A    between atoms: C2_2  and  O1_3 
REMARK    3  A    between atoms: O1_3  and  C3_4 
ROOT
ATOM      1  C3  <0> d          -1.145   2.486   0.792  0.00  0.00     0.075 A 
ATOM      2  H1  <0> d          -0.907   3.421   1.298  0.00  0.00     0.088 H 
ATOM      3  C4  <0> d          -1.160   2.494  -0.739  0.00  0.00    -0.003 A 
ATOM      4  C5  <0> d          -0.022   1.799   0.012  0.00  0.00     0.141 A 
ATOM      5 Cl1  <0> d           0.002  -0.004   0.002  0.00  0.00    -0.099 Cl
ATOM      6 Cl2  <0> d           1.593   2.598   0.001  0.00  0.00    -0.099 Cl
ATOM      7  H7  <0> d          -0.931   3.435  -1.239  0.00  0.00     0.041 H 
ATOM      8  H8  <0> d          -1.893   1.861  -1.239  0.00  0.00     0.041 H 
ENDROOT
BRANCH   1   9
ATOM      9  O1  <0> d          -2.094   1.649   1.456  0.00  0.00    -0.383 OA
BRANCH   9  10
ATOM     10  C2  <0> d          -2.652   2.228   2.638  0.00  0.00     0.017 C 
ATOM     11  H5  <0> d          -1.854   2.439   3.351  0.00  0.00     0.073 H 
ATOM     12  H6  <0> d          -3.164   3.155   2.382  0.00  0.00     0.073 H 
BRANCH  10  13
ATOM     13  C1  <0> d          -3.649   1.250   3.263  0.00  0.00    -0.056 C 
ATOM     14  H2  <0> d          -3.136   0.323   3.520  0.00  0.00     0.030 H 
ATOM     15  H3  <0> d          -4.074   1.692   4.165  0.00  0.00     0.030 H 
ATOM     16  H4  <0> d          -4.446   1.040   2.551  0.00  0.00     0.030 H 
ENDBRANCH  10  13
ENDBRANCH   9  10
ENDBRANCH   1   9
TORSDOF 3
