REMARK  0 active torsions:
REMARK  status: ('A' for Active; 'I' for Inactive)
ROOT
ATOM      1  C1  <0> d          -0.753   1.593  -1.231  0.00  0.00    -0.065 C 
ATOM      2  C2  <0> d          -0.013   1.086   0.008  0.00  0.00    -0.063 C 
ATOM      3  C3  <0> d          -0.730   1.580   1.267  0.00  0.00    -0.040 C 
ATOM      4  C4  <0> d          -2.167   1.069   1.268  0.00  0.00     0.050 A 
ATOM      5  C5  <0> d          -2.911   1.550   0.028  0.00  0.00    -0.040 C 
ATOM      6  C6  <0> d          -2.186   1.056  -1.227  0.00  0.00    -0.063 C 
ATOM      7  C7  <0> d          -2.895   1.534   2.539  0.00  0.00     0.020 A 
ATOM      8  N1  <0> d          -3.260   0.276   3.212  0.00  0.00    -0.341 N 
ATOM      9  C8  <0> d          -2.828  -0.757   2.476  0.00  0.00     0.316 A 
ATOM     10  O1  <0> d          -2.995  -1.917   2.799  0.00  0.00    -0.247 OA
ATOM     11  N2  <0> d          -2.193  -0.395   1.351  0.00  0.00    -0.332 N 
ATOM     12  H1  <0> d          -0.774   2.683  -1.221  0.00  0.00     0.033 H 
ATOM     13  H2  <0> d          -0.239   1.248  -2.128  0.00  0.00     0.033 H 
ATOM     14  H3  <0> d           0.002  -0.004   0.002  0.00  0.00     0.033 H 
ATOM     15  H4  <0> d           1.010   1.463   0.000  0.00  0.00     0.033 H 
ATOM     16  H5  <0> d          -0.211   1.207   2.150  0.00  0.00     0.036 H 
ATOM     17  H6  <0> d          -0.732   2.670   1.280  0.00  0.00     0.036 H 
ATOM     18  H7  <0> d          -2.944   2.639   0.023  0.00  0.00     0.036 H 
ATOM     19  H8  <0> d          -3.927   1.156   0.038  0.00  0.00     0.036 H 
ATOM     20  H9  <0> d          -2.710   1.413  -2.114  0.00  0.00     0.033 H 
ATOM     21  H10 <0> d          -2.166  -0.034  -1.230  0.00  0.00     0.033 H 
ATOM     22  H11 <0> d          -2.230   2.126   3.168  0.00  0.00     0.068 H 
ATOM     23  H12 <0> d          -3.788   2.104   2.282  0.00  0.00     0.068 H 
ATOM     24  H13 <0> d          -3.737   0.207   4.053  0.00  0.00     0.164 HD
ATOM     25  H14 <0> d          -1.814  -1.003   0.698  0.00  0.00     0.165 HD
ENDROOT
TORSDOF 0
