REMARK  4 active torsions:
REMARK  status: ('A' for Active; 'I' for Inactive)
REMARK    1  A    between atoms: C1_1  and  C2_2 
REMARK    2  A    between atoms: C2_2  and  C3_3 
REMARK    3  A    between atoms: C2_2  and  C4_4 
REMARK    4  A    between atoms: C2_2  and  C5_5 
ROOT
ATOM      1  C2  <0> d           0.002  -0.004   0.002  0.00  0.00    -0.006 C 
ENDROOT
BRANCH   1   2
ATOM      2  C1  <0> d          -0.019   1.526   0.010  0.00  0.00    -0.064 C 
ATOM      3  H1  <0> d           1.004   1.903   0.003  0.00  0.00     0.028 H 
ATOM      4  H2  <0> d          -0.546   1.887  -0.873  0.00  0.00     0.028 H 
ATOM      5  H3  <0> d          -0.529   1.877   0.907  0.00  0.00     0.028 H 
ENDBRANCH   1   2
BRANCH   1   6
ATOM      6  C3  <0> d           0.742  -0.511   1.242  0.00  0.00    -0.064 C 
ATOM      7  H4  <0> d           0.232  -0.159   2.138  0.00  0.00     0.028 H 
ATOM      8  H5  <0> d           0.757  -1.601   1.236  0.00  0.00     0.028 H 
ATOM      9  H6  <0> d           1.765  -0.134   1.234  0.00  0.00     0.028 H 
ENDBRANCH   1   6
BRANCH   1  10
ATOM     10  C4  <0> d          -1.433  -0.534   0.013  0.00  0.00    -0.064 C 
ATOM     11  H7  <0> d          -1.960  -0.173  -0.870  0.00  0.00     0.028 H 
ATOM     12  H8  <0> d          -1.419  -1.623   0.007  0.00  0.00     0.028 H 
ATOM     13  H9  <0> d          -1.944  -0.182   0.910  0.00  0.00     0.028 H 
ENDBRANCH   1  10
BRANCH   1  14
ATOM     14  C5  <0> d           0.707  -0.490  -1.238  0.00  0.00     0.053 A 
ATOM     15  C6  <0> d           0.847  -1.852  -1.459  0.00  0.00     0.130 A 
ATOM     16  O1  <0> d           0.352  -2.750  -0.566  0.00  0.00    -0.190 OA
ATOM     17  C7  <0> d           1.500  -2.287  -2.608  0.00  0.00    -0.044 A 
ATOM     18  C8  <0> d           1.987  -1.335  -3.489  0.00  0.00    -0.065 A 
ATOM     19  H10 <0> d           1.624  -3.341  -2.808  0.00  0.00     0.088 H 
ATOM     20  C9  <0> d           1.809   0.005  -3.200  0.00  0.00    -0.023 A 
ATOM     21  H11 <0> d           2.499  -1.636  -4.391  0.00  0.00     0.085 H 
ATOM     22  N1  <0> d           1.181   0.384  -2.104  0.00  0.00    -0.366 N 
ATOM     23  H12 <0> d           2.187   0.752  -3.882  0.00  0.00     0.111 H 
ATOM     24  H13 <0> d           1.068   1.331  -1.928  0.00  0.00     0.165 HD
ENDBRANCH   1  14
TORSDOF 4
