REMARK  4 active torsions:
REMARK  status: ('A' for Active; 'I' for Inactive)
REMARK    1  A    between atoms: C1_1  and  C2_2 
REMARK    2  A    between atoms: C2_2  and  C3_3 
REMARK    3  A    between atoms: C3_3  and  C4_5 
REMARK    4  A    between atoms: C3_3  and  C5_6 
ROOT
ATOM      1  C5  <0> d          -2.120   0.962   1.418  0.00  0.00     0.007 C 
ATOM      2  H2  <0> d          -2.724   1.322   0.707  0.00  0.00     0.052 H 
ATOM      3  C6  <0> d          -2.024  -0.562   1.290  0.00  0.00    -0.055 C 
ATOM      4  C7  <0> d          -3.391  -1.184   1.582  0.00  0.00    -0.064 C 
ATOM      5  C8  <0> d          -3.793  -0.897   3.029  0.00  0.00    -0.059 C 
ATOM      6  C9  <0> d          -3.956   0.614   3.223  0.00  0.00    -0.009 C 
ATOM      7  C10 <0> d          -2.681   1.299   2.782  0.00  0.00     0.131 C 
ATOM      8  O1  <0> d          -2.122   2.092   3.502  0.00  0.00    -0.298 OA
ATOM      9  H11 <0> d          -1.714  -0.823   0.278  0.00  0.00     0.034 H 
ATOM     10  H12 <0> d          -1.292  -0.941   2.003  0.00  0.00     0.034 H 
ATOM     11  H13 <0> d          -4.134  -0.757   0.908  0.00  0.00     0.033 H 
ATOM     12  H14 <0> d          -3.339  -2.262   1.427  0.00  0.00     0.033 H 
ATOM     13  H15 <0> d          -4.737  -1.396   3.250  0.00  0.00     0.033 H 
ATOM     14  H16 <0> d          -3.019  -1.269   3.702  0.00  0.00     0.033 H 
ATOM     15  H17 <0> d          -4.724   0.939   2.672  0.00  0.00     0.044 H 
ATOM     16  H18 <0> d          -4.147   0.830   4.274  0.00  0.00     0.044 H 
ENDROOT
BRANCH   1  17
ATOM     17  C3  <0> d          -0.729   1.579   1.267  0.00  0.00    -0.048 C 
ATOM     18  H1  <0> d          -0.103   1.275   2.106  0.00  0.00     0.040 H 
BRANCH  17  19
ATOM     19  C2  <0> d          -0.847   3.104   1.246  0.00  0.00    -0.065 C 
ATOM     20  H6  <0> d          -1.402   3.413   0.360  0.00  0.00     0.033 H 
ATOM     21  H7  <0> d          -1.373   3.441   2.139  0.00  0.00     0.033 H 
BRANCH  19  22
ATOM     22  C1  <0> d           0.551   3.724   1.213  0.00  0.00    -0.076 C 
ATOM     23  H3  <0> d           1.107   3.415   2.098  0.00  0.00     0.027 H 
ATOM     24  H4  <0> d           1.077   3.388   0.319  0.00  0.00     0.027 H 
ATOM     25  H5  <0> d           0.467   4.811   1.198  0.00  0.00     0.027 H 
ENDBRANCH  19  22
ENDBRANCH  17  19
BRANCH  17  26
ATOM     26  C4  <0> d          -0.097   1.098  -0.041  0.00  0.00    -0.072 C 
ATOM     27  H8  <0> d          -0.013   0.012  -0.026  0.00  0.00     0.028 H 
ATOM     28  H9  <0> d           0.894   1.538  -0.149  0.00  0.00     0.028 H 
ATOM     29  H10 <0> d          -0.723   1.403  -0.880  0.00  0.00     0.028 H 
ENDBRANCH  17  26
ENDBRANCH   1  17
TORSDOF 4
