REMARK  3 active torsions:
REMARK  status: ('A' for Active; 'I' for Inactive)
REMARK    1  A    between atoms: C6_6  and  C7_7 
REMARK    2  A    between atoms: C7_7  and  C8_8 
REMARK    3  A    between atoms: C8_8  and  O1_9 
ROOT
ATOM      1  C1  <0> d          -0.359   2.779   1.818  0.00  0.00    -0.074 A 
ATOM      2  C2  <0> d          -1.009   3.228   2.953  0.00  0.00    -0.045 A 
ATOM      3  C3  <0> d          -2.012   2.463   3.524  0.00  0.00     0.116 A 
ATOM      4  C4  <0> d          -2.367   1.252   2.955  0.00  0.00    -0.045 A 
ATOM      5  C5  <0> d          -1.719   0.807   1.817  0.00  0.00    -0.074 A 
ATOM      6  C6  <0> d          -0.718   1.572   1.248  0.00  0.00    -0.056 A 
ATOM      7  F1  <0> d          -2.644   2.899   4.635  0.00  0.00    -0.206 F 
ATOM      8  H1  <0> d           0.426   3.373   1.375  0.00  0.00     0.084 H 
ATOM      9  H2  <0> d          -0.731   4.173   3.396  0.00  0.00     0.088 H 
ATOM     10  H3  <0> d          -3.149   0.655   3.399  0.00  0.00     0.088 H 
ATOM     11  H4  <0> d          -1.996  -0.137   1.373  0.00  0.00     0.084 H 
ENDROOT
BRANCH   6  12
ATOM     12  C7  <0> d          -0.013   1.086   0.008  0.00  0.00    -0.021 C 
ATOM     13  H5  <0> d           0.002  -0.004   0.002  0.00  0.00     0.043 H 
ATOM     14  H6  <0> d           1.010   1.463   0.000  0.00  0.00     0.043 H 
BRANCH  12  15
ATOM     15  C8  <0> d          -0.753   1.593  -1.232  0.00  0.00     0.020 C 
ATOM     16  H7  <0> d          -1.775   1.215  -1.224  0.00  0.00     0.074 H 
ATOM     17  H8  <0> d          -0.767   2.683  -1.226  0.00  0.00     0.074 H 
BRANCH  15  18
ATOM     18  O1  <0> d          -0.084   1.132  -2.407  0.00  0.00    -0.401 OA
ATOM     19  H9  <0> d          -0.499   1.416  -3.233  0.00  0.00     0.209 HD
ENDBRANCH  15  18
ENDBRANCH  12  15
ENDBRANCH   6  12
TORSDOF 3
