REMARK  1 active torsions:
REMARK  status: ('A' for Active; 'I' for Inactive)
REMARK    1  A    between atoms: C4_8  and  C5_9 
ROOT
ATOM      1  C1  <0> d          -0.017   1.401   0.010  0.00  0.00    -0.052 A 
ATOM      2  C2  <0> d           1.177   2.065   0.002  0.00  0.00    -0.014 A 
ATOM      3  C3  <0> d           2.359   1.294  -0.013  0.00  0.00     0.261 A 
ATOM      4  O1  <0> d           3.451   1.839  -0.021  0.00  0.00    -0.267 OA
ATOM      5  N1  <0> d           2.270  -0.050  -0.020  0.00  0.00    -0.243 N 
ATOM      6  H1  <0> d           3.084  -0.578  -0.030  0.00  0.00     0.192 HD
ATOM      7  N2  <0> d           1.135  -0.650  -0.012  0.00  0.00    -0.176 NA
ATOM      8  C4  <0> d           0.002  -0.004   0.002  0.00  0.00     0.059 A 
ATOM      9  H2  <0> d          -0.952   1.942   0.026  0.00  0.00     0.086 H 
ATOM     10  H3  <0> d           1.214   3.144   0.007  0.00  0.00     0.092 H 
ENDROOT
BRANCH   8  11
ATOM     11  C5  <0> d          -1.296  -0.770   0.011  0.00  0.00    -0.010 A 
ATOM     12  C7  <0> d          -1.218  -2.293  -0.116  0.00  0.00    -0.056 A 
ATOM     13  C6  <0> d          -1.586  -1.655   1.225  0.00  0.00    -0.056 A 
ATOM     14  H7  <0> d          -2.013  -2.793  -0.670  0.00  0.00     0.034 H 
ATOM     15  H8  <0> d          -0.229  -2.740  -0.206  0.00  0.00     0.034 H 
ATOM     16  H5  <0> d          -0.838  -1.683   2.017  0.00  0.00     0.034 H 
ATOM     17  H6  <0> d          -2.622  -1.735   1.553  0.00  0.00     0.034 H 
ATOM     18  H4  <0> d          -2.141  -0.268  -0.460  0.00  0.00     0.049 H 
ENDBRANCH   8  11
TORSDOF 1
