REMARK  3 active torsions:
REMARK  status: ('A' for Active; 'I' for Inactive)
REMARK    1  A    between atoms: C1_1  and  C2_2 
REMARK    2  A    between atoms: C7_7  and  O1_8 
REMARK    3  A    between atoms: O1_8  and  C8_9 
ROOT
ATOM      1  C2  <0> d           1.175   1.782   0.000  0.00  0.00    -0.029 A 
ATOM      2  C3  <0> d          -0.013   1.076   0.008  0.00  0.00    -0.073 A 
ATOM      3  C4  <0> d          -1.219   1.750   0.017  0.00  0.00    -0.061 A 
ATOM      4  C5  <0> d          -1.241   3.134   0.030  0.00  0.00     0.036 A 
ATOM      5  C6  <0> d          -0.056   3.845   0.022  0.00  0.00    -0.029 A 
ATOM      6  C7  <0> d           1.156   3.169   0.008  0.00  0.00     0.075 A 
ATOM      7 Cl1  <0> d          -2.758   3.977   0.048  0.00  0.00    -0.084 Cl
ATOM      8  H4  <0> d           0.002  -0.004   0.002  0.00  0.00     0.084 H 
ATOM      9  H5  <0> d          -2.146   1.196   0.019  0.00  0.00     0.086 H 
ATOM     10  H6  <0> d          -0.073   4.924   0.028  0.00  0.00     0.090 H 
ENDROOT
BRANCH   6  11
ATOM     11  O1  <0> d           2.323   3.866   0.001  0.00  0.00    -0.355 OA
BRANCH  11  12
ATOM     12  C8  <0> d           2.228   5.291   0.009  0.00  0.00     0.010 C 
ATOM     13  H7  <0> d           1.683   5.624  -0.875  0.00  0.00     0.066 H 
ATOM     14  H8  <0> d           1.699   5.615   0.905  0.00  0.00     0.066 H 
ATOM     15  H9  <0> d           3.229   5.723   0.002  0.00  0.00     0.066 H 
ENDBRANCH  11  12
ENDBRANCH   6  11
BRANCH   1  16
ATOM     16  C1  <0> d           2.490   1.046  -0.016  0.00  0.00    -0.049 C 
ATOM     17  H1  <0> d           2.797   0.874  -1.048  0.00  0.00     0.033 H 
ATOM     18  H2  <0> d           3.247   1.642   0.494  0.00  0.00     0.033 H 
ATOM     19  H3  <0> d           2.377   0.089   0.494  0.00  0.00     0.033 H 
ENDBRANCH   1  16
TORSDOF 3
