REMARK  4 active torsions:
REMARK  status: ('A' for Active; 'I' for Inactive)
REMARK    1  A    between atoms: C1_1  and  O1_2 
REMARK    2  A    between atoms: O1_2  and  C2_3 
REMARK    3  A    between atoms: C2_3  and  C3_4 
REMARK    4  A    between atoms: C3_4  and  C4_5 
ROOT
ATOM      1  C2  <0> d           1.157  -2.576   1.158  0.00  0.00     0.025 C 
ATOM      2  H4  <0> d           1.454  -2.094   2.089  0.00  0.00     0.074 H 
ATOM      3  H5  <0> d           0.070  -2.574   1.079  0.00  0.00     0.074 H 
ENDROOT
BRANCH   1   4
ATOM      4  O1  <0> d           1.633  -3.924   1.145  0.00  0.00    -0.396 OA
BRANCH   4   5
ATOM      5  C1  <0> d           1.131  -4.727   2.215  0.00  0.00     0.004 C 
ATOM      6  H1  <0> d           0.043  -4.769   2.158  0.00  0.00     0.066 H 
ATOM      7  H2  <0> d           1.538  -5.735   2.135  0.00  0.00     0.066 H 
ATOM      8  H3  <0> d           1.428  -4.290   3.168  0.00  0.00     0.066 H 
ENDBRANCH   4   5
ENDBRANCH   1   4
BRANCH   1   9
ATOM      9  C3  <0> d           1.756  -1.813  -0.025  0.00  0.00     0.015 C 
ATOM     10  H6  <0> d           1.458  -2.295  -0.957  0.00  0.00     0.048 H 
ATOM     11  H7  <0> d           2.843  -1.815   0.054  0.00  0.00     0.048 H 
BRANCH   9  12
ATOM     12  C4  <0> d           1.254  -0.392  -0.012  0.00  0.00     0.175 A 
ATOM     13  N3  <0> d           0.002  -0.004   0.002  0.00  0.00    -0.112 NA
ATOM     14  N2  <0> d          -0.015   1.284   0.009  0.00  0.00    -0.021 NA
ATOM     15  N1  <0> d           1.193   1.728  -0.000  0.00  0.00    -0.021 NA
ATOM     16  N4  <0> d           1.990   0.725  -0.013  0.00  0.00    -0.112 NA
ENDBRANCH   9  12
ENDBRANCH   1   9
TORSDOF 4
