REMARK  4 active torsions:
REMARK  status: ('A' for Active; 'I' for Inactive)
REMARK    1  A    between atoms: C1_1  and  C2_2 
REMARK    2  A    between atoms: C2_2  and  C3_4 
REMARK    3  A    between atoms: C2_2  and  O2_11 
REMARK    4  A    between atoms: C7_8  and  O1_10 
ROOT
ATOM      1  C3  <0> d          -2.143   1.058   1.278  0.00  0.00    -0.027 A 
ATOM      2  C4  <0> d          -2.410  -0.203   1.780  0.00  0.00    -0.074 A 
ATOM      3  C5  <0> d          -3.706  -0.684   1.792  0.00  0.00    -0.080 A 
ATOM      4  C6  <0> d          -4.738   0.094   1.302  0.00  0.00    -0.051 A 
ATOM      5  C7  <0> d          -4.472   1.359   0.797  0.00  0.00     0.066 A 
ATOM      6  C8  <0> d          -3.171   1.841   0.791  0.00  0.00    -0.043 A 
ATOM      7  H5  <0> d          -1.605  -0.812   2.163  0.00  0.00     0.084 H 
ATOM      8  H6  <0> d          -3.913  -1.668   2.185  0.00  0.00     0.083 H 
ATOM      9  H7  <0> d          -5.750  -0.282   1.311  0.00  0.00     0.087 H 
ATOM     10  H8  <0> d          -2.962   2.827   0.403  0.00  0.00     0.088 H 
ENDROOT
BRANCH   1  11
ATOM     11  C2  <0> d          -0.729   1.579   1.267  0.00  0.00     0.057 C 
ATOM     12  H1  <0> d          -0.744   2.669   1.273  0.00  0.00     0.089 H 
BRANCH  11  13
ATOM     13  C1  <0> d          -0.013   1.086   0.008  0.00  0.00    -0.049 C 
ATOM     14  H2  <0> d           0.002  -0.004   0.002  0.00  0.00     0.031 H 
ATOM     15  H3  <0> d           1.010   1.463   0.000  0.00  0.00     0.031 H 
ATOM     16  H4  <0> d          -0.540   1.447  -0.875  0.00  0.00     0.031 H 
ENDBRANCH  11  13
BRANCH  11  17
ATOM     17  O2  <0> d          -0.038   1.106   2.425  0.00  0.00    -0.391 OA
ATOM     18  H10 <0> d           0.880   1.403   2.483  0.00  0.00     0.210 HD
ENDBRANCH  11  17
ENDBRANCH   1  11
BRANCH   5  19
ATOM     19  O1  <0> d          -5.485   2.126   0.315  0.00  0.00    -0.361 OA
ATOM     20  H9  <0> d          -5.898   2.694   0.980  0.00  0.00     0.217 HD
ENDBRANCH   5  19
TORSDOF 4
