REMARK  9 active torsions:
REMARK  status: ('A' for Active; 'I' for Inactive)
REMARK    1  A    between atoms: C1_1  and  C2_2 
REMARK    2  A    between atoms: C2_2  and  C3_3 
REMARK    3  A    between atoms: C3_3  and  C4_4 
REMARK    4  A    between atoms: C4_4  and  C5_5 
REMARK    5  A    between atoms: C5_5  and  C6_6 
REMARK    6  A    between atoms: C6_6  and  C7_8 
REMARK    7  A    between atoms: C6_6  and  O1_13 
REMARK    8  A    between atoms: C7_8  and  C8_10 
REMARK    9  A    between atoms: C7_8  and  C9_11 
ROOT
ATOM      1  C5  <0> d          -3.454   2.171   1.280  0.00  0.00    -0.040 C 
ATOM      2  H12 <0> d          -3.272   3.242   1.195  0.00  0.00     0.036 H 
ATOM      3  H13 <0> d          -4.063   1.839   0.439  0.00  0.00     0.036 H 
ENDROOT
BRANCH   1   4
ATOM      4  C4  <0> d          -4.191   1.881   2.589  0.00  0.00    -0.063 C 
ATOM      5  H10 <0> d          -4.373   0.810   2.673  0.00  0.00     0.033 H 
ATOM      6  H11 <0> d          -3.582   2.213   3.430  0.00  0.00     0.033 H 
BRANCH   4   7
ATOM      7  C3  <0> d          -5.526   2.628   2.599  0.00  0.00    -0.065 C 
ATOM      8  H8  <0> d          -5.344   3.699   2.515  0.00  0.00     0.033 H 
ATOM      9  H9  <0> d          -6.135   2.295   1.758  0.00  0.00     0.033 H 
BRANCH   7  10
ATOM     10  C2  <0> d          -6.263   2.338   3.909  0.00  0.00    -0.069 C 
ATOM     11  H6  <0> d          -6.445   1.266   3.993  0.00  0.00     0.032 H 
ATOM     12  H7  <0> d          -5.654   2.670   4.749  0.00  0.00     0.032 H 
BRANCH  10  13
ATOM     13  C1  <0> d          -7.598   3.085   3.919  0.00  0.00    -0.077 C 
ATOM     14  H3  <0> d          -8.207   2.752   3.078  0.00  0.00     0.027 H 
ATOM     15  H4  <0> d          -8.123   2.878   4.852  0.00  0.00     0.027 H 
ATOM     16  H5  <0> d          -7.415   4.156   3.834  0.00  0.00     0.027 H 
ENDBRANCH  10  13
ENDBRANCH   7  10
ENDBRANCH   4   7
ENDBRANCH   1   4
BRANCH   1  17
ATOM     17  C6  <0> d          -2.119   1.424   1.269  0.00  0.00     0.042 C 
ATOM     18  H1  <0> d          -1.547   1.690   2.158  0.00  0.00     0.083 H 
BRANCH  17  19
ATOM     19  C7  <0> d          -1.328   1.812   0.018  0.00  0.00    -0.017 C 
ATOM     20  H2  <0> d          -1.143   2.886   0.023  0.00  0.00     0.049 H 
BRANCH  19  21
ATOM     21  C8  <0> d          -2.131   1.438  -1.229  0.00  0.00    -0.067 C 
ATOM     22  H14 <0> d          -2.316   0.364  -1.234  0.00  0.00     0.028 H 
ATOM     23  H15 <0> d          -3.082   1.970  -1.222  0.00  0.00     0.028 H 
ATOM     24  H16 <0> d          -1.567   1.714  -2.120  0.00  0.00     0.028 H 
ENDBRANCH  19  21
BRANCH  19  25
ATOM     25  C9  <0> d          -0.013   1.076   0.008  0.00  0.00    -0.106 C 
ATOM     26  C10 <0> d           1.113   1.746   0.001  0.00  0.00    -0.124 C 
ATOM     27  H18 <0> d           1.098   2.826   0.007  0.00  0.00     0.066 H 
ATOM     28  H19 <0> d           2.055   1.219  -0.011  0.00  0.00     0.066 H 
ATOM     29  H17 <0> d           0.002  -0.004   0.002  0.00  0.00     0.076 H 
ENDBRANCH  19  25
ENDBRANCH  17  19
BRANCH  17  30
ATOM     30  O1  <0> d          -2.361   0.016   1.263  0.00  0.00    -0.395 OA
ATOM     31  H20 <0> d          -2.867  -0.293   0.498  0.00  0.00     0.210 HD
ENDBRANCH  17  30
ENDBRANCH   1  17
TORSDOF 9
