REMARK  4 active torsions:
REMARK  status: ('A' for Active; 'I' for Inactive)
REMARK    1  A    between atoms: C1_1  and  C2_2 
REMARK    2  A    between atoms: C2_2  and  C3_3 
REMARK    3  A    between atoms: C3_3  and  O2_5 
REMARK    4  A    between atoms: O2_5  and  C4_6 
ROOT
ATOM      1  C4  <0> d          -2.393   1.052   0.019  0.00  0.00     0.048 C 
ATOM      2  C5  <0> d          -2.823   0.776  -1.423  0.00  0.00    -0.040 C 
ATOM      3  C6  <0> d          -4.095  -0.074  -1.421  0.00  0.00    -0.063 C 
ATOM      4  C7  <0> d          -5.210   0.677  -0.691  0.00  0.00    -0.065 C 
ATOM      5  C8  <0> d          -4.779   0.952   0.751  0.00  0.00    -0.063 C 
ATOM      6  C9  <0> d          -3.508   1.803   0.750  0.00  0.00    -0.040 C 
ATOM      7  H6  <0> d          -2.197   0.107   0.527  0.00  0.00     0.084 H 
ATOM      8  H7  <0> d          -3.019   1.721  -1.931  0.00  0.00     0.036 H 
ATOM      9  H8  <0> d          -2.029   0.241  -1.943  0.00  0.00     0.036 H 
ATOM     10  H9  <0> d          -3.900  -1.019  -0.914  0.00  0.00     0.033 H 
ATOM     11  H10 <0> d          -4.402  -0.271  -2.449  0.00  0.00     0.033 H 
ATOM     12  H11 <0> d          -6.116   0.070  -0.690  0.00  0.00     0.033 H 
ATOM     13  H12 <0> d          -5.405   1.621  -1.199  0.00  0.00     0.033 H 
ATOM     14  H13 <0> d          -4.584   0.008   1.259  0.00  0.00     0.033 H 
ATOM     15  H14 <0> d          -5.574   1.487   1.272  0.00  0.00     0.033 H 
ATOM     16  H15 <0> d          -3.201   1.999   1.777  0.00  0.00     0.036 H 
ATOM     17  H16 <0> d          -3.703   2.747   0.242  0.00  0.00     0.036 H 
ENDROOT
BRANCH   1  18
ATOM     18  O2  <0> d          -1.186   1.859   0.018  0.00  0.00    -0.316 OA
BRANCH  18  19
ATOM     19  C3  <0> d          -0.014   1.204   0.009  0.00  0.00     0.258 C 
ATOM     20  O1  <0> d           0.002  -0.004   0.002  0.00  0.00    -0.265 OA
BRANCH  19  21
ATOM     21  C2  <0> d           1.280   1.975   0.000  0.00  0.00     0.013 C 
ATOM     22  H4  <0> d           1.321   2.607  -0.887  0.00  0.00     0.047 H 
ATOM     23  H5  <0> d           1.338   2.598   0.893  0.00  0.00     0.047 H 
BRANCH  21  24
ATOM     24  C1  <0> d           2.457   0.997  -0.016  0.00  0.00    -0.068 C 
ATOM     25  H1  <0> d           2.416   0.365   0.871  0.00  0.00     0.028 H 
ATOM     26  H2  <0> d           2.399   0.374  -0.909  0.00  0.00     0.028 H 
ATOM     27  H3  <0> d           3.393   1.555  -0.022  0.00  0.00     0.028 H 
ENDBRANCH  21  24
ENDBRANCH  19  21
ENDBRANCH  18  19
ENDBRANCH   1  18
TORSDOF 4
