REMARK  5 active torsions:
REMARK  status: ('A' for Active; 'I' for Inactive)
REMARK    1  A    between atoms: C1_1  and  C2_2 
REMARK    2  A    between atoms: C2_2  and  C3_3 
REMARK    3  A    between atoms: C3_3  and  C4_4 
REMARK    4  A    between atoms: C4_4  and  C5_6 
REMARK    5  A    between atoms: C4_4  and  C6_7 
ROOT
ATOM      1  C4  <0> d           0.763  -2.041   1.233  0.00  0.00    -0.042 C 
ATOM      2  H1  <0> d           1.193  -2.393   0.296  0.00  0.00     0.045 H 
ENDROOT
BRANCH   1   3
ATOM      3  C3  <0> d           0.742  -0.511   1.242  0.00  0.00    -0.059 C 
ATOM      4  H7  <0> d           1.765  -0.134   1.234  0.00  0.00     0.033 H 
ATOM      5  H8  <0> d           0.232  -0.159   2.138  0.00  0.00     0.033 H 
BRANCH   3   6
ATOM      6  C2  <0> d           0.002  -0.004   0.002  0.00  0.00    -0.068 C 
ATOM      7  H5  <0> d          -1.020  -0.381   0.010  0.00  0.00     0.032 H 
ATOM      8  H6  <0> d           0.512  -0.356  -0.895  0.00  0.00     0.032 H 
BRANCH   6   9
ATOM      9  C1  <0> d          -0.019   1.526   0.010  0.00  0.00    -0.077 C 
ATOM     10  H2  <0> d           1.004   1.903   0.003  0.00  0.00     0.027 H 
ATOM     11  H3  <0> d          -0.546   1.887  -0.873  0.00  0.00     0.027 H 
ATOM     12  H4  <0> d          -0.529   1.877   0.907  0.00  0.00     0.027 H 
ENDBRANCH   6   9
ENDBRANCH   3   6
ENDBRANCH   1   3
BRANCH   1  13
ATOM     13  C5  <0> d          -0.666  -2.571   1.370  0.00  0.00    -0.070 C 
ATOM     14  H9  <0> d          -1.096  -2.219   2.307  0.00  0.00     0.028 H 
ATOM     15  H10 <0> d          -1.268  -2.211   0.535  0.00  0.00     0.028 H 
ATOM     16  H11 <0> d          -0.651  -3.661   1.364  0.00  0.00     0.028 H 
ENDBRANCH   1  13
BRANCH   1  17
ATOM     17  C6  <0> d           1.596  -2.538   2.386  0.00  0.00    -0.108 C 
ATOM     18  C7  <0> d           2.654  -3.276   2.160  0.00  0.00    -0.124 C 
ATOM     19  H13 <0> d           3.251  -3.632   2.986  0.00  0.00     0.066 H 
ATOM     20  H14 <0> d           2.930  -3.527   1.146  0.00  0.00     0.066 H 
ATOM     21  H12 <0> d           1.320  -2.287   3.400  0.00  0.00     0.075 H 
ENDBRANCH   1  17
TORSDOF 5
