REMARK  0 active torsions:
REMARK  status: ('A' for Active; 'I' for Inactive)
ROOT
ATOM      1  C1  <0> d           1.409   1.577  -2.499  0.00  0.00    -0.065 C 
ATOM      2  C2  <0> d          -0.035   1.073  -2.487  0.00  0.00    -0.065 C 
ATOM      3  C3  <0> d          -0.748   1.589  -1.235  0.00  0.00    -0.061 C 
ATOM      4  C4  <0> d          -0.013   1.086   0.008  0.00  0.00    -0.044 C 
ATOM      5  H1  <0> d           0.002  -0.004   0.002  0.00  0.00     0.041 H 
ATOM      6  C5  <0> d          -0.737   1.576   1.264  0.00  0.00    -0.006 C 
ATOM      7  C6  <0> d          -0.617   3.072   1.352  0.00  0.00     0.127 C 
ATOM      8  O1  <0> d          -1.594   3.762   1.520  0.00  0.00    -0.298 OA
ATOM      9  C7  <0> d           0.757   3.691   1.219  0.00  0.00    -0.009 C 
ATOM     10  C8  <0> d           1.415   3.142  -0.051  0.00  0.00    -0.055 C 
ATOM     11  C9  <0> d           1.424   1.612  -0.003  0.00  0.00    -0.050 C 
ATOM     12  H2  <0> d           1.943   1.278   0.895  0.00  0.00     0.040 H 
ATOM     13  C10 <0> d           2.138   1.079  -1.250  0.00  0.00    -0.061 C 
ATOM     14  H3  <0> d           1.413   2.667  -2.512  0.00  0.00     0.033 H 
ATOM     15  H4  <0> d           1.916   1.202  -3.389  0.00  0.00     0.033 H 
ATOM     16  H5  <0> d          -0.553   1.436  -3.375  0.00  0.00     0.033 H 
ATOM     17  H6  <0> d          -0.039  -0.017  -2.484  0.00  0.00     0.033 H 
ATOM     18  H7  <0> d          -1.774   1.223  -1.224  0.00  0.00     0.033 H 
ATOM     19  H8  <0> d          -0.749   2.679  -1.240  0.00  0.00     0.033 H 
ATOM     20  H9  <0> d          -1.701   1.314   1.216  0.00  0.00     0.044 H 
ATOM     21  H10 <0> d          -0.278   1.132   2.147  0.00  0.00     0.044 H 
ATOM     22  H11 <0> d           1.308   3.455   2.020  0.00  0.00     0.044 H 
ATOM     23  H12 <0> d           0.669   4.775   1.147  0.00  0.00     0.044 H 
ATOM     24  H13 <0> d           2.439   3.510  -0.117  0.00  0.00     0.034 H 
ATOM     25  H14 <0> d           0.852   3.475  -0.923  0.00  0.00     0.034 H 
ATOM     26  H15 <0> d           3.167   1.438  -1.261  0.00  0.00     0.033 H 
ATOM     27  H16 <0> d           2.133  -0.011  -1.235  0.00  0.00     0.033 H 
ENDROOT
TORSDOF 0
