REMARK  7 active torsions:
REMARK  status: ('A' for Active; 'I' for Inactive)
REMARK    1  A    between atoms: C1_1  and  C2_2 
REMARK    2  A    between atoms: C2_2  and  C3_4 
REMARK    3  A    between atoms: C2_2  and  O3_8 
REMARK    4  A    between atoms: C3_4  and  O2_6 
REMARK    5  A    between atoms: O2_6  and  C4_7 
REMARK    6  A    between atoms: O3_8  and  C5_9 
REMARK    7  A    between atoms: C5_9  and  C6_11 
ROOT
ATOM      1  C2  <0> d          -1.056  -2.140   0.001  0.00  0.00     0.128 C 
ATOM      2  H1  <0> d          -0.148  -2.441  -0.523  0.00  0.00     0.099 H 
ENDROOT
BRANCH   1   3
ATOM      3  C1  <0> d          -1.008  -2.656   1.440  0.00  0.00    -0.043 C 
ATOM      4  H2  <0> d          -0.139  -2.238   1.948  0.00  0.00     0.031 H 
ATOM      5  H3  <0> d          -1.915  -2.355   1.964  0.00  0.00     0.031 H 
ATOM      6  H4  <0> d          -0.936  -3.744   1.433  0.00  0.00     0.031 H 
ENDBRANCH   1   3
BRANCH   1   7
ATOM      7  C3  <0> d          -2.257  -2.718  -0.701  0.00  0.00     0.287 C 
ATOM      8  O1  <0> d          -3.107  -1.985  -1.149  0.00  0.00    -0.262 OA
BRANCH   7   9
ATOM      9  O2  <0> d          -2.383  -4.048  -0.830  0.00  0.00    -0.324 OA
BRANCH   9  10
ATOM     10  C4  <0> d          -3.566  -4.535  -1.518  0.00  0.00     0.013 C 
ATOM     11  H5  <0> d          -3.584  -4.139  -2.533  0.00  0.00     0.067 H 
ATOM     12  H6  <0> d          -3.544  -5.624  -1.552  0.00  0.00     0.067 H 
ATOM     13  H7  <0> d          -4.457  -4.207  -0.984  0.00  0.00     0.067 H 
ENDBRANCH   9  10
ENDBRANCH   7   9
ENDBRANCH   1   7
BRANCH   1  14
ATOM     14  O3  <0> d          -1.151  -0.691   0.009  0.00  0.00    -0.306 OA
BRANCH  14  15
ATOM     15  C5  <0> d           0.002  -0.004   0.002  0.00  0.00     0.255 C 
ATOM     16  O4  <0> d           1.056  -0.594  -0.011  0.00  0.00    -0.266 OA
BRANCH  15  17
ATOM     17  C6  <0> d          -0.018   1.503   0.010  0.00  0.00     0.004 C 
ATOM     18  H8  <0> d           1.004   1.880   0.003  0.00  0.00     0.041 H 
ATOM     19  H9  <0> d          -0.545   1.864  -0.873  0.00  0.00     0.041 H 
ATOM     20  H10 <0> d          -0.529   1.854   0.907  0.00  0.00     0.041 H 
ENDBRANCH  15  17
ENDBRANCH  14  15
ENDBRANCH   1  14
TORSDOF 7
