REMARK  1 active torsions:
REMARK  status: ('A' for Active; 'I' for Inactive)
REMARK    1  A    between atoms: C1_1  and  C2_2 
ROOT
ATOM      1  C2  <0> d           0.361   4.352   0.022  0.00  0.00    -0.001 A 
ATOM      2  C3  <0> d          -0.900   3.852   0.031  0.00  0.00     0.017 A 
ATOM      3  N1  <0> d          -1.055   2.543   0.020  0.00  0.00    -0.241 NA
ATOM      4  C4  <0> d          -0.021   1.732   0.012  0.00  0.00     0.167 A 
ATOM      5  S1  <0> d           1.315   2.841   0.005  0.00  0.00    -0.062 SA
ATOM      6 Cl1  <0> d           0.002  -0.004   0.002  0.00  0.00    -0.054 Cl
ATOM      7  H4  <0> d          -1.756   4.510   0.043  0.00  0.00     0.116 H 
ENDROOT
BRANCH   1   8
ATOM      8  C1  <0> d           0.828   5.785   0.026  0.00  0.00    -0.044 C 
ATOM      9  H1  <0> d           1.917   5.812   0.015  0.00  0.00     0.034 H 
ATOM     10  H2  <0> d           0.443   6.295  -0.858  0.00  0.00     0.034 H 
ATOM     11  H3  <0> d           0.460   6.284   0.922  0.00  0.00     0.034 H 
ENDBRANCH   1   8
TORSDOF 1
