REMARK  6 active torsions:
REMARK  status: ('A' for Active; 'I' for Inactive)
REMARK    1  A    between atoms: C1_1  and  C2_2 
REMARK    2  A    between atoms: C1_1  and  O3_12 
REMARK    3  A    between atoms: C3_3  and  C6_10 
REMARK    4  A    between atoms: C4_5  and  C5_8 
REMARK    5  A    between atoms: C5_8  and  O1_9 
REMARK    6  A    between atoms: C6_10  and  O2_11 
ROOT
ATOM      1  C2  <0> d          -0.468   2.723   1.901  0.00  0.00     0.061 A 
ATOM      2  C3  <0> d          -0.718   1.572   1.248  0.00  0.00     0.084 A 
ATOM      3  N1  <0> d          -1.701   0.931   1.898  0.00  0.00    -0.233 NA
ATOM      4  C4  <0> d          -2.074   1.644   2.925  0.00  0.00     0.128 A 
ATOM      5  N2  <0> d          -1.331   2.772   2.962  0.00  0.00    -0.343 N 
ATOM      6  H1  <0> d          -1.400   3.506   3.638  0.00  0.00     0.167 HD
ENDROOT
BRANCH   1   7
ATOM      7  C1  <0> d           0.563   3.759   1.533  0.00  0.00     0.056 C 
ATOM      8  H2  <0> d           1.554   3.306   1.547  0.00  0.00     0.083 H 
ATOM      9  H3  <0> d           0.352   4.142   0.534  0.00  0.00     0.083 H 
BRANCH   7  10
ATOM     10  O3  <0> d           0.516   4.832   2.475  0.00  0.00    -0.395 OA
ATOM     11  H10 <0> d           1.154   5.537   2.299  0.00  0.00     0.209 HD
ENDBRANCH   7  10
ENDBRANCH   1   7
BRANCH   2  12
ATOM     12  C6  <0> d          -0.013   1.086   0.008  0.00  0.00     0.058 C 
ATOM     13  H7  <0> d           0.002  -0.004   0.002  0.00  0.00     0.083 H 
ATOM     14  H8  <0> d           1.010   1.463   0.000  0.00  0.00     0.083 H 
BRANCH  12  15
ATOM     15  O2  <0> d          -0.704   1.559  -1.150  0.00  0.00    -0.395 OA
ATOM     16  H9  <0> d          -0.304   1.284  -1.986  0.00  0.00     0.209 HD
ENDBRANCH  12  15
ENDBRANCH   2  12
BRANCH   4  17
ATOM     17  C5  <0> d          -3.152   1.270   3.909  0.00  0.00     0.071 C 
ATOM     18  H4  <0> d          -4.100   1.158   3.383  0.00  0.00     0.086 H 
ATOM     19  H5  <0> d          -2.892   0.330   4.394  0.00  0.00     0.086 H 
BRANCH  17  20
ATOM     20  O1  <0> d          -3.274   2.297   4.895  0.00  0.00    -0.393 OA
ATOM     21  H6  <0> d          -3.952   2.123   5.563  0.00  0.00     0.209 HD
ENDBRANCH  17  20
ENDBRANCH   4  17
TORSDOF 6
