REMARK  1 active torsions:
REMARK  status: ('A' for Active; 'I' for Inactive)
REMARK    1  A    between atoms: C1_1  and  C2_2 
ROOT
ATOM      1  C2  <0> d          -0.718   1.572   1.248  0.00  0.00     0.033 A 
ATOM      2  C3  <0> d          -2.094   1.784   1.205  0.00  0.00    -0.059 A 
ATOM      3  C4  <0> d          -2.750   2.219   2.322  0.00  0.00    -0.067 A 
ATOM      4  C5  <0> d          -1.994   2.450   3.486  0.00  0.00     0.012 A 
ATOM      5  C6  <0> d          -2.596   2.904   4.674  0.00  0.00    -0.068 A 
ATOM      6  C7  <0> d          -1.796   3.105   5.764  0.00  0.00    -0.065 A 
ATOM      7  C8  <0> d          -0.428   2.860   5.675  0.00  0.00     0.005 A 
ATOM      8  N1  <0> d           0.127   2.436   4.565  0.00  0.00    -0.241 NA
ATOM      9  C9  <0> d          -0.597   2.219   3.462  0.00  0.00     0.159 A 
ATOM     10  N2  <0> d          -0.019   1.788   2.336  0.00  0.00    -0.234 NA
ATOM     11  H4  <0> d          -2.642   1.602   0.292  0.00  0.00     0.086 H 
ATOM     12  H5  <0> d          -3.817   2.386   2.310  0.00  0.00     0.085 H 
ATOM     13  H6  <0> d          -3.659   3.088   4.723  0.00  0.00     0.085 H 
ATOM     14  H7  <0> d          -2.225   3.454   6.692  0.00  0.00     0.085 H 
ATOM     15  H8  <0> d           0.192   3.023   6.543  0.00  0.00     0.114 H 
ENDROOT
BRANCH   1  16
ATOM     16  C1  <0> d          -0.013   1.086   0.008  0.00  0.00    -0.035 C 
ATOM     17  H1  <0> d           0.002  -0.004   0.002  0.00  0.00     0.035 H 
ATOM     18  H2  <0> d           1.010   1.463   0.000  0.00  0.00     0.035 H 
ATOM     19  H3  <0> d          -0.540   1.447  -0.875  0.00  0.00     0.035 H 
ENDBRANCH   1  16
TORSDOF 1
