REMARK  3 active torsions:
REMARK  status: ('A' for Active; 'I' for Inactive)
REMARK    1  A    between atoms: C1_1  and  C2_2 
REMARK    2  A    between atoms: C4_4  and  N2_10 
REMARK    3  A    between atoms: N1_5  and  C7_9 
ROOT
ATOM      1  C2  <0> d           1.224  -2.066  -0.020  0.00  0.00    -0.053 A 
ATOM      2  C3  <0> d           1.208  -0.672  -0.013  0.00  0.00    -0.035 A 
ATOM      3  C4  <0> d           0.002  -0.004   0.002  0.00  0.00     0.103 A 
ATOM      4  N1  <0> d          -1.171  -0.697   0.015  0.00  0.00    -0.305 N 
ATOM      5  C5  <0> d          -1.176  -2.043   0.003  0.00  0.00     0.249 A 
ATOM      6  O1  <0> d          -2.238  -2.646   0.011  0.00  0.00    -0.268 OA
ATOM      7  C6  <0> d           0.029  -2.754  -0.012  0.00  0.00    -0.011 A 
ATOM      8  H4  <0> d           2.135  -0.119  -0.019  0.00  0.00     0.090 H 
ATOM      9  H5  <0> d           0.023  -3.834  -0.017  0.00  0.00     0.092 H 
ENDROOT
BRANCH   1  10
ATOM     10  C1  <0> d           2.533  -2.813  -0.037  0.00  0.00    -0.051 C 
ATOM     11  H1  <0> d           2.859  -2.998   0.986  0.00  0.00     0.033 H 
ATOM     12  H2  <0> d           2.402  -3.763  -0.555  0.00  0.00     0.033 H 
ATOM     13  H3  <0> d           3.284  -2.217  -0.556  0.00  0.00     0.033 H 
ENDBRANCH   1  10
BRANCH   3  14
ATOM     14  N2  <0> d          -0.017   1.371   0.010  0.00  0.00    -0.385 N 
ATOM     15  H9  <0> d           0.817   1.868   0.004  0.00  0.00     0.157 HD
ATOM     16  H10 <0> d          -0.863   1.845   0.016  0.00  0.00     0.157 HD
ENDBRANCH   3  14
BRANCH   4  17
ATOM     17  C7  <0> d          -2.442   0.032   0.037  0.00  0.00    -0.009 C 
ATOM     18  H6  <0> d          -2.771   0.218  -0.985  0.00  0.00     0.057 H 
ATOM     19  H7  <0> d          -3.192  -0.562   0.558  0.00  0.00     0.057 H 
ATOM     20  H8  <0> d          -2.307   0.982   0.553  0.00  0.00     0.057 H 
ENDBRANCH   4  17
TORSDOF 3
