REMARK  3 active torsions:
REMARK  status: ('A' for Active; 'I' for Inactive)
REMARK    1  A    between atoms: C1_1  and  C2_2 
REMARK    2  A    between atoms: C2_2  and  C3_3 
REMARK    3  A    between atoms: C5_5  and  C8_9 
ROOT
ATOM      1  C3  <0> d          -0.749   3.086   1.275  0.00  0.00    -0.040 A 
ATOM      2  C4  <0> d          -1.800   3.777   0.691  0.00  0.00    -0.068 A 
ATOM      3  C5  <0> d          -1.777   5.163   0.722  0.00  0.00    -0.044 A 
ATOM      4  C6  <0> d          -0.714   5.805   1.330  0.00  0.00     0.007 A 
ATOM      5  N1  <0> d           0.268   5.115   1.876  0.00  0.00    -0.272 NA
ATOM      6  C7  <0> d           0.276   3.796   1.870  0.00  0.00     0.008 A 
ATOM      7  H6  <0> d          -2.617   3.248   0.222  0.00  0.00     0.085 H 
ATOM      8  H7  <0> d          -0.689   6.884   1.359  0.00  0.00     0.115 H 
ATOM      9  H8  <0> d           1.095   3.265   2.331  0.00  0.00     0.115 H 
ENDROOT
BRANCH   1  10
ATOM     10  C2  <0> d          -0.729   1.579   1.267  0.00  0.00    -0.043 C 
ATOM     11  H4  <0> d          -1.751   1.202   1.275  0.00  0.00     0.039 H 
ATOM     12  H5  <0> d          -0.202   1.218   2.150  0.00  0.00     0.039 H 
BRANCH  10  13
ATOM     13  C1  <0> d          -0.013   1.086   0.008  0.00  0.00    -0.073 C 
ATOM     14  H1  <0> d           0.002  -0.004   0.002  0.00  0.00     0.028 H 
ATOM     15  H2  <0> d           1.010   1.463   0.000  0.00  0.00     0.028 H 
ATOM     16  H3  <0> d          -0.540   1.447  -0.875  0.00  0.00     0.028 H 
ENDBRANCH  10  13
ENDBRANCH   1  10
BRANCH   3  17
ATOM     17  C8  <0> d          -2.896   5.959   0.102  0.00  0.00    -0.050 C 
ATOM     18  H9  <0> d          -3.670   6.139   0.847  0.00  0.00     0.033 H 
ATOM     19  H10 <0> d          -2.507   6.913  -0.257  0.00  0.00     0.033 H 
ATOM     20  H11 <0> d          -3.318   5.401  -0.734  0.00  0.00     0.033 H 
ENDBRANCH   3  17
TORSDOF 3
