REMARK  3 active torsions:
REMARK  status: ('A' for Active; 'I' for Inactive)
REMARK    1  A    between atoms: C2_2  and  O4_12 
REMARK    2  A    between atoms: C3_4  and  O3_11 
REMARK    3  A    between atoms: C5_8  and  O2_10 
ROOT
ATOM      1  C1  <0> d          -0.013   1.086   0.008  0.00  0.00     0.007 C 
ATOM      2  C2  <0> d          -0.756   1.595  -1.231  0.00  0.00     0.066 C 
ATOM      3  H1  <0> d          -0.218   1.291  -2.129  0.00  0.00     0.087 H 
ATOM      4  C3  <0> d          -0.838   3.123  -1.172  0.00  0.00     0.081 C 
ATOM      5  H2  <0> d           0.167   3.543  -1.203  0.00  0.00     0.090 H 
ATOM      6  C4  <0> d          -1.527   3.539   0.131  0.00  0.00     0.049 C 
ATOM      7  O1  <0> d          -0.802   3.008   1.242  0.00  0.00    -0.359 OA
ATOM      8  C5  <0> d          -0.732   1.581   1.266  0.00  0.00     0.131 C 
ATOM      9  H3  <0> d          -1.740   1.169   1.294  0.00  0.00     0.128 H 
ATOM     10  H4  <0> d           0.002  -0.004   0.002  0.00  0.00     0.044 H 
ATOM     11  H5  <0> d           1.010   1.464   0.000  0.00  0.00     0.044 H 
ATOM     12  H6  <0> d          -1.550   4.627   0.198  0.00  0.00     0.078 H 
ATOM     13  H7  <0> d          -2.546   3.153   0.143  0.00  0.00     0.078 H 
ENDROOT
BRANCH   2  14
ATOM     14  O4  <0> d          -2.075   1.046  -1.256  0.00  0.00    -0.393 OA
ATOM     15  H10 <0> d          -2.099   0.079  -1.287  0.00  0.00     0.210 HD
ENDBRANCH   2  14
BRANCH   4  16
ATOM     16  O3  <0> d          -1.591   3.604  -2.287  0.00  0.00    -0.391 OA
ATOM     17  H9  <0> d          -1.684   4.566  -2.313  0.00  0.00     0.210 HD
ENDBRANCH   4  16
BRANCH   8  18
ATOM     18  O2  <0> d          -0.011   1.157   2.425  0.00  0.00    -0.371 OA
ATOM     19  H8  <0> d          -0.410   1.436   3.260  0.00  0.00     0.212 HD
ENDBRANCH   8  18
TORSDOF 3
