REMARK  5 active torsions:
REMARK  status: ('A' for Active; 'I' for Inactive)
REMARK    1  A    between atoms: C1_1  and  C2_2 
REMARK    2  A    between atoms: C2_2  and  C7_10 
REMARK    3  A    between atoms: C3_3  and  C4_4 
REMARK    4  A    between atoms: C3_3  and  N1_6 
REMARK       I    between atoms: N1_6  and  C5_7 
REMARK    5  A    between atoms: C5_7  and  C6_9 
ROOT
ATOM      1  C2  <0> d           3.384   2.059   0.188  0.00  0.00    -0.054 C 
ATOM      2  C3  <0> d           2.352   1.217   0.092  0.00  0.00     0.114 C 
ENDROOT
BRANCH   2   3
ATOM      3  C4  <0> d           2.586  -0.238   0.078  0.00  0.00     0.227 C 
ATOM      4  O1  <0> d           2.520  -0.874   1.111  0.00  0.00    -0.643 OA
ATOM      5  O3  <0> d           2.875  -0.864  -1.080  0.00  0.00    -0.643 OA
ENDBRANCH   2   3
BRANCH   2   6
ATOM      6  N1  <0> d           1.046   1.717   0.004  0.00  0.00    -0.322 N 
ATOM      7  C5  <0> d          -0.002   0.869   0.006  0.00  0.00     0.218 C 
ATOM      8  O2  <0> d           0.187  -0.329  -0.013  0.00  0.00    -0.274 OA
ATOM      9  H4  <0> d           0.896   2.673  -0.059  0.00  0.00     0.169 HD
BRANCH   7  10
ATOM     10  C6  <0> d          -1.409   1.409   0.026  0.00  0.00    -0.003 C 
ATOM     11  H5  <0> d          -1.739   1.525   1.058  0.00  0.00     0.040 H 
ATOM     12  H6  <0> d          -1.433   2.378  -0.474  0.00  0.00     0.040 H 
ATOM     13  H7  <0> d          -2.071   0.716  -0.492  0.00  0.00     0.040 H 
ENDBRANCH   7  10
ENDBRANCH   2   6
BRANCH   1  14
ATOM     14  C1  <0> d           3.157   3.545   0.081  0.00  0.00    -0.053 C 
ATOM     15  H1  <0> d           2.965   3.955   1.072  0.00  0.00     0.033 H 
ATOM     16  H2  <0> d           4.043   4.018  -0.343  0.00  0.00     0.033 H 
ATOM     17  H3  <0> d           2.299   3.736  -0.564  0.00  0.00     0.033 H 
ENDBRANCH   1  14
BRANCH   1  18
ATOM     18  C7  <0> d           4.776   1.523   0.404  0.00  0.00    -0.053 C 
ATOM     19  H8  <0> d           4.756   0.434   0.366  0.00  0.00     0.033 H 
ATOM     20  H9  <0> d           5.436   1.901  -0.377  0.00  0.00     0.033 H 
ATOM     21  H10 <0> d           5.143   1.846   1.378  0.00  0.00     0.033 H 
ENDBRANCH   1  18
TORSDOF 5
