REMARK  5 active torsions:
REMARK  status: ('A' for Active; 'I' for Inactive)
REMARK    1  A    between atoms: C1_1  and  C2_2 
REMARK    2  A    between atoms: C2_2  and  C3_4 
REMARK    3  A    between atoms: C2_2  and  C5_7 
REMARK    4  A    between atoms: C3_4  and  O1_5 
REMARK    5  A    between atoms: O1_5  and  C4_6 
ROOT
ATOM      1  C2  <0> d           0.002  -0.004   0.002  0.00  0.00     0.047 C 
ATOM      2  H1  <0> d           0.512  -0.356  -0.895  0.00  0.00     0.059 H 
ENDROOT
BRANCH   1   3
ATOM      3  C1  <0> d          -0.019   1.526   0.010  0.00  0.00    -0.062 C 
ATOM      4  H2  <0> d           1.004   1.903   0.003  0.00  0.00     0.028 H 
ATOM      5  H3  <0> d          -0.546   1.887  -0.873  0.00  0.00     0.028 H 
ATOM      6  H4  <0> d          -0.529   1.877   0.907  0.00  0.00     0.028 H 
ENDBRANCH   1   3
BRANCH   1   7
ATOM      7  C3  <0> d          -1.433  -0.534   0.013  0.00  0.00     0.031 C 
ATOM      8  H5  <0> d          -1.419  -1.620   0.097  0.00  0.00     0.075 H 
ATOM      9  H6  <0> d          -1.970  -0.111   0.862  0.00  0.00     0.075 H 
BRANCH   7  10
ATOM     10  O1  <0> d          -2.089  -0.158  -1.200  0.00  0.00    -0.395 OA
BRANCH  10  11
ATOM     11  C4  <0> d          -3.443  -0.606  -1.292  0.00  0.00     0.004 C 
ATOM     12  H7  <0> d          -3.470  -1.694  -1.235  0.00  0.00     0.066 H 
ATOM     13  H8  <0> d          -4.021  -0.184  -0.469  0.00  0.00     0.066 H 
ATOM     14  H9  <0> d          -3.870  -0.280  -2.240  0.00  0.00     0.066 H 
ENDBRANCH  10  11
ENDBRANCH   7  10
ENDBRANCH   1   7
BRANCH   1  15
ATOM     15  C5  <0> d           0.731  -0.503   1.223  0.00  0.00     0.178 C 
ATOM     16  O2  <0> d           0.156  -1.216   2.027  0.00  0.00    -0.648 OA
ATOM     17  O3  <0> d           1.896  -0.194   1.406  0.00  0.00    -0.648 OA
ENDBRANCH   1  15
TORSDOF 5
