REMARK  5 active torsions:
REMARK  status: ('A' for Active; 'I' for Inactive)
REMARK    1  A    between atoms: C1_1  and  C2_2 
REMARK    2  A    between atoms: C2_2  and  O1_3 
REMARK    3  A    between atoms: O1_3  and  C3_4 
REMARK    4  A    between atoms: C3_4  and  C4_6 
REMARK    5  A    between atoms: C4_6  and  N1_7 
ROOT
ATOM      1  C4  <0> d          -0.013   1.086   0.008  0.00  0.00     0.079 C 
ATOM      2  H6  <0> d           0.002  -0.004   0.002  0.00  0.00     0.080 H 
ATOM      3  H7  <0> d           1.010   1.463   0.000  0.00  0.00     0.080 H 
ENDROOT
BRANCH   1   4
ATOM      4  C3  <0> d          -0.742   1.585  -1.213  0.00  0.00     0.277 C 
ATOM      5  O2  <0> d          -1.732   2.266  -1.089  0.00  0.00    -0.263 OA
BRANCH   4   6
ATOM      6  O1  <0> d          -0.290   1.274  -2.438  0.00  0.00    -0.321 OA
BRANCH   6   7
ATOM      7  C2  <0> d          -1.042   1.789  -3.568  0.00  0.00     0.025 C 
ATOM      8  H4  <0> d          -2.064   1.411  -3.528  0.00  0.00     0.074 H 
ATOM      9  H5  <0> d          -1.056   2.878  -3.529  0.00  0.00     0.074 H 
BRANCH   7  10
ATOM     10  C1  <0> d          -0.382   1.333  -4.871  0.00  0.00    -0.056 C 
ATOM     11  H1  <0> d           0.640   1.711  -4.912  0.00  0.00     0.030 H 
ATOM     12  H2  <0> d          -0.368   0.244  -4.910  0.00  0.00     0.030 H 
ATOM     13  H3  <0> d          -0.946   1.720  -5.719  0.00  0.00     0.030 H 
ENDBRANCH   7  10
ENDBRANCH   6   7
ENDBRANCH   4   6
ENDBRANCH   1   4
BRANCH   1  14
ATOM     14  N1  <0> d          -0.698   1.558   1.213  0.00  0.00    -0.357 N 
ATOM     15  C8  <0> d          -1.698   0.901   1.868  0.00  0.00    -0.020 A 
ATOM     16  C7  <0> d          -2.071   1.649   2.926  0.00  0.00    -0.067 A 
ATOM     17  H11 <0> d          -2.118  -0.053   1.587  0.00  0.00     0.111 H 
ATOM     18  C6  <0> d          -1.274   2.810   2.925  0.00  0.00    -0.067 A 
ATOM     19  H10 <0> d          -2.841   1.403   3.643  0.00  0.00     0.085 H 
ATOM     20  C5  <0> d          -0.439   2.725   1.869  0.00  0.00    -0.020 A 
ATOM     21  H9  <0> d          -1.319   3.618   3.640  0.00  0.00     0.085 H 
ATOM     22  H8  <0> d           0.305   3.456   1.590  0.00  0.00     0.111 H 
ENDBRANCH   1  14
TORSDOF 5
