REMARK  5 active torsions:
REMARK  status: ('A' for Active; 'I' for Inactive)
REMARK    1  A    between atoms: C1_1  and  C2_2 
REMARK    2  A    between atoms: C2_2  and  O1_3 
REMARK    3  A    between atoms: O1_3  and  C3_4 
REMARK    4  A    between atoms: C3_4  and  C4_6 
REMARK    5  A    between atoms: C7_11  and  C8_12 
ROOT
ATOM      1  C4  <0> d           1.452  -2.346  -2.522  0.00  0.00     0.062 A 
ATOM      2  C5  <0> d           2.069  -1.586  -3.615  0.00  0.00    -0.050 A 
ATOM      3  C6  <0> d           2.562  -2.494  -4.475  0.00  0.00    -0.022 A 
ATOM      4  N1  <0> d           2.300  -3.746  -4.002  0.00  0.00    -0.369 N 
ATOM      5  H1  <0> d           2.556  -4.570  -4.445  0.00  0.00     0.165 HD
ATOM      6  C7  <0> d           1.640  -3.676  -2.830  0.00  0.00     0.021 A 
ATOM      7  H7  <0> d           2.117  -0.511  -3.710  0.00  0.00     0.087 H 
ATOM      8  H8  <0> d           3.083  -2.268  -5.394  0.00  0.00     0.111 H 
ENDROOT
BRANCH   1   9
ATOM      9  C3  <0> d           0.776  -1.799  -1.335  0.00  0.00     0.295 C 
ATOM     10  O2  <0> d           0.312  -2.550  -0.500  0.00  0.00    -0.259 OA
BRANCH   9  11
ATOM     11  O1  <0> d           0.671  -0.465  -1.174  0.00  0.00    -0.318 OA
BRANCH  11  12
ATOM     12  C2  <0> d           0.002  -0.004   0.002  0.00  0.00     0.026 C 
ATOM     13  H5  <0> d           0.529  -0.365   0.885  0.00  0.00     0.074 H 
ATOM     14  H6  <0> d          -1.020  -0.381   0.010  0.00  0.00     0.074 H 
BRANCH  12  15
ATOM     15  C1  <0> d          -0.019   1.526   0.010  0.00  0.00    -0.056 C 
ATOM     16  H2  <0> d           1.004   1.903   0.003  0.00  0.00     0.030 H 
ATOM     17  H3  <0> d          -0.546   1.887  -0.873  0.00  0.00     0.030 H 
ATOM     18  H4  <0> d          -0.529   1.877   0.907  0.00  0.00     0.030 H 
ENDBRANCH  12  15
ENDBRANCH  11  12
ENDBRANCH   9  11
ENDBRANCH   1   9
BRANCH   6  19
ATOM     19  C8  <0> d           1.183  -4.849  -2.002  0.00  0.00    -0.036 C 
ATOM     20  H9  <0> d           0.179  -5.141  -2.308  0.00  0.00     0.035 H 
ATOM     21  H10 <0> d           1.866  -5.686  -2.149  0.00  0.00     0.035 H 
ATOM     22  H11 <0> d           1.175  -4.568  -0.949  0.00  0.00     0.035 H 
ENDBRANCH   6  19
TORSDOF 5
