REMARK  2 active torsions:
REMARK  status: ('A' for Active; 'I' for Inactive)
REMARK    1  A    between atoms: N1_4  and  C5_6 
REMARK    2  A    between atoms: C9_10  and  N2_12 
ROOT
ATOM      1  C5  <0> d           1.744  -1.744  -0.024  0.00  0.00     0.040 A 
ATOM      2  C6  <0> d           3.104  -2.028  -0.034  0.00  0.00    -0.057 A 
ATOM      3  C7  <0> d           3.538  -3.340  -0.045  0.00  0.00    -0.079 A 
ATOM      4  C8  <0> d           2.621  -4.373  -0.047  0.00  0.00    -0.058 A 
ATOM      5  C9  <0> d           1.260  -4.096  -0.038  0.00  0.00     0.027 A 
ATOM      6  C10 <0> d           0.821  -2.779  -0.021  0.00  0.00    -0.032 A 
ATOM      7  H5  <0> d           3.823  -1.222  -0.032  0.00  0.00     0.086 H 
ATOM      8  H6  <0> d           4.595  -3.557  -0.053  0.00  0.00     0.083 H 
ATOM      9  H7  <0> d           2.963  -5.398  -0.057  0.00  0.00     0.086 H 
ATOM     10  H8  <0> d          -0.237  -2.561  -0.010  0.00  0.00     0.090 H 
ENDROOT
BRANCH   1  11
ATOM     11  N1  <0> d           1.305  -0.413  -0.013  0.00  0.00    -0.333 N 
ATOM     12  C3  <0> d           2.109   0.691  -0.014  0.00  0.00    -0.015 A 
ATOM     13  C2  <0> d           1.322   1.786  -0.001  0.00  0.00    -0.066 A 
ATOM     14  H3  <0> d           3.189   0.687  -0.025  0.00  0.00     0.112 H 
ATOM     15  C1  <0> d          -0.016   1.344   0.009  0.00  0.00    -0.066 A 
ATOM     16  H2  <0> d           1.656   2.813   0.001  0.00  0.00     0.085 H 
ATOM     17  C4  <0> d           0.002  -0.004   0.002  0.00  0.00    -0.015 A 
ATOM     18  H1  <0> d          -0.895   1.971   0.025  0.00  0.00     0.085 H 
ATOM     19  H4  <0> d          -0.864  -0.649   0.007  0.00  0.00     0.112 H 
ENDBRANCH   1  11
BRANCH   5  20
ATOM     20  N2  <0> d           0.333  -5.142  -0.040  0.00  0.00    -0.399 N 
ATOM     21  H9  <0> d           0.640  -6.062  -0.048  0.00  0.00     0.156 HD
ATOM     22  H10 <0> d          -0.617  -4.948  -0.033  0.00  0.00     0.156 HD
ENDBRANCH   5  20
TORSDOF 2
