REMARK  0 active torsions:
REMARK  status: ('A' for Active; 'I' for Inactive)
ROOT
ATOM      1  C1  <0> d          -2.054   5.064  -0.643  0.00  0.00    -0.080 A 
ATOM      2  C2  <0> d          -2.041   5.056   0.739  0.00  0.00    -0.080 A 
ATOM      3  C3  <0> d          -1.621   3.931   1.425  0.00  0.00    -0.048 A 
ATOM      4  C4  <0> d          -1.212   2.809   0.726  0.00  0.00     0.105 A 
ATOM      5  C5  <0> d          -1.225   2.816  -0.669  0.00  0.00     0.105 A 
ATOM      6  C6  <0> d          -1.647   3.946  -1.348  0.00  0.00    -0.048 A 
ATOM      7  O1  <0> d          -0.780   1.599  -1.107  0.00  0.00    -0.323 OA
ATOM      8  C7  <0> d          -0.013   1.086   0.008  0.00  0.00     0.115 C 
ATOM      9  O2  <0> d          -0.758   1.587   1.143  0.00  0.00    -0.323 OA
ATOM     10  H1  <0> d          -2.383   5.945  -1.174  0.00  0.00     0.083 H 
ATOM     11  H2  <0> d          -2.360   5.931   1.286  0.00  0.00     0.083 H 
ATOM     12  H3  <0> d          -1.613   3.928   2.504  0.00  0.00     0.087 H 
ATOM     13  H4  <0> d          -1.658   3.954  -2.428  0.00  0.00     0.087 H 
ATOM     14  H5  <0> d           0.002  -0.004   0.002  0.00  0.00     0.118 H 
ATOM     15  H6  <0> d           1.001   1.487   0.001  0.00  0.00     0.118 H 
ENDROOT
TORSDOF 0
