REMARK  2 active torsions:
REMARK  status: ('A' for Active; 'I' for Inactive)
REMARK    1  A    between atoms: C2_3  and  C4_7 
REMARK    2  A    between atoms: C3_4  and  N3_6 
REMARK       I    between atoms: C4_7  and  N4_9 
ROOT
ATOM      1  C1  <0> d          -0.016   1.360   0.009  0.00  0.00     0.066 A 
ATOM      2  N1  <0> d           1.202   1.810   0.000  0.00  0.00    -0.235 NA
ATOM      3  C2  <0> d           2.068   0.760  -0.014  0.00  0.00     0.168 A 
ATOM      4  C3  <0> d           1.307  -0.400  -0.013  0.00  0.00     0.134 A 
ATOM      5  N2  <0> d           0.002  -0.004   0.002  0.00  0.00    -0.335 N 
ATOM      6  H1  <0> d          -0.907   1.971   0.025  0.00  0.00     0.143 H 
ATOM      7  H6  <0> d          -0.773  -0.587   0.006  0.00  0.00     0.168 HD
ENDROOT
BRANCH   3   8
ATOM      8  C4  <0> d           3.530   0.840  -0.028  0.00  0.00     0.271 C 
ATOM      9  O1  <0> d           4.196  -0.179  -0.040  0.00  0.00    -0.266 OA
ATOM     10  N4  <0> d           4.140   2.042  -0.027  0.00  0.00    -0.365 N 
ATOM     11  H4  <0> d           3.610   2.855  -0.017  0.00  0.00     0.159 HD
ATOM     12  H5  <0> d           5.108   2.095  -0.036  0.00  0.00     0.159 HD
ENDBRANCH   3   8
BRANCH   4  13
ATOM     13  N3  <0> d           1.778  -1.697  -0.025  0.00  0.00    -0.383 N 
ATOM     14  H2  <0> d           2.733  -1.867  -0.035  0.00  0.00     0.157 HD
ATOM     15  H3  <0> d           1.153  -2.440  -0.023  0.00  0.00     0.157 HD
ENDBRANCH   4  13
TORSDOF 2
