REMARK  3 active torsions:
REMARK  status: ('A' for Active; 'I' for Inactive)
REMARK    1  A    between atoms: C2_2  and  C3_3 
REMARK    2  A    between atoms: C3_3  and  N1_4 
REMARK    3  A    between atoms: N1_4  and  C4_5 
ROOT
ATOM      1  N1  <0> d          -0.698   1.558   1.213  0.00  0.00    -0.351 N 
ATOM      2  H6  <0> d          -1.495   2.106   1.135  0.00  0.00     0.163 HD
ENDROOT
BRANCH   1   3
ATOM      3  C3  <0> d          -0.013   1.086   0.008  0.00  0.00     0.010 C 
ATOM      4  H4  <0> d           0.002  -0.004   0.002  0.00  0.00     0.070 H 
ATOM      5  H5  <0> d           1.010   1.463   0.000  0.00  0.00     0.070 H 
BRANCH   3   6
ATOM      6  C2  <0> d          -0.742   1.585  -1.213  0.00  0.00    -0.095 C 
ATOM      7  C1  <0> d          -0.098   2.269  -2.126  0.00  0.00    -0.123 C 
ATOM      8  H1  <0> d           0.955   2.475  -2.004  0.00  0.00     0.066 H 
ATOM      9  H2  <0> d          -0.620   2.627  -3.001  0.00  0.00     0.066 H 
ATOM     10  H3  <0> d          -1.795   1.379  -1.335  0.00  0.00     0.078 H 
ENDBRANCH   3   6
ENDBRANCH   1   3
BRANCH   1  11
ATOM     11  C4  <0> d          -0.210   1.224   2.462  0.00  0.00     0.246 A 
ATOM     12  O1  <0> d          -0.744   1.593   3.636  0.00  0.00    -0.289 OA
ATOM     13  C6  <0> d           0.020   1.069   4.619  0.00  0.00     0.039 A 
ATOM     14  C5  <0> d           1.013   0.386   4.031  0.00  0.00     0.028 A 
ATOM     15  H8  <0> d          -0.139   1.179   5.682  0.00  0.00     0.126 H 
ATOM     16  N2  <0> d           0.850   0.490   2.697  0.00  0.00    -0.219 NA
ATOM     17  H7  <0> d           1.800  -0.154   4.535  0.00  0.00     0.117 H 
ENDBRANCH   1  11
TORSDOF 3
