REMARK  3 active torsions:
REMARK  status: ('A' for Active; 'I' for Inactive)
REMARK    1  A    between atoms: C1_1  and  C2_2 
REMARK    2  A    between atoms: C2_2  and  C3_4 
REMARK    3  A    between atoms: C3_4  and  C9_11 
ROOT
ATOM      1  C3  <0> d          -1.293  -0.775   0.010  0.00  0.00     0.077 C 
ATOM      2  C4  <0> d          -0.996  -2.279   0.023  0.00  0.00    -0.045 C 
ATOM      3  C5  <0> d          -2.306  -3.054   0.174  0.00  0.00    -0.063 C 
ATOM      4  C6  <0> d          -2.949  -2.729   1.524  0.00  0.00    -0.059 C 
ATOM      5  C7  <0> d          -3.319  -1.243   1.567  0.00  0.00    -0.009 C 
ATOM      6  C8  <0> d          -2.082  -0.430   1.254  0.00  0.00     0.142 C 
ATOM      7  O2  <0> d          -1.733   0.471   1.978  0.00  0.00    -0.297 OA
ATOM      8  H4  <0> d          -0.512  -2.562  -0.911  0.00  0.00     0.035 H 
ATOM      9  H5  <0> d          -0.338  -2.512   0.860  0.00  0.00     0.035 H 
ATOM     10  H6  <0> d          -2.988  -2.772  -0.629  0.00  0.00     0.033 H 
ATOM     11  H7  <0> d          -2.103  -4.123   0.117  0.00  0.00     0.033 H 
ATOM     12  H8  <0> d          -3.848  -3.331   1.652  0.00  0.00     0.033 H 
ATOM     13  H9  <0> d          -2.244  -2.952   2.325  0.00  0.00     0.033 H 
ATOM     14  H10 <0> d          -4.090  -1.036   0.825  0.00  0.00     0.044 H 
ATOM     15  H11 <0> d          -3.684  -0.985   2.561  0.00  0.00     0.044 H 
ENDROOT
BRANCH   1  16
ATOM     16  C2  <0> d           0.002  -0.004   0.002  0.00  0.00     0.138 C 
ATOM     17  O1  <0> d           1.056  -0.594  -0.011  0.00  0.00    -0.297 OA
BRANCH  16  18
ATOM     18  C1  <0> d          -0.018   1.503   0.010  0.00  0.00    -0.020 C 
ATOM     19  H1  <0> d           1.004   1.880   0.003  0.00  0.00     0.037 H 
ATOM     20  H2  <0> d          -0.545   1.864  -0.873  0.00  0.00     0.037 H 
ATOM     21  H3  <0> d          -0.529   1.854   0.907  0.00  0.00     0.037 H 
ENDBRANCH  16  18
ENDBRANCH   1  16
BRANCH   1  22
ATOM     22  C9  <0> d          -2.111  -0.420  -1.233  0.00  0.00    -0.056 C 
ATOM     23  H12 <0> d          -1.542  -0.676  -2.127  0.00  0.00     0.029 H 
ATOM     24  H13 <0> d          -3.046  -0.979  -1.224  0.00  0.00     0.029 H 
ATOM     25  H14 <0> d          -2.326   0.649  -1.233  0.00  0.00     0.029 H 
ENDBRANCH   1  22
TORSDOF 3
