REMARK  4 active torsions:
REMARK  status: ('A' for Active; 'I' for Inactive)
REMARK    1  A    between atoms: C1_1  and  C2_2 
REMARK    2  A    between atoms: C4_4  and  N1_10 
REMARK    3  A    between atoms: C5_5  and  C8_9 
REMARK    4  A    between atoms: C7_7  and  O1_8 
ROOT
ATOM      1  C2  <0> d           0.002  -0.004   0.002  0.00  0.00    -0.027 A 
ATOM      2  C3  <0> d           1.207  -0.679  -0.014  0.00  0.00    -0.049 A 
ATOM      3  C4  <0> d           2.400   0.032  -0.021  0.00  0.00     0.032 A 
ATOM      4  C5  <0> d           2.380   1.420  -0.013  0.00  0.00    -0.033 A 
ATOM      5  C6  <0> d           1.175   2.093   0.002  0.00  0.00    -0.043 A 
ATOM      6  C7  <0> d          -0.017   1.383   0.010  0.00  0.00     0.072 A 
ATOM      7  H4  <0> d           1.222  -1.759  -0.019  0.00  0.00     0.087 H 
ATOM      8  H5  <0> d           1.159   3.173   0.008  0.00  0.00     0.088 H 
ENDROOT
BRANCH   1   9
ATOM      9  C1  <0> d          -1.293  -0.775   0.010  0.00  0.00    -0.049 C 
ATOM     10  H1  <0> d          -1.615  -0.955  -1.015  0.00  0.00     0.033 H 
ATOM     11  H2  <0> d          -1.145  -1.728   0.517  0.00  0.00     0.033 H 
ATOM     12  H3  <0> d          -2.055  -0.199   0.534  0.00  0.00     0.033 H 
ENDBRANCH   1   9
BRANCH   6  13
ATOM     13  O1  <0> d          -1.204   2.046   0.019  0.00  0.00    -0.360 OA
ATOM     14  H6  <0> d          -1.543   2.233   0.905  0.00  0.00     0.217 HD
ENDBRANCH   6  13
BRANCH   3  15
ATOM     15  N1  <0> d           3.622  -0.651  -0.036  0.00  0.00    -0.399 N 
ATOM     16  H10 <0> d           3.635  -1.621  -0.042  0.00  0.00     0.156 HD
ATOM     17  H11 <0> d           4.455  -0.154  -0.042  0.00  0.00     0.156 HD
ENDBRANCH   3  15
BRANCH   4  18
ATOM     18  C8  <0> d           3.674   2.193  -0.022  0.00  0.00    -0.049 C 
ATOM     19  H7  <0> d           3.976   2.385  -1.051  0.00  0.00     0.033 H 
ATOM     20  H8  <0> d           3.535   3.140   0.499  0.00  0.00     0.033 H 
ATOM     21  H9  <0> d           4.448   1.612   0.481  0.00  0.00     0.033 H 
ENDBRANCH   4  18
TORSDOF 4
