REMARK  2 active torsions:
REMARK  status: ('A' for Active; 'I' for Inactive)
REMARK    1  A    between atoms: C1_1  and  C2_2 
REMARK    2  A    between atoms: C4_4  and  C5_8 
ROOT
ATOM      1  C2  <0> d          -0.718   1.572   1.248  0.00  0.00     0.053 A 
ATOM      2  C3  <0> d          -0.112   1.844   2.474  0.00  0.00    -0.028 A 
ATOM      3  C4  <0> d          -1.097   2.264   3.343  0.00  0.00     0.086 A 
ATOM      4  N1  <0> d          -2.275   2.245   2.654  0.00  0.00    -0.275 N 
ATOM      5  H1  <0> d          -3.173   2.495   3.015  0.00  0.00     0.189 HD
ATOM      6  N2  <0> d          -2.000   1.813   1.351  0.00  0.00    -0.179 NA
ATOM      7  H5  <0> d           0.939   1.745   2.701  0.00  0.00     0.090 H 
ENDROOT
BRANCH   3   8
ATOM      8  C5  <0> d          -0.912   2.658   4.750  0.00  0.00     0.103 A 
ATOM      9  O1  <0> d           0.256   2.667   5.423  0.00  0.00    -0.320 OA
ATOM     10  C8  <0> d           0.043   3.087   6.681  0.00  0.00     0.019 A 
ATOM     11  C7  <0> d          -1.271   3.344   6.835  0.00  0.00    -0.059 A 
ATOM     12  H8  <0> d           0.799   3.195   7.445  0.00  0.00     0.123 H 
ATOM     13  C6  <0> d          -1.893   3.072   5.600  0.00  0.00    -0.046 A 
ATOM     14  H7  <0> d          -1.756   3.693   7.734  0.00  0.00     0.086 H 
ATOM     15  H6  <0> d          -2.943   3.172   5.372  0.00  0.00     0.087 H 
ENDBRANCH   3   8
BRANCH   1  16
ATOM     16  C1  <0> d          -0.013   1.086   0.008  0.00  0.00    -0.034 C 
ATOM     17  H2  <0> d           0.002  -0.004   0.002  0.00  0.00     0.035 H 
ATOM     18  H3  <0> d           1.010   1.463   0.000  0.00  0.00     0.035 H 
ATOM     19  H4  <0> d          -0.540   1.447  -0.875  0.00  0.00     0.035 H 
ENDBRANCH   1  16
TORSDOF 2
