REMARK  3 active torsions:
REMARK  status: ('A' for Active; 'I' for Inactive)
REMARK    1  A    between atoms: C1_1  and  O1_2 
REMARK    2  A    between atoms: O1_2  and  C2_3 
REMARK    3  A    between atoms: C2_3  and  C3_4 
ROOT
ATOM      1  C2  <0> d          -1.295  -0.603   0.011  0.00  0.00     0.099 C 
ATOM      2  H4  <0> d          -1.832  -0.294   0.908  0.00  0.00     0.091 H 
ATOM      3  H5  <0> d          -1.849  -0.284  -0.872  0.00  0.00     0.091 H 
ENDROOT
BRANCH   1   4
ATOM      4  O1  <0> d           0.002  -0.004   0.002  0.00  0.00    -0.386 OA
BRANCH   4   5
ATOM      5  C1  <0> d          -0.017   1.425   0.010  0.00  0.00     0.005 C 
ATOM      6  H1  <0> d           1.005   1.802   0.002  0.00  0.00     0.066 H 
ATOM      7  H2  <0> d          -0.544   1.786  -0.873  0.00  0.00     0.066 H 
ATOM      8  H3  <0> d          -0.527   1.776   0.907  0.00  0.00     0.066 H 
ENDBRANCH   4   5
ENDBRANCH   1   4
BRANCH   1   9
ATOM      9  C3  <0> d          -1.156  -2.103   0.002  0.00  0.00     0.197 C 
ATOM     10  O2  <0> d          -0.048  -2.613  -0.011  0.00  0.00    -0.646 OA
ATOM     11  O3  <0> d          -2.151  -2.808   0.007  0.00  0.00    -0.646 OA
ENDBRANCH   1   9
TORSDOF 3
