REMARK  2 active torsions:
REMARK  status: ('A' for Active; 'I' for Inactive)
REMARK    1  A    between atoms: C3_3  and  C5_7 
REMARK    2  A    between atoms: C5_7  and  O1_8 
ROOT
ATOM      1  C1  <0> d           0.307   5.120   0.026  0.00  0.00    -0.066 A 
ATOM      2  C2  <0> d          -0.014   3.748   0.016  0.00  0.00    -0.058 A 
ATOM      3  C3  <0> d           1.147   3.062   0.008  0.00  0.00     0.032 A 
ATOM      4  N1  <0> d           2.173   3.960   0.003  0.00  0.00    -0.367 N 
ATOM      5  H1  <0> d           3.214   3.606  -0.009  0.00  0.00     0.165 HD
ATOM      6  C4  <0> d           1.652   5.220   0.014  0.00  0.00    -0.023 A 
ATOM      7  H2  <0> d          -0.395   5.941   0.036  0.00  0.00     0.085 H 
ATOM      8  H3  <0> d          -1.007   3.324   0.018  0.00  0.00     0.086 H 
ATOM      9  H4  <0> d           2.218   6.140   0.013  0.00  0.00     0.111 H 
ENDROOT
BRANCH   3  10
ATOM     10  C5  <0> d           1.286   1.562  -0.002  0.00  0.00     0.054 C 
ATOM     11  H5  <0> d           1.828   1.250  -0.907  0.00  0.00     0.083 H 
ATOM     12  H6  <0> d           1.845   1.240   0.889  0.00  0.00     0.083 H 
BRANCH  10  13
ATOM     13  O1  <0> d          -0.011   0.963   0.007  0.00  0.00    -0.395 OA
ATOM     14  H7  <0> d          -0.111  -0.133   0.002  0.00  0.00     0.209 HD
ENDBRANCH  10  13
ENDBRANCH   3  10
TORSDOF 2
