REMARK  4 active torsions:
REMARK  status: ('A' for Active; 'I' for Inactive)
REMARK    1  A    between atoms: C1_1  and  C2_2 
REMARK    2  A    between atoms: C2_2  and  C3_3 
REMARK    3  A    between atoms: C3_3  and  C4_5 
REMARK    4  A    between atoms: C3_3  and  C5_6 
ROOT
ATOM      1  C3  <0> d          -1.433  -0.534   0.013  0.00  0.00     0.027 C 
ATOM      2  H1  <0> d          -1.970  -0.111   0.862  0.00  0.00     0.056 H 
ENDROOT
BRANCH   1   3
ATOM      3  C2  <0> d           0.002  -0.004   0.002  0.00  0.00    -0.056 C 
ATOM      4  H5  <0> d           0.512  -0.356  -0.895  0.00  0.00     0.033 H 
ATOM      5  H6  <0> d           0.529  -0.365   0.885  0.00  0.00     0.033 H 
BRANCH   3   6
ATOM      6  C1  <0> d          -0.019   1.526   0.010  0.00  0.00    -0.076 C 
ATOM      7  H2  <0> d           1.004   1.903   0.003  0.00  0.00     0.027 H 
ATOM      8  H3  <0> d          -0.546   1.887  -0.873  0.00  0.00     0.027 H 
ATOM      9  H4  <0> d          -0.529   1.877   0.907  0.00  0.00     0.027 H 
ENDBRANCH   3   6
ENDBRANCH   1   3
BRANCH   1  10
ATOM     10  C4  <0> d          -2.135  -0.131  -1.286  0.00  0.00    -0.064 C 
ATOM     11  H7  <0> d          -1.598  -0.554  -2.135  0.00  0.00     0.028 H 
ATOM     12  H8  <0> d          -3.158  -0.508  -1.278  0.00  0.00     0.028 H 
ATOM     13  H9  <0> d          -2.150   0.956  -1.369  0.00  0.00     0.028 H 
ENDBRANCH   1  10
BRANCH   1  14
ATOM     14  C5  <0> d          -1.414  -2.036   0.129  0.00  0.00     0.176 C 
ATOM     15  O1  <0> d          -2.228  -2.604   0.836  0.00  0.00    -0.648 OA
ATOM     16  O2  <0> d          -0.583  -2.684  -0.485  0.00  0.00    -0.648 OA
ENDBRANCH   1  14
TORSDOF 4
