REMARK  1 active torsions:
REMARK  status: ('A' for Active; 'I' for Inactive)
REMARK    1  A    between atoms: C5_6  and  C6_7 
ROOT
ATOM      1  C1  <0> d          -0.017   1.395   0.010  0.00  0.00    -0.049 A 
ATOM      2  C2  <0> d           1.182   2.082   0.002  0.00  0.00     0.005 A 
ATOM      3  N1  <0> d           2.332   1.437  -0.013  0.00  0.00    -0.249 NA
ATOM      4  C3  <0> d           2.396   0.120  -0.021  0.00  0.00     0.126 A 
ATOM      5  C4  <0> d           1.244  -0.647  -0.014  0.00  0.00    -0.027 A 
ATOM      6  C5  <0> d           0.002  -0.004   0.002  0.00  0.00     0.045 A 
ATOM      7 Cl1  <0> d           3.945  -0.662  -0.040  0.00  0.00    -0.062 Cl
ATOM      8  H1  <0> d          -0.955   1.930   0.026  0.00  0.00     0.087 H 
ATOM      9  H2  <0> d           1.177   3.162   0.008  0.00  0.00     0.114 H 
ATOM     10  H3  <0> d           1.304  -1.725  -0.021  0.00  0.00     0.090 H 
ENDROOT
BRANCH   6  11
ATOM     11  C6  <0> d          -1.256  -0.781   0.010  0.00  0.00     0.209 C 
ATOM     12  O1  <0> d          -2.333  -0.202   0.024  0.00  0.00    -0.644 OA
ATOM     13  O2  <0> d          -1.220  -2.003   0.003  0.00  0.00    -0.644 OA
ENDBRANCH   6  11
TORSDOF 1
