REMARK  3 active torsions:
REMARK  status: ('A' for Active; 'I' for Inactive)
REMARK    1  A    between atoms: C1_1  and  C2_2 
REMARK    2  A    between atoms: C5_5  and  C7_8 
REMARK    3  A    between atoms: C7_8  and  C8_9 
ROOT
ATOM      1  C2  <0> d          -4.504  -0.849  -0.064  0.00  0.00     0.030 A 
ATOM      2  C3  <0> d          -4.024  -0.439   1.166  0.00  0.00    -0.059 A 
ATOM      3  C4  <0> d          -2.983   0.475   1.215  0.00  0.00    -0.073 A 
ATOM      4  C5  <0> d          -2.462   0.945   0.019  0.00  0.00    -0.031 A 
ATOM      5  C6  <0> d          -2.997   0.494  -1.173  0.00  0.00     0.009 A 
ATOM      6  N1  <0> d          -3.983  -0.381  -1.181  0.00  0.00    -0.265 NA
ATOM      7  H4  <0> d          -4.455  -0.826   2.078  0.00  0.00     0.086 H 
ATOM      8  H5  <0> d          -2.588   0.814   2.161  0.00  0.00     0.084 H 
ATOM      9  H6  <0> d          -2.599   0.859  -2.108  0.00  0.00     0.115 H 
ENDROOT
BRANCH   4  10
ATOM     10  C7  <0> d          -1.329   1.940   0.019  0.00  0.00     0.041 C 
ATOM     11  H7  <0> d          -1.401   2.576  -0.875  0.00  0.00     0.056 H 
ATOM     12  H8  <0> d          -1.392   2.566   0.921  0.00  0.00     0.056 H 
BRANCH  10  13
ATOM     13  C8  <0> d          -0.014   1.204   0.009  0.00  0.00     0.176 C 
ATOM     14  O1  <0> d           0.002  -0.004   0.002  0.00  0.00    -0.648 OA
ATOM     15  O2  <0> d           1.139   1.891   0.001  0.00  0.00    -0.648 OA
ENDBRANCH  10  13
ENDBRANCH   4  10
BRANCH   1  16
ATOM     16  C1  <0> d          -5.635  -1.843  -0.128  0.00  0.00    -0.035 C 
ATOM     17  H1  <0> d          -5.939  -2.120   0.892  0.00  0.00     0.035 H 
ATOM     18  H2  <0> d          -5.303  -2.742  -0.668  0.00  0.00     0.035 H 
ATOM     19  H3  <0> d          -6.489  -1.393  -0.655  0.00  0.00     0.035 H 
ENDBRANCH   1  16
TORSDOF 3
