REMARK  3 active torsions:
REMARK  status: ('A' for Active; 'I' for Inactive)
REMARK    1  A    between atoms: C1_1  and  C2_2 
REMARK    2  A    between atoms: C3_3  and  C6_9 
REMARK    3  A    between atoms: N1_4  and  C5_8 
ROOT
ATOM      1  C2  <0> d           0.002  -0.004   0.002  0.00  0.00     0.051 A 
ATOM      2  C3  <0> d          -1.089  -0.817   0.003  0.00  0.00     0.145 A 
ATOM      3  N1  <0> d          -0.659  -2.108  -0.007  0.00  0.00    -0.246 N 
ATOM      4  O1  <0> d           0.758  -2.097  -0.014  0.00  0.00    -0.192 OA
ATOM      5  C4  <0> d           1.156  -0.817  -0.014  0.00  0.00     0.313 A 
ATOM      6  O2  <0> d           2.311  -0.424  -0.023  0.00  0.00    -0.258 OA
ENDROOT
BRANCH   1   7
ATOM      7  C1  <0> d          -0.018   1.503   0.010  0.00  0.00    -0.043 C 
ATOM      8  H1  <0> d           1.004   1.880   0.003  0.00  0.00     0.033 H 
ATOM      9  H2  <0> d          -0.545   1.864  -0.873  0.00  0.00     0.033 H 
ATOM     10  H3  <0> d          -0.529   1.854   0.907  0.00  0.00     0.033 H 
ENDBRANCH   1   7
BRANCH   2  11
ATOM     11  C6  <0> d          -2.503  -0.373   0.012  0.00  0.00     0.229 C 
ATOM     12  O3  <0> d          -2.769   0.820   0.021  0.00  0.00    -0.643 OA
ATOM     13  O4  <0> d          -3.403  -1.200   0.012  0.00  0.00    -0.643 OA
ENDBRANCH   2  11
BRANCH   3  14
ATOM     14  C5  <0> d          -1.510  -3.300  -0.009  0.00  0.00     0.007 C 
ATOM     15  H4  <0> d          -1.727  -3.590  -1.037  0.00  0.00     0.060 H 
ATOM     16  H5  <0> d          -0.995  -4.116   0.497  0.00  0.00     0.060 H 
ATOM     17  H6  <0> d          -2.443  -3.081   0.511  0.00  0.00     0.060 H 
ENDBRANCH   3  14
TORSDOF 3
