REMARK  2 active torsions:
REMARK  status: ('A' for Active; 'I' for Inactive)
REMARK    1  A    between atoms: C1_1  and  C2_2 
REMARK    2  A    between atoms: C4_4  and  N1_9 
ROOT
ATOM      1  C2  <0> d           1.159   3.438   0.009  0.00  0.00    -0.057 A 
ATOM      2  C3  <0> d          -0.044   4.117   0.025  0.00  0.00    -0.052 A 
ATOM      3  C4  <0> d          -1.240   3.410   0.032  0.00  0.00     0.029 A 
ATOM      4  C5  <0> d          -1.223   2.022   0.019  0.00  0.00    -0.021 A 
ATOM      5  C6  <0> d          -0.016   1.347   0.009  0.00  0.00     0.119 A 
ATOM      6  C7  <0> d           1.174   2.055   0.002  0.00  0.00    -0.040 A 
ATOM      7  F1  <0> d           0.002  -0.004   0.002  0.00  0.00    -0.206 F 
ATOM      8  H4  <0> d          -0.054   5.197   0.031  0.00  0.00     0.087 H 
ATOM      9  H5  <0> d          -2.152   1.470   0.020  0.00  0.00     0.091 H 
ATOM     10  H6  <0> d           2.116   1.527  -0.010  0.00  0.00     0.089 H 
ENDROOT
BRANCH   1  11
ATOM     11  C1  <0> d           2.456   4.205   0.001  0.00  0.00    -0.051 C 
ATOM     12  H1  <0> d           2.758   4.395  -1.029  0.00  0.00     0.033 H 
ATOM     13  H2  <0> d           2.321   5.153   0.521  0.00  0.00     0.033 H 
ATOM     14  H3  <0> d           3.227   3.621   0.504  0.00  0.00     0.033 H 
ENDBRANCH   1  11
BRANCH   3  15
ATOM     15  N1  <0> d          -2.457   4.095   0.048  0.00  0.00    -0.399 N 
ATOM     16  H7  <0> d          -2.468   5.065   0.054  0.00  0.00     0.156 HD
ATOM     17  H8  <0> d          -3.292   3.601   0.053  0.00  0.00     0.156 HD
ENDBRANCH   3  15
TORSDOF 2
