REMARK  2 active torsions:
REMARK  status: ('A' for Active; 'I' for Inactive)
REMARK    1  A    between atoms: C3_4  and  O3_11 
REMARK    2  A    between atoms: C5_8  and  C6_9 
ROOT
ATOM      1  C1  <0> d           2.437   0.084  -0.021  0.00  0.00     0.001 A 
ATOM      2  C2  <0> d           1.245  -0.682  -0.013  0.00  0.00     0.208 A 
ATOM      3  O1  <0> d           1.289  -1.903  -0.020  0.00  0.00    -0.285 OA
ATOM      4  C3  <0> d           0.002  -0.004   0.002  0.00  0.00     0.131 A 
ATOM      5  C4  <0> d          -0.016   1.355   0.009  0.00  0.00     0.013 A 
ATOM      6  N1  <0> d           1.137   2.063   0.002  0.00  0.00    -0.358 N 
ATOM      7  H1  <0> d           1.098   3.063   0.008  0.00  0.00     0.165 HD
ATOM      8  C5  <0> d           2.353   1.443  -0.013  0.00  0.00     0.113 A 
ATOM      9  H2  <0> d           3.400  -0.405  -0.032  0.00  0.00     0.093 H 
ATOM     10  H3  <0> d          -0.963   1.875   0.017  0.00  0.00     0.115 H 
ENDROOT
BRANCH   8  11
ATOM     11  C6  <0> d           3.590   2.255  -0.020  0.00  0.00     0.227 C 
ATOM     12  O2  <0> d           4.675   1.708  -0.034  0.00  0.00    -0.643 OA
ATOM     13  O4  <0> d           3.514   3.600  -0.012  0.00  0.00    -0.643 OA
ENDBRANCH   8  11
BRANCH   4  14
ATOM     14  O3  <0> d          -1.163  -0.706   0.009  0.00  0.00    -0.356 OA
ATOM     15  H4  <0> d          -1.508  -0.905  -0.872  0.00  0.00     0.218 HD
ENDBRANCH   4  14
TORSDOF 2
