REMARK  8 active torsions:
REMARK  status: ('A' for Active; 'I' for Inactive)
REMARK    1  A    between atoms: C1_1  and  C2_2 
REMARK    2  A    between atoms: C2_2  and  C3_3 
REMARK    3  A    between atoms: C3_3  and  C4_4 
REMARK    4  A    between atoms: C4_4  and  C5_5 
REMARK    5  A    between atoms: C4_4  and  C6_6 
REMARK    6  A    between atoms: C4_4  and  O1_9 
REMARK    7  A    between atoms: C6_6  and  C7_7 
REMARK    8  A    between atoms: C7_7  and  C8_8 
ROOT
ATOM      1  C4  <0> d          -0.017   1.425   0.010  0.00  0.00     0.054 C 
ENDROOT
BRANCH   1   2
ATOM      2  C3  <0> d          -0.757   1.932  -1.230  0.00  0.00    -0.037 C 
ATOM      3  H6  <0> d          -1.780   1.554  -1.222  0.00  0.00     0.037 H 
ATOM      4  H7  <0> d          -0.772   3.022  -1.224  0.00  0.00     0.037 H 
BRANCH   2   5
ATOM      5  C2  <0> d          -0.041   1.438  -2.489  0.00  0.00    -0.066 C 
ATOM      6  H4  <0> d           0.981   1.815  -2.496  0.00  0.00     0.032 H 
ATOM      7  H5  <0> d          -0.026   0.348  -2.494  0.00  0.00     0.032 H 
BRANCH   5   8
ATOM      8  C1  <0> d          -0.781   1.945  -3.728  0.00  0.00    -0.076 C 
ATOM      9  H1  <0> d          -1.804   1.568  -3.720  0.00  0.00     0.027 H 
ATOM     10  H2  <0> d          -0.796   3.035  -3.722  0.00  0.00     0.027 H 
ATOM     11  H3  <0> d          -0.271   1.593  -4.625  0.00  0.00     0.027 H 
ENDBRANCH   5   8
ENDBRANCH   2   5
ENDBRANCH   1   2
BRANCH   1  12
ATOM     12  C5  <0> d           1.418   1.954  -0.001  0.00  0.00    -0.048 C 
ATOM     13  H8  <0> d           1.928   1.603  -0.898  0.00  0.00     0.031 H 
ATOM     14  H9  <0> d           1.403   3.044   0.005  0.00  0.00     0.031 H 
ATOM     15  H10 <0> d           1.945   1.593   0.882  0.00  0.00     0.031 H 
ENDBRANCH   1  12
BRANCH   1  16
ATOM     16  C6  <0> d          -0.733   1.918   1.269  0.00  0.00    -0.037 C 
ATOM     17  H11 <0> d          -0.827   3.004   1.232  0.00  0.00     0.037 H 
ATOM     18  H12 <0> d          -1.726   1.470   1.322  0.00  0.00     0.037 H 
BRANCH  16  19
ATOM     19  C7  <0> d           0.074   1.518   2.505  0.00  0.00    -0.066 C 
ATOM     20  H13 <0> d           0.167   0.432   2.542  0.00  0.00     0.032 H 
ATOM     21  H14 <0> d           1.066   1.966   2.452  0.00  0.00     0.032 H 
BRANCH  19  22
ATOM     22  C8  <0> d          -0.642   2.011   3.764  0.00  0.00    -0.076 C 
ATOM     23  H15 <0> d          -0.736   3.096   3.727  0.00  0.00     0.027 H 
ATOM     24  H16 <0> d          -1.634   1.563   3.817  0.00  0.00     0.027 H 
ATOM     25  H17 <0> d          -0.067   1.726   4.644  0.00  0.00     0.027 H 
ENDBRANCH  19  22
ENDBRANCH  16  19
ENDBRANCH   1  16
BRANCH   1  26
ATOM     26  O1  <0> d           0.002  -0.004   0.002  0.00  0.00    -0.390 OA
ATOM     27  H18 <0> d          -0.876  -0.409   0.008  0.00  0.00     0.210 HD
ENDBRANCH   1  26
TORSDOF 8
