REMARK  5 active torsions:
REMARK  status: ('A' for Active; 'I' for Inactive)
REMARK    1  A    between atoms: C1_1  and  C2_2 
REMARK    2  A    between atoms: C2_2  and  C3_3 
REMARK    3  A    between atoms: C3_3  and  C4_4 
REMARK    4  A    between atoms: C4_4  and  O1_5 
REMARK    5  A    between atoms: O1_5  and  C5_6 
ROOT
ATOM      1  C4  <0> d           0.002  -0.004   0.002  0.00  0.00     0.023 C 
ATOM      2  H9  <0> d           0.512  -0.356  -0.895  0.00  0.00     0.074 H 
ATOM      3  H10 <0> d           0.529  -0.365   0.885  0.00  0.00     0.074 H 
ENDROOT
BRANCH   1   4
ATOM      4  C3  <0> d          -0.019   1.526   0.010  0.00  0.00    -0.045 C 
ATOM      5  H7  <0> d          -0.546   1.887  -0.873  0.00  0.00     0.036 H 
ATOM      6  H8  <0> d          -0.529   1.877   0.907  0.00  0.00     0.036 H 
BRANCH   4   7
ATOM      7  C2  <0> d           1.417   2.055  -0.000  0.00  0.00    -0.067 C 
ATOM      8  H5  <0> d           1.944   1.694   0.883  0.00  0.00     0.032 H 
ATOM      9  H6  <0> d           1.927   1.704  -0.897  0.00  0.00     0.032 H 
BRANCH   7  10
ATOM     10  C1  <0> d           1.396   3.585   0.008  0.00  0.00    -0.076 C 
ATOM     11  H2  <0> d           0.869   3.946  -0.875  0.00  0.00     0.027 H 
ATOM     12  H3  <0> d           0.886   3.937   0.905  0.00  0.00     0.027 H 
ATOM     13  H4  <0> d           2.419   3.962   0.000  0.00  0.00     0.027 H 
ENDBRANCH   7  10
ENDBRANCH   4   7
ENDBRANCH   1   4
BRANCH   1  14
ATOM     14  O1  <0> d          -1.339  -0.499   0.012  0.00  0.00    -0.361 OA
BRANCH  14  15
ATOM     15  C5  <0> d          -1.432  -1.925   0.005  0.00  0.00     0.131 C 
ATOM     16  H1  <0> d          -0.847  -2.338   0.827  0.00  0.00     0.129 H 
ATOM     17  O2  <0> d          -0.953  -2.440  -1.248  0.00  0.00    -0.361 OA
ATOM     18  C8  <0> d          -1.744  -3.608  -1.554  0.00  0.00     0.023 C 
ATOM     19  C7  <0> d          -3.176  -3.197  -1.126  0.00  0.00    -0.041 C 
ATOM     20  H15 <0> d          -1.401  -4.466  -0.974  0.00  0.00     0.074 H 
ATOM     21  H16 <0> d          -1.710  -3.829  -2.620  0.00  0.00     0.074 H 
ATOM     22  C6  <0> d          -2.906  -2.354   0.143  0.00  0.00    -0.017 C 
ATOM     23  H13 <0> d          -3.778  -4.075  -0.889  0.00  0.00     0.036 H 
ATOM     24  H14 <0> d          -3.655  -2.596  -1.898  0.00  0.00     0.036 H 
ATOM     25  H11 <0> d          -3.045  -2.958   1.040  0.00  0.00     0.040 H 
ATOM     26  H12 <0> d          -3.557  -1.480   0.167  0.00  0.00     0.040 H 
ENDBRANCH  14  15
ENDBRANCH   1  14
TORSDOF 5
