REMARK  6 active torsions:
REMARK  status: ('A' for Active; 'I' for Inactive)
REMARK    1  A    between atoms: C1_1  and  C2_2 
REMARK    2  A    between atoms: C1_1  and  N1_4 
REMARK    3  A    between atoms: C2_2  and  O1_3 
REMARK    4  A    between atoms: N1_4  and  C3_5 
REMARK       I    between atoms: N1_4  and  C5_8 
REMARK    5  A    between atoms: C3_5  and  C4_6 
REMARK    6  A    between atoms: C4_6  and  O2_7 
REMARK       I    between atoms: C5_8  and  N2_10 
ROOT
ATOM      1  N1  <0> d           0.614   3.469   1.197  0.00  0.00    -0.330 N 
ATOM      2  C5  <0> d           1.563   3.932   2.034  0.00  0.00     0.316 C 
ATOM      3  O3  <0> d           1.245   4.451   3.086  0.00  0.00    -0.247 OA
ATOM      4  N2  <0> d           2.865   3.820   1.704  0.00  0.00    -0.352 N 
ATOM      5  H11 <0> d           3.119   3.406   0.864  0.00  0.00     0.160 HD
ATOM      6  H12 <0> d           3.548   4.153   2.306  0.00  0.00     0.160 HD
ENDROOT
BRANCH   1   7
ATOM      7  C1  <0> d           0.997   2.843  -0.071  0.00  0.00     0.019 C 
ATOM      8  H1  <0> d           0.276   2.066  -0.325  0.00  0.00     0.067 H 
ATOM      9  H2  <0> d           1.989   2.401   0.026  0.00  0.00     0.067 H 
BRANCH   7  10
ATOM     10  C2  <0> d           1.017   3.901  -1.176  0.00  0.00     0.032 C 
ATOM     11  H3  <0> d           0.049   4.401  -1.218  0.00  0.00     0.076 H 
ATOM     12  H4  <0> d           1.220   3.422  -2.134  0.00  0.00     0.076 H 
BRANCH  10  13
ATOM     13  O1  <0> d           2.037   4.862  -0.898  0.00  0.00    -0.399 OA
ATOM     14  H5  <0> d           2.107   5.564  -1.559  0.00  0.00     0.209 HD
ENDBRANCH  10  13
ENDBRANCH   7  10
ENDBRANCH   1   7
BRANCH   1  15
ATOM     15  C3  <0> d          -0.802   3.590   1.555  0.00  0.00     0.019 C 
ATOM     16  H6  <0> d          -0.930   4.417   2.254  0.00  0.00     0.067 H 
ATOM     17  H7  <0> d          -1.389   3.779   0.657  0.00  0.00     0.067 H 
BRANCH  15  18
ATOM     18  C4  <0> d          -1.275   2.292   2.211  0.00  0.00     0.032 C 
ATOM     19  H8  <0> d          -2.349   2.346   2.390  0.00  0.00     0.076 H 
ATOM     20  H9  <0> d          -1.059   1.452   1.550  0.00  0.00     0.076 H 
BRANCH  18  21
ATOM     21  O2  <0> d          -0.593   2.108   3.453  0.00  0.00    -0.399 OA
ATOM     22  H10 <0> d          -0.845   1.303   3.925  0.00  0.00     0.209 HD
ENDBRANCH  18  21
ENDBRANCH  15  18
ENDBRANCH   1  15
TORSDOF 6
