REMARK  2 active torsions:
REMARK  status: ('A' for Active; 'I' for Inactive)
REMARK    1  A    between atoms: C1_1  and  N5_7 
REMARK    2  A    between atoms: C2_4  and  N4_6 
ROOT
ATOM      1  C1  <0> d          -0.699  -2.057  -0.001  0.00  0.00     0.730 A 
ATOM      2  N1  <0> d           0.650  -2.088  -0.014  0.00  0.00    -0.091 N 
ATOM      3  N2  <0> d           1.079  -0.751  -0.012  0.00  0.00     0.034 NA
ATOM      4  C2  <0> d           0.002  -0.004   0.002  0.00  0.00     0.753 A 
ATOM      5  N3  <0> d          -1.076  -0.796   0.013  0.00  0.00     0.130 NA
ATOM      6  H5  <0> d           1.178  -3.053  -0.024  0.00  0.00     0.208 HD
ENDROOT
BRANCH   1   7
ATOM      7  N5  <0> d          -1.537  -3.156   0.001  0.00  0.00    -0.231 N 
ATOM      8  H3  <0> d          -1.114  -4.171  -0.012  0.00  0.00     0.174 HD
ATOM      9  H4  <0> d          -2.628  -3.016   0.017  0.00  0.00     0.174 HD
ENDBRANCH   1   7
BRANCH   4  10
ATOM     10  N4  <0> d          -0.017   1.391   0.010  0.00  0.00    -0.229 N 
ATOM     11  H1  <0> d          -0.977   1.928   0.021  0.00  0.00     0.174 HD
ATOM     12  H2  <0> d           0.928   1.954   0.004  0.00  0.00     0.174 HD
ENDBRANCH   4  10
TORSDOF 2
