REMARK  4 active torsions:
REMARK  status: ('A' for Active; 'I' for Inactive)
REMARK    1  A    between atoms: C1_1  and  C2_2 
REMARK    2  A    between atoms: C2_2  and  C3_3 
REMARK    3  A    between atoms: C3_3  and  C4_4 
REMARK    4  A    between atoms: C3_3  and  C5_5 
ROOT
ATOM      1  C3  <0> d          -1.433  -0.534   0.013  0.00  0.00     0.010 C 
ATOM      2 Br1  <0> d          -2.335  -0.017  -1.656  0.00  0.00    -0.086 Br
ENDROOT
BRANCH   1   3
ATOM      3  C2  <0> d           0.002  -0.004   0.002  0.00  0.00    -0.053 C 
ATOM      4  H4  <0> d           0.512  -0.356  -0.895  0.00  0.00     0.034 H 
ATOM      5  H5  <0> d           0.529  -0.365   0.885  0.00  0.00     0.034 H 
BRANCH   3   6
ATOM      6  C1  <0> d          -0.019   1.526   0.010  0.00  0.00    -0.075 C 
ATOM      7  H1  <0> d           1.004   1.903   0.003  0.00  0.00     0.027 H 
ATOM      8  H2  <0> d          -0.546   1.887  -0.873  0.00  0.00     0.027 H 
ATOM      9  H3  <0> d          -0.529   1.877   0.907  0.00  0.00     0.027 H 
ENDBRANCH   3   6
ENDBRANCH   1   3
BRANCH   1  10
ATOM     10  C4  <0> d          -1.413  -2.059   0.130  0.00  0.00    -0.060 C 
ATOM     11  H6  <0> d          -0.913  -2.346   1.055  0.00  0.00     0.029 H 
ATOM     12  H7  <0> d          -2.436  -2.436   0.138  0.00  0.00     0.029 H 
ATOM     13  H8  <0> d          -0.876  -2.482  -0.719  0.00  0.00     0.029 H 
ENDBRANCH   1  10
BRANCH   1  14
ATOM     14  C5  <0> d          -2.187   0.060   1.205  0.00  0.00    -0.060 C 
ATOM     15  H9  <0> d          -2.201   1.146   1.121  0.00  0.00     0.029 H 
ATOM     16  H10 <0> d          -3.209  -0.318   1.213  0.00  0.00     0.029 H 
ATOM     17  H11 <0> d          -1.687  -0.227   2.130  0.00  0.00     0.029 H 
ENDBRANCH   1  14
TORSDOF 4
