REMARK  4 active torsions:
REMARK  status: ('A' for Active; 'I' for Inactive)
REMARK    1  A    between atoms: C1_1  and  C2_2 
REMARK    2  A    between atoms: C3_4  and  O2_14 
REMARK    3  A    between atoms: C7_9  and  C9_13 
REMARK    4  A    between atoms: C8_10  and  O1_12 
ROOT
ATOM      1  C2  <0> d           0.657   3.729   1.393  0.00  0.00    -0.004 C 
ATOM      2  H1  <0> d           1.032   3.039   2.148  0.00  0.00     0.047 H 
ATOM      3  C3  <0> d          -0.858   3.794   1.484  0.00  0.00     0.041 C 
ATOM      4  H2  <0> d          -1.230   4.414   0.669  0.00  0.00     0.083 H 
ATOM      5  C4  <0> d          -1.531   2.435   1.408  0.00  0.00    -0.038 C 
ATOM      6  C5  <0> d          -1.336   1.811   0.018  0.00  0.00    -0.047 C 
ATOM      7  C6  <0> d          -0.013   1.076   0.008  0.00  0.00    -0.099 C 
ATOM      8  C7  <0> d           1.102   1.735   0.001  0.00  0.00    -0.059 C 
ATOM      9  C8  <0> d           1.096   3.249   0.008  0.00  0.00     0.062 C 
ATOM     10  H3  <0> d           2.098   3.620  -0.207  0.00  0.00     0.090 H 
ATOM     11  H7  <0> d          -1.100   1.778   2.163  0.00  0.00     0.037 H 
ATOM     12  H8  <0> d          -2.597   2.552   1.602  0.00  0.00     0.037 H 
ATOM     13  H9  <0> d          -1.325   2.595  -0.739  0.00  0.00     0.038 H 
ATOM     14  H10 <0> d          -2.145   1.110  -0.189  0.00  0.00     0.038 H 
ATOM     15  H11 <0> d           0.002  -0.004   0.002  0.00  0.00     0.077 H 
ENDROOT
BRANCH   1  16
ATOM     16  C1  <0> d           1.237   5.121   1.651  0.00  0.00    -0.068 C 
ATOM     17  H4  <0> d           0.873   5.813   0.892  0.00  0.00     0.028 H 
ATOM     18  H5  <0> d           0.926   5.467   2.637  0.00  0.00     0.028 H 
ATOM     19  H6  <0> d           2.325   5.074   1.609  0.00  0.00     0.028 H 
ENDBRANCH   1  16
BRANCH   9  20
ATOM     20  O1  <0> d           0.184   3.729  -0.982  0.00  0.00    -0.391 OA
ATOM     21  H12 <0> d           0.398   3.450  -1.882  0.00  0.00     0.210 HD
ENDBRANCH   9  20
BRANCH   3  22
ATOM     22  O2  <0> d          -1.215   4.412   2.723  0.00  0.00    -0.395 OA
ATOM     23  H16 <0> d          -2.168   4.493   2.861  0.00  0.00     0.210 HD
ENDBRANCH   3  22
BRANCH   8  24
ATOM     24  C9  <0> d           2.413   0.991  -0.015  0.00  0.00    -0.052 C 
ATOM     25  H13 <0> d           2.221  -0.082  -0.019  0.00  0.00     0.033 H 
ATOM     26  H14 <0> d           2.974   1.263  -0.909  0.00  0.00     0.033 H 
ATOM     27  H15 <0> d           2.991   1.254   0.871  0.00  0.00     0.033 H 
ENDBRANCH   8  24
TORSDOF 4
