REMARK  7 active torsions:
REMARK  status: ('A' for Active; 'I' for Inactive)
REMARK    1  A    between atoms: C1_1  and  C2_2 
REMARK    2  A    between atoms: C2_2  and  C3_3 
REMARK    3  A    between atoms: C2_2  and  C5_5 
REMARK    4  A    between atoms: C2_2  and  O1_9 
REMARK    5  A    between atoms: C5_5  and  C6_6 
REMARK    6  A    between atoms: C5_5  and  C7_7 
REMARK    7  A    between atoms: C5_5  and  C8_8 
ROOT
ATOM      1  C3  <0> d           0.714  -0.492   1.195  0.00  0.00    -0.079 C 
ATOM      2  C4  <0> d           1.282  -0.881   2.146  0.00  0.00    -0.151 C 
ATOM      3  H4  <0> d           1.790  -1.228   2.996  0.00  0.00     0.166 H 
ENDROOT
BRANCH   1   4
ATOM      4  C2  <0> d           0.002  -0.004   0.002  0.00  0.00     0.123 C 
BRANCH   4   5
ATOM      5  C1  <0> d          -0.019   1.526   0.010  0.00  0.00    -0.037 C 
ATOM      6  H1  <0> d           1.004   1.903   0.003  0.00  0.00     0.033 H 
ATOM      7  H2  <0> d          -0.546   1.887  -0.873  0.00  0.00     0.033 H 
ATOM      8  H3  <0> d          -0.529   1.877   0.907  0.00  0.00     0.033 H 
ENDBRANCH   4   5
BRANCH   4   9
ATOM      9  C5  <0> d           0.718  -0.497  -1.257  0.00  0.00    -0.009 C 
BRANCH   9  10
ATOM     10  C6  <0> d           2.154   0.032  -1.268  0.00  0.00    -0.066 C 
ATOM     11  H5  <0> d           2.681  -0.329  -0.385  0.00  0.00     0.028 H 
ATOM     12  H6  <0> d           2.664  -0.319  -2.164  0.00  0.00     0.028 H 
ATOM     13  H7  <0> d           2.139   1.122  -1.262  0.00  0.00     0.028 H 
ENDBRANCH   9  10
BRANCH   9  14
ATOM     14  C7  <0> d           0.739  -2.027  -1.265  0.00  0.00    -0.066 C 
ATOM     15  H8  <0> d          -0.284  -2.405  -1.258  0.00  0.00     0.028 H 
ATOM     16  H9  <0> d           1.249  -2.379  -2.162  0.00  0.00     0.028 H 
ATOM     17  H10 <0> d           1.266  -2.388  -0.382  0.00  0.00     0.028 H 
ENDBRANCH   9  14
BRANCH   9  18
ATOM     18  C8  <0> d          -0.022   0.009  -2.496  0.00  0.00    -0.066 C 
ATOM     19  H11 <0> d          -0.037   1.099  -2.490  0.00  0.00     0.028 H 
ATOM     20  H12 <0> d           0.488  -0.342  -3.393  0.00  0.00     0.028 H 
ATOM     21  H13 <0> d          -1.044  -0.368  -2.489  0.00  0.00     0.028 H 
ENDBRANCH   9  18
ENDBRANCH   4   9
BRANCH   4  22
ATOM     22  O1  <0> d          -1.339  -0.499   0.012  0.00  0.00    -0.377 OA
ATOM     23  H14 <0> d          -1.402  -1.464   0.008  0.00  0.00     0.211 HD
ENDBRANCH   4  22
ENDBRANCH   1   4
TORSDOF 7
