REMARK  3 active torsions:
REMARK  status: ('A' for Active; 'I' for Inactive)
REMARK    1  A    between atoms: C1_1  and  C2_2 
REMARK    2  A    between atoms: C5_5  and  C11_12 
REMARK    3  A    between atoms: N1_10  and  C10_11 
ROOT
ATOM      1  C2  <0> d          -2.568   1.670  -0.286  0.00  0.00    -0.049 A 
ATOM      2  C3  <0> d          -3.444   2.719  -0.306  0.00  0.00    -0.076 A 
ATOM      3  C4  <0> d          -2.979   4.024  -0.393  0.00  0.00    -0.074 A 
ATOM      4  C5  <0> d          -1.628   4.286  -0.460  0.00  0.00    -0.034 A 
ATOM      5  C6  <0> d          -0.719   3.234  -0.441  0.00  0.00     0.050 A 
ATOM      6  C7  <0> d          -1.195   1.912  -0.359  0.00  0.00    -0.002 A 
ATOM      7  C8  <0> d          -0.008   1.054  -0.356  0.00  0.00    -0.055 A 
ATOM      8  C9  <0> d           1.061   1.862  -0.441  0.00  0.00    -0.020 A 
ATOM      9  N1  <0> d           0.655   3.168  -0.493  0.00  0.00    -0.360 N 
ATOM     10  H4  <0> d          -4.506   2.531  -0.254  0.00  0.00     0.084 H 
ATOM     11  H5  <0> d          -3.684   4.842  -0.408  0.00  0.00     0.084 H 
ATOM     12  H6  <0> d           0.005  -0.025  -0.300  0.00  0.00     0.087 H 
ATOM     13  H7  <0> d           2.088   1.530  -0.465  0.00  0.00     0.111 H 
ENDROOT
BRANCH   1  14
ATOM     14  C1  <0> d          -3.082   0.257  -0.192  0.00  0.00    -0.050 C 
ATOM     15  H1  <0> d          -3.247  -0.137  -1.195  0.00  0.00     0.033 H 
ATOM     16  H2  <0> d          -2.350  -0.363   0.326  0.00  0.00     0.033 H 
ATOM     17  H3  <0> d          -4.022   0.248   0.361  0.00  0.00     0.033 H 
ENDBRANCH   1  14
BRANCH   4  18
ATOM     18  C11 <0> d          -1.138   5.708  -0.553  0.00  0.00    -0.049 C 
ATOM     19  H11 <0> d          -0.941   5.956  -1.596  0.00  0.00     0.033 H 
ATOM     20  H12 <0> d          -1.898   6.381  -0.157  0.00  0.00     0.033 H 
ATOM     21  H13 <0> d          -0.220   5.814   0.025  0.00  0.00     0.033 H 
ENDBRANCH   4  18
BRANCH   9  22
ATOM     22  C10 <0> d           1.551   4.324  -0.589  0.00  0.00    -0.014 C 
ATOM     23  H8  <0> d           1.632   4.634  -1.631  0.00  0.00     0.057 H 
ATOM     24  H9  <0> d           1.149   5.145   0.004  0.00  0.00     0.057 H 
ATOM     25  H10 <0> d           2.537   4.052  -0.213  0.00  0.00     0.057 H 
ENDBRANCH   9  22
TORSDOF 3
