REMARK  1 active torsions:
REMARK  status: ('A' for Active; 'I' for Inactive)
REMARK    1  A    between atoms: C1_1  and  C4_11 
ROOT
ATOM      1  C1  <0> d          -1.300   1.930   0.019  0.00  0.00     0.220 A 
ATOM      2  C2  <0> d          -2.577   1.190   0.021  0.00  0.00     0.286 A 
ATOM      3  O1  <0> d          -2.599  -0.026   0.015  0.00  0.00    -0.265 OA
ATOM      4  N1  <0> d          -3.722   1.912   0.030  0.00  0.00    -0.272 N 
ATOM      5  H1  <0> d          -4.695   1.399   0.032  0.00  0.00     0.174 HD
ATOM      6  C3  <0> d          -3.638   3.257   0.037  0.00  0.00     0.343 A 
ATOM      7  O2  <0> d          -4.658   3.918   0.046  0.00  0.00    -0.245 OA
ATOM      8  N2  <0> d          -2.450   3.881   0.035  0.00  0.00    -0.228 N 
ATOM      9  H2  <0> d          -2.405   4.980   0.036  0.00  0.00     0.194 HD
ATOM     10  N3  <0> d          -1.333   3.245   0.032  0.00  0.00    -0.158 NA
ENDROOT
BRANCH   1  11
ATOM     11  C4  <0> d          -0.014   1.211   0.009  0.00  0.00     0.236 C 
ATOM     12  O3  <0> d           0.002  -0.004   0.002  0.00  0.00    -0.643 OA
ATOM     13  O4  <0> d           1.143   1.901   0.001  0.00  0.00    -0.643 OA
ENDBRANCH   1  11
TORSDOF 1
