REMARK  4 active torsions:
REMARK  status: ('A' for Active; 'I' for Inactive)
REMARK    1  A    between atoms: C1_1  and  O1_2 
REMARK    2  A    between atoms: O1_2  and  C2_3 
REMARK    3  A    between atoms: C2_3  and  C3_5 
REMARK    4  A    between atoms: C6_9  and  N3_11 
ROOT
ATOM      1  C3  <0> d           0.658  -2.079  -1.122  0.00  0.00     0.151 A 
ATOM      2  C4  <0> d           1.282  -2.698  -2.203  0.00  0.00     0.036 A 
ATOM      3  N1  <0> d           1.334  -4.017  -2.270  0.00  0.00    -0.267 NA
ATOM      4  C5  <0> d           0.797  -4.752  -1.315  0.00  0.00     0.045 A 
ATOM      5  C6  <0> d           0.170  -4.138  -0.228  0.00  0.00     0.139 A 
ATOM      6  N2  <0> d           0.120  -2.818  -0.154  0.00  0.00    -0.223 NA
ATOM      7  H4  <0> d           1.723  -2.100  -2.986  0.00  0.00     0.118 H 
ATOM      8  H5  <0> d           0.841  -5.829  -1.374  0.00  0.00     0.120 H 
ENDROOT
BRANCH   1   9
ATOM      9  C2  <0> d           0.600  -0.602  -1.046  0.00  0.00     0.313 C 
ATOM     10  O2  <0> d           1.092   0.071  -1.929  0.00  0.00    -0.257 OA
BRANCH   9  11
ATOM     11  O1  <0> d           0.002  -0.004   0.002  0.00  0.00    -0.321 OA
BRANCH  11  12
ATOM     12  C1  <0> d          -0.017   1.425   0.010  0.00  0.00     0.013 C 
ATOM     13  H1  <0> d           1.005   1.802   0.002  0.00  0.00     0.067 H 
ATOM     14  H2  <0> d          -0.544   1.786  -0.873  0.00  0.00     0.067 H 
ATOM     15  H3  <0> d          -0.527   1.776   0.907  0.00  0.00     0.067 H 
ENDBRANCH  11  12
ENDBRANCH   9  11
ENDBRANCH   1   9
BRANCH   5  16
ATOM     16  N3  <0> d          -0.397  -4.913   0.777  0.00  0.00    -0.383 N 
ATOM     17  H6  <0> d          -0.356  -5.881   0.723  0.00  0.00     0.157 HD
ATOM     18  H7  <0> d          -0.832  -4.487   1.531  0.00  0.00     0.157 HD
ENDBRANCH   5  16
TORSDOF 4
