REMARK  0 active torsions:
REMARK  status: ('A' for Active; 'I' for Inactive)
ROOT
ATOM      1  C1  <0> d          -0.017   1.392   0.010  0.00  0.00    -0.062 A 
ATOM      2  C2  <0> d           1.170   2.093   0.002  0.00  0.00    -0.075 A 
ATOM      3  C3  <0> d           2.382   1.420  -0.013  0.00  0.00    -0.052 A 
ATOM      4  C4  <0> d           2.408   0.036  -0.021  0.00  0.00    -0.050 A 
ATOM      5  C5  <0> d           1.224  -0.677  -0.014  0.00  0.00    -0.056 A 
ATOM      6  C6  <0> d           0.002  -0.004   0.002  0.00  0.00     0.045 A 
ATOM      7  C7  <0> d          -1.226  -0.741   0.010  0.00  0.00     0.099 C 
ATOM      8  N1  <0> d          -2.200  -1.326   0.016  0.00  0.00    -0.191 NA
ATOM      9  C8  <0> d           3.842  -0.448  -0.038  0.00  0.00    -0.040 C 
ATOM     10  C9  <0> d           4.676   0.773  -0.480  0.00  0.00    -0.058 C 
ATOM     11  C10 <0> d           3.798   1.957  -0.024  0.00  0.00    -0.040 C 
ATOM     12  H1  <0> d          -0.958   1.921   0.026  0.00  0.00     0.085 H 
ATOM     13  H2  <0> d           1.156   3.172   0.008  0.00  0.00     0.084 H 
ATOM     14  H3  <0> d           1.245  -1.757  -0.020  0.00  0.00     0.086 H 
ATOM     15  H4  <0> d           4.144  -0.771   0.959  0.00  0.00     0.040 H 
ATOM     16  H5  <0> d           3.958  -1.264  -0.751  0.00  0.00     0.040 H 
ATOM     17  H6  <0> d           5.641   0.787   0.028  0.00  0.00     0.033 H 
ATOM     18  H7  <0> d           4.806   0.781  -1.562  0.00  0.00     0.033 H 
ATOM     19  H8  <0> d           3.883   2.784  -0.728  0.00  0.00     0.040 H 
ATOM     20  H9  <0> d           4.088   2.279   0.976  0.00  0.00     0.040 H 
ENDROOT
TORSDOF 0
