REMARK  2 active torsions:
REMARK  status: ('A' for Active; 'I' for Inactive)
REMARK    1  A    between atoms: C1_1  and  C2_2 
REMARK    2  A    between atoms: C2_2  and  C6_8 
ROOT
ATOM      1  C2  <0> d          -1.136   1.773   0.788  0.00  0.00    -0.030 A 
ATOM      2  C3  <0> d          -0.013   1.086   0.008  0.00  0.00    -0.042 A 
ATOM      3  C4  <0> d          -1.150   1.781  -0.743  0.00  0.00     0.037 A 
ATOM      4  H1  <0> d          -0.922   2.722  -1.243  0.00  0.00     0.064 H 
ATOM      5  C5  <0> d          -2.141   0.927  -1.418  0.00  0.00     0.064 C 
ATOM      6  N1  <0> d          -2.905   0.268  -1.939  0.00  0.00    -0.197 NA
ATOM      7  H5  <0> d           0.002  -0.004   0.002  0.00  0.00     0.036 H 
ATOM      8  H6  <0> d           0.964   1.569   0.001  0.00  0.00     0.036 H 
ENDROOT
BRANCH   1   9
ATOM      9  C1  <0> d          -2.152   0.877   1.500  0.00  0.00    -0.068 C 
ATOM     10  H2  <0> d          -2.026   0.972   2.578  0.00  0.00     0.028 H 
ATOM     11  H3  <0> d          -3.161   1.182   1.223  0.00  0.00     0.028 H 
ATOM     12  H4  <0> d          -1.992  -0.160   1.205  0.00  0.00     0.028 H 
ENDBRANCH   1   9
BRANCH   1  13
ATOM     13  C6  <0> d          -0.801   3.086   1.498  0.00  0.00    -0.068 C 
ATOM     14  H7  <0> d           0.195   3.416   1.202  0.00  0.00     0.028 H 
ATOM     15  H8  <0> d          -1.533   3.845   1.221  0.00  0.00     0.028 H 
ATOM     16  H9  <0> d          -0.828   2.933   2.577  0.00  0.00     0.028 H 
ENDBRANCH   1  13
TORSDOF 2
