REMARK  3 active torsions:
REMARK  status: ('A' for Active; 'I' for Inactive)
REMARK    1  A    between atoms: C2_2  and  C5_7 
REMARK    2  A    between atoms: C6_8  and  C7_9 
REMARK    3  A    between atoms: C7_9  and  O1_10 
ROOT
ATOM      1  C1  <0> d          -0.013   1.076   0.008  0.00  0.00     0.023 A 
ATOM      2  C2  <0> d           1.183   1.803   0.000  0.00  0.00     0.052 A 
ATOM      3  C3  <0> d           1.105   3.200   0.009  0.00  0.00     0.023 A 
ATOM      4  N1  <0> d          -0.086   3.774   0.023  0.00  0.00    -0.253 NA
ATOM      5  C4  <0> d          -1.188   3.050   0.030  0.00  0.00     0.086 A 
ATOM      6  N2  <0> d          -1.160   1.732   0.017  0.00  0.00    -0.253 NA
ATOM      7  H1  <0> d           0.002  -0.004   0.002  0.00  0.00     0.117 H 
ATOM      8  H2  <0> d           2.003   3.800   0.003  0.00  0.00     0.117 H 
ATOM      9  H3  <0> d          -2.143   3.553   0.042  0.00  0.00     0.146 H 
ENDROOT
BRANCH   2  10
ATOM     10  C5  <0> d           2.450   1.136  -0.015  0.00  0.00    -0.062 C 
ATOM     11  C6  <0> d           3.489   0.590  -0.027  0.00  0.00    -0.075 C 
BRANCH  11  12
ATOM     12  C7  <0> d           4.792  -0.096  -0.043  0.00  0.00     0.071 C 
ATOM     13  H4  <0> d           5.591   0.645  -0.047  0.00  0.00     0.093 H 
ATOM     14  H5  <0> d           4.882  -0.724   0.843  0.00  0.00     0.093 H 
BRANCH  12  15
ATOM     15  O1  <0> d           4.888  -0.907  -1.215  0.00  0.00    -0.389 OA
ATOM     16  H6  <0> d           5.723  -1.390  -1.291  0.00  0.00     0.210 HD
ENDBRANCH  12  15
ENDBRANCH  11  12
ENDBRANCH   2  10
TORSDOF 3
