REMARK  2 active torsions:
REMARK  status: ('A' for Active; 'I' for Inactive)
REMARK    1  A    between atoms: C1_1  and  C3_10 
REMARK    2  A    between atoms: C2_3  and  N4_7 
ROOT
ATOM      1  C1  <0> d          -0.016   1.339   0.009  0.00  0.00     0.264 A 
ATOM      2  N1  <0> d           0.002  -0.004   0.002  0.00  0.00    -0.035 NA
ATOM      3  C2  <0> d           1.244  -0.429  -0.012  0.00  0.00     0.716 A 
ATOM      4  N2  <0> d           2.058   0.652  -0.014  0.00  0.00    -0.105 N 
ATOM      5  H1  <0> d           3.028   0.647  -0.023  0.00  0.00     0.208 HD
ATOM      6  N3  <0> d           1.223   1.781  -0.000  0.00  0.00    -0.132 NA
ENDROOT
BRANCH   1   7
ATOM      7  C3  <0> d          -1.229   2.183   0.020  0.00  0.00     0.251 C 
ATOM      8  O1  <0> d          -2.328   1.666   0.023  0.00  0.00    -0.642 OA
ATOM      9  O2  <0> d          -1.116   3.525   0.027  0.00  0.00    -0.642 OA
ENDBRANCH   1   7
BRANCH   3  10
ATOM     10  N4  <0> d           1.649  -1.751  -0.023  0.00  0.00    -0.231 N 
ATOM     11  H2  <0> d           0.988  -2.461  -0.020  0.00  0.00     0.174 HD
ATOM     12  H3  <0> d           2.594  -1.968  -0.033  0.00  0.00     0.174 HD
ENDBRANCH   3  10
TORSDOF 2
