REMARK  1 active torsions:
REMARK  status: ('A' for Active; 'I' for Inactive)
REMARK    1  A    between atoms: C1_1  and  C2_2 
ROOT
ATOM      1  C2  <0> d          -0.834   1.634  -1.183  0.00  0.00     0.045 C 
ATOM      2  H1  <0> d          -0.439   2.595  -1.515  0.00  0.00     0.084 H 
ATOM      3  C3  <0> d          -0.013   1.086   0.008  0.00  0.00    -0.014 C 
ATOM      4  C4  <0> d          -0.795   1.611   1.196  0.00  0.00    -0.022 A 
ATOM      5  C5  <0> d          -0.480   1.733   2.531  0.00  0.00    -0.074 A 
ATOM      6  C6  <0> d          -1.403   2.265   3.414  0.00  0.00    -0.082 A 
ATOM      7  C7  <0> d          -2.640   2.672   2.951  0.00  0.00    -0.080 A 
ATOM      8  C8  <0> d          -2.960   2.548   1.615  0.00  0.00    -0.050 A 
ATOM      9  C9  <0> d          -2.038   2.010   0.720  0.00  0.00     0.075 A 
ATOM     10  O1  <0> d          -2.147   1.791  -0.619  0.00  0.00    -0.345 OA
ATOM     11  H5  <0> d           0.002  -0.004   0.002  0.00  0.00     0.044 H 
ATOM     12  H6  <0> d           1.001   1.487   0.001  0.00  0.00     0.044 H 
ATOM     13  H7  <0> d           0.488   1.414   2.888  0.00  0.00     0.084 H 
ATOM     14  H8  <0> d          -1.157   2.362   4.461  0.00  0.00     0.083 H 
ATOM     15  H9  <0> d          -3.360   3.090   3.639  0.00  0.00     0.083 H 
ATOM     16  H10 <0> d          -3.929   2.869   1.261  0.00  0.00     0.087 H 
ENDROOT
BRANCH   1  17
ATOM     17  C1  <0> d          -0.855   0.628  -2.336  0.00  0.00    -0.051 C 
ATOM     18  H2  <0> d          -1.307  -0.304  -1.996  0.00  0.00     0.030 H 
ATOM     19  H3  <0> d          -1.438   1.035  -3.162  0.00  0.00     0.030 H 
ATOM     20  H4  <0> d           0.165   0.437  -2.670  0.00  0.00     0.030 H 
ENDBRANCH   1  17
TORSDOF 1
