REMARK  1 active torsions:
REMARK  status: ('A' for Active; 'I' for Inactive)
REMARK    1  A    between atoms: C6_6  and  N1_7 
ROOT
ATOM      1  C1  <0> d           2.407   0.034  -0.021  0.00  0.00    -0.052 A 
ATOM      2  C2  <0> d           2.384   1.416  -0.014  0.00  0.00    -0.040 A 
ATOM      3  C3  <0> d           1.175   2.090   0.002  0.00  0.00     0.158 A 
ATOM      4  C4  <0> d          -0.017   1.380   0.010  0.00  0.00     0.195 A 
ATOM      5  C5  <0> d           0.002  -0.004   0.002  0.00  0.00     0.184 A 
ATOM      6  C6  <0> d           1.217  -0.681  -0.013  0.00  0.00     0.068 A 
ATOM      7  F1  <0> d          -1.158  -0.697   0.009  0.00  0.00    -0.200 F 
ATOM      8  F2  <0> d          -1.196   2.040   0.019  0.00  0.00    -0.199 F 
ATOM      9  F3  <0> d           1.156   3.440   0.009  0.00  0.00    -0.203 F 
ATOM     10  H1  <0> d           3.351  -0.491  -0.033  0.00  0.00     0.087 H 
ATOM     11  H2  <0> d           3.310   1.970  -0.020  0.00  0.00     0.088 H 
ENDROOT
BRANCH   6  12
ATOM     12  N1  <0> d           1.239  -2.080  -0.021  0.00  0.00    -0.397 N 
ATOM     13  H3  <0> d           0.407  -2.579  -0.015  0.00  0.00     0.156 HD
ATOM     14  H4  <0> d           2.087  -2.552  -0.031  0.00  0.00     0.156 HD
ENDBRANCH   6  12
TORSDOF 1
