REMARK  4 active torsions:
REMARK  status: ('A' for Active; 'I' for Inactive)
REMARK    1  A    between atoms: C1_1  and  C2_2 
REMARK    2  A    between atoms: C3_3  and  C6_9 
REMARK    3  A    between atoms: C4_5  and  N2_7 
REMARK    4  A    between atoms: N2_7  and  C5_8 
ROOT
ATOM      1  C2  <0> d           0.002  -0.004   0.002  0.00  0.00     0.046 A 
ATOM      2  C3  <0> d           0.006  -0.705  -1.157  0.00  0.00     0.006 A 
ATOM      3  S1  <0> d           0.032  -2.378  -0.535  0.00  0.00    -0.055 SA
ATOM      4  C4  <0> d           0.036  -2.016   1.109  0.00  0.00     0.166 A 
ATOM      5  N1  <0> d           0.023  -0.700   1.125  0.00  0.00    -0.229 NA
ENDROOT
BRANCH   4   6
ATOM      6  N2  <0> d           0.053  -2.891   2.183  0.00  0.00    -0.373 N 
ATOM      7  H4  <0> d           0.066  -3.848   2.029  0.00  0.00     0.161 HD
BRANCH   6   8
ATOM      8  C5  <0> d           0.053  -2.369   3.553  0.00  0.00    -0.019 C 
ATOM      9  H5  <0> d           0.935  -1.748   3.704  0.00  0.00     0.056 H 
ATOM     10  H6  <0> d          -0.844  -1.772   3.714  0.00  0.00     0.056 H 
ATOM     11  H7  <0> d           0.069  -3.200   4.258  0.00  0.00     0.056 H 
ENDBRANCH   6   8
ENDBRANCH   4   6
BRANCH   2  12
ATOM     12  C6  <0> d          -0.009  -0.209  -2.580  0.00  0.00    -0.043 C 
ATOM     13  H8  <0> d           1.015  -0.075  -2.929  0.00  0.00     0.034 H 
ATOM     14  H9  <0> d          -0.516  -0.937  -3.213  0.00  0.00     0.034 H 
ATOM     15  H10 <0> d          -0.536   0.744  -2.627  0.00  0.00     0.034 H 
ENDBRANCH   2  12
BRANCH   1  16
ATOM     16  C1  <0> d          -0.018   1.503   0.010  0.00  0.00    -0.034 C 
ATOM     17  H1  <0> d           1.004   1.880   0.003  0.00  0.00     0.035 H 
ATOM     18  H2  <0> d          -0.545   1.864  -0.873  0.00  0.00     0.035 H 
ATOM     19  H3  <0> d          -0.529   1.854   0.907  0.00  0.00     0.035 H 
ENDBRANCH   1  16
TORSDOF 4
