REMARK  6 active torsions:
REMARK  status: ('A' for Active; 'I' for Inactive)
REMARK    1  A    between atoms: C1_1  and  C2_2 
REMARK    2  A    between atoms: C2_2  and  C3_4 
REMARK    3  A    between atoms: C2_2  and  C5_6 
REMARK    4  A    between atoms: C5_6  and  C6_7 
REMARK    5  A    between atoms: C5_6  and  C7_8 
REMARK    6  A    between atoms: C5_6  and  C8_9 
ROOT
ATOM      1  C5  <0> d           0.742  -0.511   1.242  0.00  0.00    -0.045 C 
ENDROOT
BRANCH   1   2
ATOM      2  C2  <0> d           0.002  -0.004   0.002  0.00  0.00    -0.036 C 
ATOM      3  H1  <0> d          -1.020  -0.381   0.010  0.00  0.00     0.046 H 
BRANCH   2   4
ATOM      4  C1  <0> d          -0.019   1.526   0.010  0.00  0.00    -0.069 C 
ATOM      5  H2  <0> d           1.004   1.903   0.003  0.00  0.00     0.028 H 
ATOM      6  H3  <0> d          -0.546   1.887  -0.873  0.00  0.00     0.028 H 
ATOM      7  H4  <0> d          -0.529   1.877   0.907  0.00  0.00     0.028 H 
ENDBRANCH   2   4
BRANCH   2   8
ATOM      8  C3  <0> d           0.707  -0.490  -1.238  0.00  0.00    -0.108 C 
ATOM      9  C4  <0> d           0.073  -1.247  -2.098  0.00  0.00    -0.124 C 
ATOM     10  H6  <0> d           0.578  -1.595  -2.987  0.00  0.00     0.066 H 
ATOM     11  H7  <0> d          -0.956  -1.523  -1.919  0.00  0.00     0.066 H 
ATOM     12  H5  <0> d           1.736  -0.214  -1.417  0.00  0.00     0.076 H 
ENDBRANCH   2   8
ENDBRANCH   1   2
BRANCH   1  13
ATOM     13  C6  <0> d           0.026  -0.018   2.500  0.00  0.00    -0.069 C 
ATOM     14  H8  <0> d          -0.997  -0.395   2.508  0.00  0.00     0.028 H 
ATOM     15  H9  <0> d           0.553  -0.379   3.383  0.00  0.00     0.028 H 
ATOM     16  H10 <0> d           0.011   1.072   2.506  0.00  0.00     0.028 H 
ENDBRANCH   1  13
BRANCH   1  17
ATOM     17  C7  <0> d           0.763  -2.041   1.233  0.00  0.00    -0.069 C 
ATOM     18  H11 <0> d           1.273  -2.392   0.336  0.00  0.00     0.028 H 
ATOM     19  H12 <0> d           1.290  -2.402   2.116  0.00  0.00     0.028 H 
ATOM     20  H13 <0> d          -0.260  -2.418   1.241  0.00  0.00     0.028 H 
ENDBRANCH   1  17
BRANCH   1  21
ATOM     21  C8  <0> d           2.178   0.019   1.231  0.00  0.00    -0.069 C 
ATOM     22  H14 <0> d           2.163   1.109   1.237  0.00  0.00     0.028 H 
ATOM     23  H15 <0> d           2.705  -0.342   2.114  0.00  0.00     0.028 H 
ATOM     24  H16 <0> d           2.688  -0.333   0.334  0.00  0.00     0.028 H 
ENDBRANCH   1  21
TORSDOF 6
