REMARK  2 active torsions:
REMARK  status: ('A' for Active; 'I' for Inactive)
REMARK    1  A    between atoms: C1_1  and  C2_2 
REMARK    2  A    between atoms: C3_4  and  C5_7 
REMARK       I    between atoms: C5_7  and  N2_9 
ROOT
ATOM      1  C2  <0> d           2.049   0.680  -0.014  0.00  0.00     0.141 A 
ATOM      2  N1  <0> d           1.308  -0.387  -0.013  0.00  0.00    -0.222 NA
ATOM      3  C3  <0> d           0.002  -0.004   0.002  0.00  0.00     0.148 A 
ATOM      4  C4  <0> d          -0.016   1.357   0.009  0.00  0.00     0.054 A 
ATOM      5  O1  <0> d           1.262   1.766  -0.001  0.00  0.00    -0.306 OA
ATOM      6  H4  <0> d          -0.893   1.988   0.017  0.00  0.00     0.127 H 
ENDROOT
BRANCH   3   7
ATOM      7  C5  <0> d          -1.172  -0.896   0.008  0.00  0.00     0.270 C 
ATOM      8  O2  <0> d          -2.293  -0.425   0.020  0.00  0.00    -0.266 OA
ATOM      9  N2  <0> d          -1.002  -2.233  -0.001  0.00  0.00    -0.365 N 
ATOM     10  H5  <0> d          -1.878  -2.898   0.003  0.00  0.00     0.159 HD
ATOM     11  H6  <0> d           0.012  -2.659  -0.012  0.00  0.00     0.159 HD
ENDBRANCH   3   7
BRANCH   1  12
ATOM     12  C1  <0> d           3.556   0.696  -0.028  0.00  0.00    -0.015 C 
ATOM     13  H1  <0> d           3.933  -0.338  -0.037  0.00  0.00     0.038 H 
ATOM     14  H2  <0> d           3.926   1.213   0.870  0.00  0.00     0.038 H 
ATOM     15  H3  <0> d           3.909   1.223  -0.926  0.00  0.00     0.038 H 
ENDBRANCH   1  12
TORSDOF 2
