REMARK  5 active torsions:
REMARK  status: ('A' for Active; 'I' for Inactive)
REMARK    1  A    between atoms: C1_1  and  C2_2 
REMARK    2  A    between atoms: C2_2  and  C3_3 
REMARK    3  A    between atoms: C2_2  and  C4_4 
REMARK    4  A    between atoms: C8_8  and  O1_10 
REMARK    5  A    between atoms: O1_10  and  C9_11 
ROOT
ATOM      1  C4  <0> d           3.486   1.920  -0.021  0.00  0.00     0.041 A 
ATOM      2  C5  <0> d           3.607   3.296  -0.016  0.00  0.00    -0.059 A 
ATOM      3  C6  <0> d           2.460   4.078  -0.001  0.00  0.00    -0.077 A 
ATOM      4  C7  <0> d           1.229   3.445   0.003  0.00  0.00    -0.032 A 
ATOM      5  C8  <0> d           1.183   2.057   0.002  0.00  0.00     0.164 A 
ATOM      6  N1  <0> d           2.298   1.346  -0.013  0.00  0.00    -0.229 NA
ATOM      7  H8  <0> d           4.583   3.758  -0.023  0.00  0.00     0.086 H 
ATOM      8  H9  <0> d           2.527   5.156   0.004  0.00  0.00     0.083 H 
ATOM      9  H10 <0> d           0.317   4.023   0.011  0.00  0.00     0.090 H 
ENDROOT
BRANCH   1  10
ATOM     10  C2  <0> d           4.726   1.065  -0.037  0.00  0.00    -0.019 C 
ATOM     11  H4  <0> d           4.484   0.085   0.401  0.00  0.00     0.048 H 
BRANCH  10  12
ATOM     12  C1  <0> d           5.204   0.885  -1.480  0.00  0.00    -0.068 C 
ATOM     13  H1  <0> d           4.413   0.397  -2.069  0.00  0.00     0.028 H 
ATOM     14  H2  <0> d           6.109   0.261  -1.491  0.00  0.00     0.028 H 
ATOM     15  H3  <0> d           5.431   1.869  -1.916  0.00  0.00     0.028 H 
ENDBRANCH  10  12
BRANCH  10  16
ATOM     16  C3  <0> d           5.825   1.744   0.783  0.00  0.00    -0.068 C 
ATOM     17  H5  <0> d           5.481   1.873   1.820  0.00  0.00     0.028 H 
ATOM     18  H6  <0> d           6.053   2.728   0.347  0.00  0.00     0.028 H 
ATOM     19  H7  <0> d           6.730   1.119   0.771  0.00  0.00     0.028 H 
ENDBRANCH  10  16
ENDBRANCH   1  10
BRANCH   5  20
ATOM     20  O1  <0> d          -0.017   1.425   0.010  0.00  0.00    -0.339 OA
BRANCH  20  21
ATOM     21  C9  <0> d           0.002  -0.004   0.002  0.00  0.00     0.012 C 
ATOM     22  H11 <0> d          -1.030  -0.385   0.010  0.00  0.00     0.067 H 
ATOM     23  H12 <0> d           0.534  -0.368   0.893  0.00  0.00     0.067 H 
ATOM     24  H13 <0> d           0.517  -0.359  -0.903  0.00  0.00     0.067 H 
ENDBRANCH  20  21
ENDBRANCH   5  20
TORSDOF 5
