REMARK  6 active torsions:
REMARK  status: ('A' for Active; 'I' for Inactive)
REMARK    1  A    between atoms: C1_1  and  C2_2 
REMARK    2  A    between atoms: C2_2  and  C3_3 
REMARK    3  A    between atoms: C3_3  and  C4_5 
REMARK    4  A    between atoms: C3_3  and  O3_8 
REMARK    5  A    between atoms: O3_8  and  C5_9 
REMARK    6  A    between atoms: C5_9  and  C6_10 
ROOT
ATOM      1  C3  <0> d           0.742  -0.511   1.242  0.00  0.00     0.121 C 
ATOM      2  H1  <0> d           0.285  -0.087   2.136  0.00  0.00     0.100 H 
ENDROOT
BRANCH   1   3
ATOM      3  C2  <0> d           0.002  -0.004   0.002  0.00  0.00    -0.035 C 
ATOM      4  H5  <0> d          -1.020  -0.381   0.010  0.00  0.00     0.036 H 
ATOM      5  H6  <0> d           0.512  -0.356  -0.895  0.00  0.00     0.036 H 
BRANCH   3   6
ATOM      6  C1  <0> d          -0.019   1.526   0.010  0.00  0.00    -0.074 C 
ATOM      7  H2  <0> d           1.004   1.903   0.003  0.00  0.00     0.027 H 
ATOM      8  H3  <0> d          -0.546   1.887  -0.873  0.00  0.00     0.027 H 
ATOM      9  H4  <0> d          -0.529   1.877   0.907  0.00  0.00     0.027 H 
ENDBRANCH   3   6
ENDBRANCH   1   3
BRANCH   1  10
ATOM     10  C4  <0> d           0.657  -2.014   1.298  0.00  0.00     0.203 C 
ATOM     11  O1  <0> d           1.668  -2.687   1.189  0.00  0.00    -0.646 OA
ATOM     12  O2  <0> d          -0.423  -2.558   1.452  0.00  0.00    -0.646 OA
ENDBRANCH   1  10
BRANCH   1  13
ATOM     13  O3  <0> d           2.113  -0.114   1.173  0.00  0.00    -0.376 OA
BRANCH  13  14
ATOM     14  C5  <0> d           2.722   0.093   2.449  0.00  0.00     0.017 C 
ATOM     15  H7  <0> d           2.187   0.877   2.985  0.00  0.00     0.073 H 
ATOM     16  H8  <0> d           2.683  -0.831   3.025  0.00  0.00     0.073 H 
BRANCH  14  17
ATOM     17  C6  <0> d           4.181   0.513   2.256  0.00  0.00    -0.056 C 
ATOM     18  H9  <0> d           4.717  -0.271   1.720  0.00  0.00     0.030 H 
ATOM     19  H10 <0> d           4.220   1.438   1.680  0.00  0.00     0.030 H 
ATOM     20  H11 <0> d           4.646   0.671   3.229  0.00  0.00     0.030 H 
ENDBRANCH  14  17
ENDBRANCH  13  14
ENDBRANCH   1  13
TORSDOF 6
