REMARK  3 active torsions:
REMARK  status: ('A' for Active; 'I' for Inactive)
REMARK    1  A    between atoms: C1_1  and  N1_2 
REMARK    2  A    between atoms: N1_2  and  C2_3 
REMARK    3  A    between atoms: N1_2  and  C3_4 
ROOT
ATOM      1  C3  <0> d           0.000  -0.690  -1.200  0.00  0.00     0.725 A 
ATOM      2  N2  <0> d           0.013  -2.014  -1.189  0.00  0.00    -0.075 NA
ATOM      3  C4  <0> d           0.011  -2.701  -2.320  0.00  0.00     0.024 A 
ATOM      4  C5  <0> d          -0.004  -2.018  -3.526  0.00  0.00    -0.026 A 
ATOM      5  C6  <0> d          -0.017  -0.631  -3.502  0.00  0.00     0.146 A 
ATOM      6  N3  <0> d          -0.020  -0.005  -2.335  0.00  0.00    -0.051 NA
ATOM      7 Cl1  <0> d          -0.036   0.274  -4.983  0.00  0.00    -0.062 Cl
ATOM      8  H7  <0> d           0.022  -3.781  -2.304  0.00  0.00     0.115 H 
ATOM      9  H8  <0> d          -0.005  -2.554  -4.463  0.00  0.00     0.090 H 
ENDROOT
BRANCH   1  10
ATOM     10  N1  <0> d           0.002  -0.004   0.002  0.00  0.00    -0.223 N 
BRANCH  10  11
ATOM     11  C1  <0> d          -0.018   1.461   0.010  0.00  0.00    -0.003 C 
ATOM     12  H1  <0> d           1.005   1.838   0.002  0.00  0.00     0.057 H 
ATOM     13  H2  <0> d          -0.545   1.822  -0.873  0.00  0.00     0.057 H 
ATOM     14  H3  <0> d          -0.528   1.812   0.907  0.00  0.00     0.057 H 
ENDBRANCH  10  11
BRANCH  10  15
ATOM     15  C2  <0> d           0.024  -0.743   1.267  0.00  0.00    -0.003 C 
ATOM     16  H4  <0> d          -0.998  -0.941   1.590  0.00  0.00     0.057 H 
ATOM     17  H5  <0> d           0.550  -1.688   1.126  0.00  0.00     0.057 H 
ATOM     18  H6  <0> d           0.537  -0.151   2.025  0.00  0.00     0.057 H 
ENDBRANCH  10  15
ENDBRANCH   1  10
TORSDOF 3
