REMARK  4 active torsions:
REMARK  status: ('A' for Active; 'I' for Inactive)
REMARK    1  A    between atoms: C1_1  and  C2_2 
REMARK    2  A    between atoms: C7_7  and  C8_8 
REMARK    3  A    between atoms: C8_8  and  C9_9 
REMARK    4  A    between atoms: C9_9  and  O1_10 
ROOT
ATOM      1  C2  <0> d           1.083   1.784   2.982  0.00  0.00    -0.053 A 
ATOM      2  C3  <0> d           1.749   1.329   4.104  0.00  0.00    -0.040 A 
ATOM      3  C4  <0> d           1.338   0.163   4.728  0.00  0.00     0.117 A 
ATOM      4  C5  <0> d           0.257  -0.543   4.229  0.00  0.00    -0.045 A 
ATOM      5  C6  <0> d          -0.411  -0.084   3.110  0.00  0.00    -0.073 A 
ATOM      6  C7  <0> d           0.000   1.080   2.488  0.00  0.00    -0.050 A 
ATOM      7  F1  <0> d           1.992  -0.284   5.822  0.00  0.00    -0.206 F 
ATOM      8  H4  <0> d           2.592   1.881   4.492  0.00  0.00     0.089 H 
ATOM      9  H5  <0> d          -0.064  -1.453   4.714  0.00  0.00     0.088 H 
ATOM     10  H6  <0> d          -1.254  -0.636   2.720  0.00  0.00     0.084 H 
ENDROOT
BRANCH   6  11
ATOM     11  C8  <0> d          -0.729   1.579   1.267  0.00  0.00    -0.021 C 
ATOM     12  H7  <0> d          -0.744   2.669   1.273  0.00  0.00     0.043 H 
ATOM     13  H8  <0> d          -1.751   1.202   1.275  0.00  0.00     0.043 H 
BRANCH  11  14
ATOM     14  C9  <0> d          -0.013   1.086   0.008  0.00  0.00     0.020 C 
ATOM     15  H9  <0> d           0.002  -0.004   0.002  0.00  0.00     0.074 H 
ATOM     16  H10 <0> d           1.010   1.463   0.000  0.00  0.00     0.074 H 
BRANCH  14  17
ATOM     17  O1  <0> d          -0.704   1.559  -1.150  0.00  0.00    -0.401 OA
ATOM     18  H11 <0> d          -0.304   1.284  -1.986  0.00  0.00     0.209 HD
ENDBRANCH  14  17
ENDBRANCH  11  14
ENDBRANCH   6  11
BRANCH   1  19
ATOM     19  C1  <0> d           1.533   3.049   2.299  0.00  0.00    -0.051 C 
ATOM     20  H1  <0> d           1.012   3.902   2.734  0.00  0.00     0.033 H 
ATOM     21  H2  <0> d           2.608   3.172   2.434  0.00  0.00     0.033 H 
ATOM     22  H3  <0> d           1.306   2.989   1.234  0.00  0.00     0.033 H 
ENDBRANCH   1  19
TORSDOF 4
