REMARK  1 active torsions:
REMARK  status: ('A' for Active; 'I' for Inactive)
REMARK    1  A    between atoms: C7_11  and  O1_13 
ROOT
ATOM      1  C1  <0> d          -0.013   1.086   0.008  0.00  0.00    -0.053 C 
ATOM      2  C2  <0> d          -0.893   1.666  -1.151  0.00  0.00    -0.025 C 
ATOM      3  H1  <0> d          -0.558   1.452  -2.166  0.00  0.00     0.044 H 
ATOM      4  C3  <0> d          -2.286   1.090  -0.755  0.00  0.00    -0.047 C 
ATOM      5  C4  <0> d          -2.325   1.225   0.793  0.00  0.00     0.037 C 
ATOM      6  H2  <0> d          -2.680   0.332   1.307  0.00  0.00     0.056 H 
ATOM      7  C5  <0> d          -0.868   1.651   1.185  0.00  0.00    -0.013 C 
ATOM      8  H3  <0> d          -0.535   1.402   2.192  0.00  0.00     0.045 H 
ATOM      9  C6  <0> d          -1.003   3.193   0.804  0.00  0.00     0.077 C 
ATOM     10  H4  <0> d          -0.228   3.819   1.245  0.00  0.00     0.088 H 
ATOM     11  C7  <0> d          -0.970   3.169  -0.741  0.00  0.00     0.065 C 
ATOM     12  H5  <0> d          -0.102   3.709  -1.121  0.00  0.00     0.087 H 
ATOM     13  O2  <0> d          -2.349   3.518   1.274  0.00  0.00    -0.313 OA
ATOM     14  C8  <0> d          -3.159   2.471   1.064  0.00  0.00     0.264 C 
ATOM     15  O3  <0> d          -4.367   2.509   1.087  0.00  0.00    -0.265 OA
ATOM     16  H6  <0> d           0.002  -0.004   0.002  0.00  0.00     0.034 H 
ATOM     17  H7  <0> d           0.995   1.502   0.001  0.00  0.00     0.034 H 
ATOM     18  H8  <0> d          -3.085   1.676  -1.210  0.00  0.00     0.035 H 
ATOM     19  H9  <0> d          -2.364   0.043  -1.049  0.00  0.00     0.035 H 
ENDROOT
BRANCH  11  20
ATOM     20  O1  <0> d          -2.176   3.757  -1.235  0.00  0.00    -0.393 OA
ATOM     21  H10 <0> d          -2.278   4.692  -1.010  0.00  0.00     0.210 HD
ENDBRANCH  11  20
TORSDOF 1
