REMARK  4 active torsions:
REMARK  status: ('A' for Active; 'I' for Inactive)
REMARK    1  A    between atoms: C1_1  and  C2_2 
REMARK    2  A    between atoms: C3_3  and  N3_10 
REMARK    3  A    between atoms: C4_4  and  S1_8 
REMARK    4  A    between atoms: S1_8  and  C6_9 
ROOT
ATOM      1  C2  <0> d           1.111   2.013   0.002  0.00  0.00     0.061 A 
ATOM      2  C3  <0> d           2.323   1.340  -0.013  0.00  0.00     0.086 A 
ATOM      3  C4  <0> d           2.303  -0.062  -0.020  0.00  0.00     0.122 A 
ATOM      4  N1  <0> d           1.130  -0.687  -0.012  0.00  0.00    -0.233 NA
ATOM      5  C5  <0> d           0.002  -0.004   0.002  0.00  0.00     0.088 A 
ATOM      6  N2  <0> d          -0.016   1.313   0.009  0.00  0.00    -0.244 NA
ATOM      7  H4  <0> d          -0.935  -0.541   0.008  0.00  0.00     0.146 H 
ENDROOT
BRANCH   3   8
ATOM      8  S1  <0> d           3.807  -0.980  -0.038  0.00  0.00    -0.112 SA
BRANCH   8   9
ATOM      9  C6  <0> d           3.146  -2.665  -0.040  0.00  0.00    -0.029 C 
ATOM     10  H5  <0> d           2.544  -2.821   0.855  0.00  0.00     0.042 H 
ATOM     11  H6  <0> d           2.527  -2.812  -0.925  0.00  0.00     0.042 H 
ATOM     12  H7  <0> d           3.971  -3.378  -0.051  0.00  0.00     0.042 H 
ENDBRANCH   8   9
ENDBRANCH   3   8
BRANCH   2  13
ATOM     13  N3  <0> d           3.534   2.042  -0.020  0.00  0.00    -0.395 N 
ATOM     14  H8  <0> d           4.375   1.558  -0.030  0.00  0.00     0.156 HD
ATOM     15  H9  <0> d           3.533   3.012  -0.015  0.00  0.00     0.156 HD
ENDBRANCH   2  13
BRANCH   1  16
ATOM     16  C1  <0> d           1.073   3.519   0.010  0.00  0.00    -0.033 C 
ATOM     17  H1  <0> d           1.074   3.877   1.040  0.00  0.00     0.035 H 
ATOM     18  H2  <0> d           1.949   3.907  -0.510  0.00  0.00     0.035 H 
ATOM     19  H3  <0> d           0.170   3.863  -0.493  0.00  0.00     0.035 H 
ENDBRANCH   1  16
TORSDOF 4
