REMARK  1 active torsions:
REMARK  status: ('A' for Active; 'I' for Inactive)
REMARK    1  A    between atoms: C2_2  and  C3_3 
ROOT
ATOM      1  C3  <0> d          -1.231   1.760   0.017  0.00  0.00     0.073 A 
ATOM      2  C4  <0> d          -0.013   1.076   0.008  0.00  0.00     0.029 A 
ATOM      3  N1  <0> d           1.120   1.752   0.001  0.00  0.00    -0.269 NA
ATOM      4  C5  <0> d           1.103   3.075   0.008  0.00  0.00     0.019 A 
ATOM      5  C6  <0> d          -0.102   3.757   0.023  0.00  0.00     0.020 A 
ATOM      6  N2  <0> d          -1.241   3.090   0.030  0.00  0.00    -0.258 NA
ATOM      7  H4  <0> d           0.002  -0.004   0.002  0.00  0.00     0.118 H 
ATOM      8  H5  <0> d           2.032   3.625   0.002  0.00  0.00     0.117 H 
ATOM      9  H6  <0> d          -0.109   4.837   0.029  0.00  0.00     0.117 H 
ENDROOT
BRANCH   1  10
ATOM     10  C2  <0> d          -2.503   1.008   0.019  0.00  0.00    -0.063 C 
ATOM     11  C1  <0> d          -3.658   1.660   0.028  0.00  0.00    -0.119 C 
ATOM     12  H1  <0> d          -3.669   2.740   0.034  0.00  0.00     0.066 H 
ATOM     13  H2  <0> d          -4.588   1.110   0.030  0.00  0.00     0.066 H 
ATOM     14  H3  <0> d          -2.492  -0.072   0.013  0.00  0.00     0.085 H 
ENDBRANCH   1  10
TORSDOF 1
