REMARK  5 active torsions:
REMARK  status: ('A' for Active; 'I' for Inactive)
REMARK    1  A    between atoms: C1_1  and  C2_2 
REMARK    2  A    between atoms: C2_2  and  C3_3 
REMARK    3  A    between atoms: C2_2  and  O1_4 
REMARK    4  A    between atoms: O1_4  and  C4_5 
REMARK    5  A    between atoms: C4_5  and  C5_7 
ROOT
ATOM      1  C2  <0> d           0.002  -0.004   0.002  0.00  0.00     0.041 C 
ATOM      2  H4  <0> d           0.512  -0.356  -0.895  0.00  0.00     0.083 H 
ENDROOT
BRANCH   1   3
ATOM      3  C1  <0> d          -0.019   1.526   0.010  0.00  0.00    -0.052 C 
ATOM      4  H1  <0> d           1.004   1.903   0.003  0.00  0.00     0.030 H 
ATOM      5  H2  <0> d          -0.546   1.887  -0.873  0.00  0.00     0.030 H 
ATOM      6  H3  <0> d          -0.529   1.877   0.907  0.00  0.00     0.030 H 
ENDBRANCH   1   3
BRANCH   1   7
ATOM      7  C3  <0> d           0.742  -0.511   1.242  0.00  0.00    -0.052 C 
ATOM      8  H5  <0> d           0.232  -0.159   2.138  0.00  0.00     0.030 H 
ATOM      9  H6  <0> d           0.757  -1.601   1.236  0.00  0.00     0.030 H 
ATOM     10  H7  <0> d           1.765  -0.134   1.234  0.00  0.00     0.030 H 
ENDBRANCH   1   7
BRANCH   1  11
ATOM     11  O1  <0> d          -1.339  -0.499   0.012  0.00  0.00    -0.317 OA
BRANCH  11  12
ATOM     12  C4  <0> d          -1.922  -0.703  -1.179  0.00  0.00     0.255 C 
ATOM     13  O2  <0> d          -1.314  -0.470  -2.197  0.00  0.00    -0.266 OA
BRANCH  12  14
ATOM     14  C5  <0> d          -3.334  -1.224  -1.248  0.00  0.00     0.004 C 
ATOM     15  H8  <0> d          -3.716  -1.373  -0.237  0.00  0.00     0.041 H 
ATOM     16  H9  <0> d          -3.962  -0.502  -1.770  0.00  0.00     0.041 H 
ATOM     17  H10 <0> d          -3.346  -2.172  -1.785  0.00  0.00     0.041 H 
ENDBRANCH  12  14
ENDBRANCH  11  12
ENDBRANCH   1  11
TORSDOF 5
