REMARK  2 active torsions:
REMARK  status: ('A' for Active; 'I' for Inactive)
REMARK    1  A    between atoms: C4_4  and  N2_8 
REMARK    2  A    between atoms: C6_6  and  N1_7 
ROOT
ATOM      1  C1  <0> d          -1.242   3.039   0.030  0.00  0.00    -0.056 A 
ATOM      2  C2  <0> d          -2.437   3.719   0.034  0.00  0.00    -0.059 A 
ATOM      3  C3  <0> d          -3.644   3.011   0.036  0.00  0.00     0.070 A 
ATOM      4  C4  <0> d          -3.628   1.605   0.028  0.00  0.00     0.048 A 
ATOM      5  C5  <0> d          -2.417   0.932   0.019  0.00  0.00    -0.031 A 
ATOM      6  C6  <0> d          -1.226   1.645   0.017  0.00  0.00     0.027 A 
ATOM      7  C7  <0> d          -4.890   3.716   0.045  0.00  0.00     0.101 C 
ATOM      8  N3  <0> d          -5.879   4.275   0.052  0.00  0.00    -0.191 NA
ATOM      9  H1  <0> d          -0.311   3.587   0.034  0.00  0.00     0.086 H 
ATOM     10  H2  <0> d          -2.444   4.798   0.040  0.00  0.00     0.086 H 
ATOM     11  H3  <0> d          -2.400  -0.148   0.013  0.00  0.00     0.090 H 
ENDROOT
BRANCH   4  12
ATOM     12  N2  <0> d          -4.822   0.894   0.029  0.00  0.00    -0.398 N 
ATOM     13  H6  <0> d          -4.809  -0.076   0.024  0.00  0.00     0.156 HD
ATOM     14  H7  <0> d          -5.669   1.367   0.036  0.00  0.00     0.156 HD
ENDBRANCH   4  12
BRANCH   6  15
ATOM     15  N1  <0> d          -0.011   0.966   0.007  0.00  0.00    -0.399 N 
ATOM     16  H4  <0> d           0.002  -0.004   0.002  0.00  0.00     0.156 HD
ATOM     17  H5  <0> d           0.822   1.462   0.002  0.00  0.00     0.156 HD
ENDBRANCH   6  15
TORSDOF 2
