REMARK  4 active torsions:
REMARK  status: ('A' for Active; 'I' for Inactive)
REMARK    1  A    between atoms: C3_3  and  N1_10 
REMARK    2  A    between atoms: C6_6  and  C7_7 
REMARK    3  A    between atoms: C7_7  and  C8_8 
REMARK    4  A    between atoms: C8_8  and  O1_9 
ROOT
ATOM      1  C1  <0> d           0.002  -0.004   0.002  0.00  0.00    -0.075 A 
ATOM      2  C2  <0> d          -0.017   1.377   0.010  0.00  0.00    -0.057 A 
ATOM      3  C3  <0> d           1.178   2.086   0.002  0.00  0.00     0.025 A 
ATOM      4  C4  <0> d           2.387   1.403  -0.012  0.00  0.00    -0.057 A 
ATOM      5  C5  <0> d           2.399   0.022  -0.020  0.00  0.00    -0.075 A 
ATOM      6  C6  <0> d           1.208  -0.681  -0.013  0.00  0.00    -0.056 A 
ATOM      7  H1  <0> d          -0.926  -0.556   0.008  0.00  0.00     0.084 H 
ATOM      8  H2  <0> d          -0.959   1.905   0.017  0.00  0.00     0.086 H 
ATOM      9  H3  <0> d           3.318   1.952  -0.018  0.00  0.00     0.086 H 
ATOM     10  H4  <0> d           3.339  -0.509  -0.032  0.00  0.00     0.084 H 
ENDROOT
BRANCH   6  11
ATOM     11  C7  <0> d           1.224  -2.188  -0.021  0.00  0.00    -0.021 C 
ATOM     12  H5  <0> d           2.123  -2.544   0.482  0.00  0.00     0.043 H 
ATOM     13  H6  <0> d           0.344  -2.563   0.499  0.00  0.00     0.043 H 
BRANCH  11  14
ATOM     14  C8  <0> d           1.216  -2.690  -1.467  0.00  0.00     0.020 C 
ATOM     15  H7  <0> d           0.318  -2.333  -1.970  0.00  0.00     0.074 H 
ATOM     16  H8  <0> d           2.097  -2.314  -1.987  0.00  0.00     0.074 H 
BRANCH  14  17
ATOM     17  O1  <0> d           1.232  -4.119  -1.474  0.00  0.00    -0.401 OA
ATOM     18  H9  <0> d           1.228  -4.507  -2.360  0.00  0.00     0.209 HD
ENDBRANCH  14  17
ENDBRANCH  11  14
ENDBRANCH   6  11
BRANCH   3  19
ATOM     19  N1  <0> d           1.162   3.483   0.009  0.00  0.00    -0.399 N 
ATOM     20  H10 <0> d           0.317   3.958   0.019  0.00  0.00     0.156 HD
ATOM     21  H11 <0> d           1.997   3.977   0.004  0.00  0.00     0.156 HD
ENDBRANCH   3  19
TORSDOF 4
