REMARK  2 active torsions:
REMARK  status: ('A' for Active; 'I' for Inactive)
REMARK    1  A    between atoms: C3_3  and  S2_6 
REMARK    2  A    between atoms: S2_6  and  O2_8 
ROOT
ATOM      1  C1  <0> d          -0.013   1.076   0.008  0.00  0.00    -0.075 A 
ATOM      2  C2  <0> d           1.169   1.793   0.001  0.00  0.00    -0.055 A 
ATOM      3  C3  <0> d           1.115   3.148   0.008  0.00  0.00     0.099 A 
ATOM      4  S1  <0> d          -0.644   3.448   0.027  0.00  0.00    -0.090 SA
ATOM      5  C4  <0> d          -1.190   1.748   0.017  0.00  0.00    -0.044 A 
ATOM      6  H1  <0> d           0.002  -0.004   0.002  0.00  0.00     0.084 H 
ATOM      7  H2  <0> d           2.120   1.283  -0.012  0.00  0.00     0.086 H 
ATOM      8  H3  <0> d          -2.196   1.356   0.019  0.00  0.00     0.095 H 
ENDROOT
BRANCH   3   9
ATOM      9  S2  <0> d           2.439   4.311   0.002  0.00  0.00     0.194 S 
ATOM     10  O1  <0> d           1.839   5.517   0.454  0.00  0.00    -0.222 OA
BRANCH   9  11
ATOM     11  O2  <0> d           2.701   4.562  -1.477  0.00  0.00    -0.302 OA
ATOM     12  H4  <0> d           3.492   5.261  -1.784  0.00  0.00     0.230 HD
ENDBRANCH   9  11
ENDBRANCH   3   9
TORSDOF 2
