REMARK  1 active torsions:
REMARK  status: ('A' for Active; 'I' for Inactive)
REMARK    1  A    between atoms: C4_4  and  C7_7 
ROOT
ATOM      1  C1  <0> d           3.832  -3.779  -0.662  0.00  0.00    -0.065 C 
ATOM      2  C2  <0> d           2.540  -3.688  -1.477  0.00  0.00    -0.064 C 
ATOM      3  C3  <0> d           2.031  -2.245  -1.466  0.00  0.00    -0.055 C 
ATOM      4  C4  <0> d           1.756  -1.813  -0.024  0.00  0.00     0.009 C 
ATOM      5  C5  <0> d           3.047  -1.904   0.791  0.00  0.00    -0.055 C 
ATOM      6  C6  <0> d           3.557  -3.347   0.779  0.00  0.00    -0.064 C 
ATOM      7  H1  <0> d           4.592  -3.118  -1.105  0.00  0.00     0.033 H 
ATOM      8  H2  <0> d           4.198  -4.816  -0.671  0.00  0.00     0.033 H 
ATOM      9  H3  <0> d           2.738  -3.998  -2.514  0.00  0.00     0.033 H 
ATOM     10  H4  <0> d           1.780  -4.348  -1.035  0.00  0.00     0.033 H 
ATOM     11  H5  <0> d           2.791  -1.584  -1.908  0.00  0.00     0.034 H 
ATOM     12  H6  <0> d           1.102  -2.179  -2.051  0.00  0.00     0.034 H 
ATOM     13  H7  <0> d           0.986  -2.461   0.421  0.00  0.00     0.052 H 
ATOM     14  H8  <0> d           3.808  -1.244   0.349  0.00  0.00     0.034 H 
ATOM     15  H9  <0> d           2.850  -1.594   1.828  0.00  0.00     0.034 H 
ATOM     16  H10 <0> d           2.797  -4.008   1.222  0.00  0.00     0.033 H 
ATOM     17  H11 <0> d           4.486  -3.413   1.365  0.00  0.00     0.033 H 
ENDROOT
BRANCH   4  18
ATOM     18  C7  <0> d           1.254  -0.392  -0.012  0.00  0.00     0.178 A 
ATOM     19  N4  <0> d           0.002  -0.004   0.002  0.00  0.00    -0.111 NA
ATOM     20  N3  <0> d          -0.015   1.284   0.009  0.00  0.00    -0.021 NA
ATOM     21  N2  <0> d           1.193   1.728  -0.000  0.00  0.00    -0.021 NA
ATOM     22  N1  <0> d           2.005   0.725  -0.013  0.00  0.00    -0.111 NA
ENDBRANCH   4  18
TORSDOF 1
