REMARK  0 active torsions:
REMARK  status: ('A' for Active; 'I' for Inactive)
ROOT
ATOM      1  C1  <0> d          -0.013   1.076   0.008  0.00  0.00    -0.053 A 
ATOM      2  C2  <0> d           1.058   1.891   0.002  0.00  0.00    -0.022 A 
ATOM      3  N1  <0> d           0.650   3.196   0.013  0.00  0.00    -0.365 N 
ATOM      4  H1  <0> d           1.241   3.965   0.011  0.00  0.00     0.165 HD
ATOM      5  C3  <0> d          -0.721   3.256   0.026  0.00  0.00     0.046 A 
ATOM      6  C4  <0> d          -1.197   1.928   0.018  0.00  0.00     0.031 A 
ATOM      7  C5  <0> d          -2.584   1.700   0.021  0.00  0.00     0.148 A 
ATOM      8  N2  <0> d          -3.423   2.730   0.030  0.00  0.00    -0.249 NA
ATOM      9  C6  <0> d          -3.000   3.978   0.035  0.00  0.00     0.006 A 
ATOM     10  C7  <0> d          -1.653   4.289   0.041  0.00  0.00    -0.039 A 
ATOM     11  C8  <0> d          -3.091   0.361   0.017  0.00  0.00     0.120 C 
ATOM     12  N3  <0> d          -3.493  -0.701   0.013  0.00  0.00    -0.190 NA
ATOM     13  H2  <0> d           0.002  -0.004   0.002  0.00  0.00     0.087 H 
ATOM     14  H3  <0> d           2.087   1.563  -0.010  0.00  0.00     0.111 H 
ATOM     15  H4  <0> d          -3.724   4.779   0.042  0.00  0.00     0.114 H 
ATOM     16  H5  <0> d          -1.329   5.319   0.044  0.00  0.00     0.089 H 
ENDROOT
TORSDOF 0
