REMARK  2 active torsions:
REMARK  status: ('A' for Active; 'I' for Inactive)
REMARK    1  A    between atoms: C1_1  and  C2_2 
REMARK    2  A    between atoms: C4_4  and  C5_7 
ROOT
ATOM      1  C5  <0> d          -1.500  -3.372  -0.010  0.00  0.00     0.057 C 
ATOM      2  C6  <0> d          -1.141  -4.226  -1.153  0.00  0.00     0.065 C 
ATOM      3  N2  <0> d          -0.863  -4.886  -2.036  0.00  0.00    -0.197 NA
ATOM      4  H5  <0> d          -1.351  -3.925   0.918  0.00  0.00     0.064 H 
ATOM      5  H6  <0> d          -2.545  -3.075  -0.092  0.00  0.00     0.064 H 
ENDROOT
BRANCH   1   6
ATOM      6  C4  <0> d          -0.627  -2.143  -0.007  0.00  0.00     0.077 A 
ATOM      7  C3  <0> d          -1.077  -0.810   0.003  0.00  0.00    -0.026 A 
ATOM      8  C2  <0> d           0.002  -0.004   0.002  0.00  0.00     0.077 A 
ATOM      9  H4  <0> d          -2.108  -0.490   0.010  0.00  0.00     0.090 H 
ATOM     10  O1  <0> d           1.098  -0.778  -0.013  0.00  0.00    -0.218 OA
ATOM     11  N1  <0> d           0.676  -2.130  -0.013  0.00  0.00    -0.132 NA
BRANCH   8  12
ATOM     12  C1  <0> d          -0.018   1.503   0.010  0.00  0.00    -0.029 C 
ATOM     13  H1  <0> d           1.004   1.880   0.003  0.00  0.00     0.036 H 
ATOM     14  H2  <0> d          -0.545   1.864  -0.873  0.00  0.00     0.036 H 
ATOM     15  H3  <0> d          -0.529   1.854   0.907  0.00  0.00     0.036 H 
ENDBRANCH   8  12
ENDBRANCH   1   6
TORSDOF 2
