REMARK  2 active torsions:
REMARK  status: ('A' for Active; 'I' for Inactive)
REMARK    1  A    between atoms: C1_1  and  C2_2 
REMARK    2  A    between atoms: C5_5  and  C8_8 
ROOT
ATOM      1  C2  <0> d           0.040  -2.772  -0.013  0.00  0.00    -0.062 A 
ATOM      2  C3  <0> d           1.229  -2.067  -0.020  0.00  0.00    -0.076 A 
ATOM      3  C4  <0> d           1.216  -0.687  -0.013  0.00  0.00    -0.072 A 
ATOM      4  C5  <0> d           0.002  -0.004   0.002  0.00  0.00    -0.023 A 
ATOM      5  C6  <0> d          -1.193  -0.719   0.015  0.00  0.00    -0.072 A 
ATOM      6  C7  <0> d          -1.169  -2.099   0.002  0.00  0.00    -0.076 A 
ATOM      7  H5  <0> d           2.170  -2.597  -0.032  0.00  0.00     0.084 H 
ATOM      8  H6  <0> d           2.146  -0.137  -0.018  0.00  0.00     0.084 H 
ATOM      9  H7  <0> d          -2.137  -0.195   0.031  0.00  0.00     0.084 H 
ATOM     10  H8  <0> d          -2.095  -2.655   0.007  0.00  0.00     0.084 H 
ENDROOT
BRANCH   4  11
ATOM     11  C8  <0> d          -0.018   1.480   0.010  0.00  0.00     0.010 A 
ATOM     12  C10 <0> d           1.107   2.328   0.004  0.00  0.00     0.034 A 
ATOM     13  N2  <0> d           0.683   3.564   0.014  0.00  0.00    -0.187 NA
ATOM     14  H10 <0> d           2.139   2.012  -0.007  0.00  0.00     0.118 H 
ATOM     15  N1  <0> d          -0.717   3.555   0.027  0.00  0.00    -0.289 N 
ATOM     16  C9  <0> d          -1.129   2.272   0.019  0.00  0.00     0.008 A 
ATOM     17  H1  <0> d          -1.308   4.361   0.040  0.00  0.00     0.188 HD
ATOM     18  H9  <0> d          -2.155   1.931   0.021  0.00  0.00     0.115 H 
ENDBRANCH   4  11
BRANCH   1  19
ATOM     19  C1  <0> d           0.060  -4.279  -0.022  0.00  0.00    -0.051 C 
ATOM     20  H2  <0> d           0.074  -4.648   1.004  0.00  0.00     0.033 H 
ATOM     21  H3  <0> d          -0.830  -4.652  -0.529  0.00  0.00     0.033 H 
ATOM     22  H4  <0> d           0.950  -4.627  -0.545  0.00  0.00     0.033 H 
ENDBRANCH   1  19
TORSDOF 2
