REMARK  9 active torsions:
REMARK  status: ('A' for Active; 'I' for Inactive)
REMARK    1  A    between atoms: C1_1  and  C2_2 
REMARK    2  A    between atoms: C2_2  and  C3_3 
REMARK    3  A    between atoms: C3_3  and  C4_4 
REMARK    4  A    between atoms: C4_4  and  C5_5 
REMARK    5  A    between atoms: C5_5  and  C6_6 
REMARK    6  A    between atoms: C6_6  and  C7_7 
REMARK    7  A    between atoms: C7_7  and  C8_8 
REMARK    8  A    between atoms: C7_7  and  C9_9 
REMARK    9  A    between atoms: C7_7  and  O1_10 
ROOT
ATOM      1  C5  <0> d          -2.135  -0.131  -1.286  0.00  0.00    -0.062 C 
ATOM      2  H10 <0> d          -2.150   0.956  -1.369  0.00  0.00     0.033 H 
ATOM      3  H11 <0> d          -1.598  -0.554  -2.135  0.00  0.00     0.033 H 
ENDROOT
BRANCH   1   4
ATOM      4  C4  <0> d          -3.571  -0.661  -1.275  0.00  0.00    -0.065 C 
ATOM      5  H8  <0> d          -3.556  -1.748  -1.191  0.00  0.00     0.033 H 
ATOM      6  H9  <0> d          -4.107  -0.238  -0.426  0.00  0.00     0.033 H 
BRANCH   4   7
ATOM      7  C3  <0> d          -4.272  -0.258  -2.573  0.00  0.00    -0.065 C 
ATOM      8  H6  <0> d          -4.287   0.828  -2.657  0.00  0.00     0.033 H 
ATOM      9  H7  <0> d          -3.736  -0.681  -3.423  0.00  0.00     0.033 H 
BRANCH   7  10
ATOM     10  C2  <0> d          -5.708  -0.788  -2.562  0.00  0.00    -0.069 C 
ATOM     11  H4  <0> d          -5.694  -1.875  -2.479  0.00  0.00     0.032 H 
ATOM     12  H5  <0> d          -6.245  -0.365  -1.713  0.00  0.00     0.032 H 
BRANCH  10  13
ATOM     13  C1  <0> d          -6.410  -0.386  -3.861  0.00  0.00    -0.077 C 
ATOM     14  H1  <0> d          -6.424   0.701  -3.945  0.00  0.00     0.027 H 
ATOM     15  H2  <0> d          -5.873  -0.808  -4.710  0.00  0.00     0.027 H 
ATOM     16  H3  <0> d          -7.432  -0.763  -3.853  0.00  0.00     0.027 H 
ENDBRANCH  10  13
ENDBRANCH   7  10
ENDBRANCH   4   7
ENDBRANCH   1   4
BRANCH   1  17
ATOM     17  C6  <0> d          -1.433  -0.534   0.013  0.00  0.00    -0.037 C 
ATOM     18  H12 <0> d          -1.419  -1.620   0.097  0.00  0.00     0.037 H 
ATOM     19  H13 <0> d          -1.970  -0.111   0.862  0.00  0.00     0.037 H 
BRANCH  17  20
ATOM     20  C7  <0> d           0.002  -0.004   0.002  0.00  0.00     0.051 C 
BRANCH  20  21
ATOM     21  C8  <0> d           0.718  -0.497  -1.257  0.00  0.00    -0.048 C 
ATOM     22  H14 <0> d           1.741  -0.120  -1.264  0.00  0.00     0.031 H 
ATOM     23  H15 <0> d           0.733  -1.587  -1.263  0.00  0.00     0.031 H 
ATOM     24  H16 <0> d           0.191  -0.136  -2.140  0.00  0.00     0.031 H 
ENDBRANCH  20  21
BRANCH  20  25
ATOM     25  C9  <0> d           0.742  -0.511   1.242  0.00  0.00    -0.048 C 
ATOM     26  H17 <0> d           0.232  -0.159   2.138  0.00  0.00     0.031 H 
ATOM     27  H18 <0> d           0.757  -1.601   1.236  0.00  0.00     0.031 H 
ATOM     28  H19 <0> d           1.765  -0.134   1.234  0.00  0.00     0.031 H 
ENDBRANCH  20  25
BRANCH  20  29
ATOM     29  O1  <0> d          -0.017   1.425   0.010  0.00  0.00    -0.391 OA
ATOM     30  H20 <0> d           0.861   1.830   0.004  0.00  0.00     0.210 HD
ENDBRANCH  20  29
ENDBRANCH  17  20
ENDBRANCH   1  17
TORSDOF 9
