REMARK  2 active torsions:
REMARK  status: ('A' for Active; 'I' for Inactive)
REMARK    1  A    between atoms: C4_5  and  C8_13 
REMARK    2  A    between atoms: C6_9  and  O1_12 
ROOT
ATOM      1  C1  <0> d           1.810   1.596   1.496  0.00  0.00    -0.055 C 
ATOM      2  C2  <0> d           0.584   2.461   1.955  0.00  0.00    -0.051 C 
ATOM      3  H1  <0> d           0.514   2.670   3.023  0.00  0.00     0.040 H 
ATOM      4  C3  <0> d          -0.591   1.653   1.325  0.00  0.00    -0.049 C 
ATOM      5  C4  <0> d          -0.013   1.086   0.008  0.00  0.00     0.037 C 
ATOM      6  H2  <0> d          -0.031  -0.004   0.024  0.00  0.00     0.057 H 
ATOM      7  C5  <0> d           1.457   1.605  -0.033  0.00  0.00    -0.016 C 
ATOM      8  H3  <0> d           2.137   1.059  -0.688  0.00  0.00     0.045 H 
ATOM      9  C6  <0> d           1.323   3.137  -0.289  0.00  0.00     0.040 C 
ATOM     10  H4  <0> d           0.640   3.325  -1.117  0.00  0.00     0.083 H 
ATOM     11  C7  <0> d           0.745   3.704   1.027  0.00  0.00    -0.037 C 
ATOM     12  H5  <0> d           1.782   0.591   1.917  0.00  0.00     0.034 H 
ATOM     13  H6  <0> d           2.760   2.092   1.699  0.00  0.00     0.034 H 
ATOM     14  H7  <0> d          -1.435   2.310   1.117  0.00  0.00     0.034 H 
ATOM     15  H8  <0> d          -0.893   0.842   1.987  0.00  0.00     0.034 H 
ATOM     16  H9  <0> d          -0.223   4.172   0.847  0.00  0.00     0.037 H 
ATOM     17  H10 <0> d           1.436   4.422   1.470  0.00  0.00     0.037 H 
ENDROOT
BRANCH   5  18
ATOM     18  C8  <0> d          -0.787   1.606  -1.176  0.00  0.00     0.177 C 
ATOM     19  O2  <0> d          -1.483   2.587  -1.058  0.00  0.00    -0.648 OA
ATOM     20  O3  <0> d          -0.702   0.981  -2.360  0.00  0.00    -0.648 OA
ENDBRANCH   5  18
BRANCH   9  21
ATOM     21  O1  <0> d           2.604   3.711  -0.559  0.00  0.00    -0.395 OA
ATOM     22  H11 <0> d           2.581   4.663  -0.726  0.00  0.00     0.210 HD
ENDBRANCH   9  21
TORSDOF 2
