REMARK  1 active torsions:
REMARK  status: ('A' for Active; 'I' for Inactive)
REMARK    1  A    between atoms: C3_4  and  C6_8 
ROOT
ATOM      1  C1  <0> d           1.162   2.039   0.002  0.00  0.00    -0.029 A 
ATOM      2  C2  <0> d          -0.016   1.311   0.009  0.00  0.00     0.006 A 
ATOM      3  N1  <0> d           0.002  -0.004   0.002  0.00  0.00    -0.254 NA
ATOM      4  C3  <0> d           1.141  -0.687  -0.013  0.00  0.00     0.135 A 
ATOM      5  C4  <0> d           2.365  -0.022  -0.020  0.00  0.00    -0.011 A 
ATOM      6  C5  <0> d           2.377   1.367  -0.013  0.00  0.00     0.120 A 
ATOM      7  F1  <0> d           3.544   2.048  -0.019  0.00  0.00    -0.206 F 
ATOM      8  H1  <0> d           1.136   3.119   0.008  0.00  0.00     0.090 H 
ATOM      9  H2  <0> d          -0.963   1.831   0.017  0.00  0.00     0.114 H 
ATOM     10  H3  <0> d           3.290  -0.579  -0.032  0.00  0.00     0.092 H 
ENDROOT
BRANCH   4  11
ATOM     11  C6  <0> d           1.110  -2.167  -0.020  0.00  0.00     0.229 C 
ATOM     12  O1  <0> d           2.148  -2.796  -0.033  0.00  0.00    -0.643 OA
ATOM     13  O2  <0> d          -0.070  -2.816  -0.012  0.00  0.00    -0.643 OA
ENDBRANCH   4  11
TORSDOF 1
