REMARK  2 active torsions:
REMARK  status: ('A' for Active; 'I' for Inactive)
REMARK    1  A    between atoms: C2_2  and  C3_3 
REMARK    2  A    between atoms: C7_7  and  O1_9 
ROOT
ATOM      1  C3  <0> d           3.106   2.413  -1.210  0.00  0.00    -0.034 A 
ATOM      2  C4  <0> d           3.743   2.696  -0.001  0.00  0.00    -0.073 A 
ATOM      3  C5  <0> d           3.120   2.396   1.193  0.00  0.00    -0.080 A 
ATOM      4  C6  <0> d           1.862   1.822   1.196  0.00  0.00    -0.051 A 
ATOM      5  C7  <0> d           1.223   1.532  -0.001  0.00  0.00     0.066 A 
ATOM      6  C8  <0> d           1.840   1.829  -1.205  0.00  0.00    -0.041 A 
ATOM      7  H4  <0> d           4.723   3.149   0.001  0.00  0.00     0.084 H 
ATOM      8  H5  <0> d           3.614   2.615   2.128  0.00  0.00     0.083 H 
ATOM      9  H6  <0> d           1.377   1.594   2.134  0.00  0.00     0.087 H 
ATOM     10  H7  <0> d           1.342   1.608  -2.138  0.00  0.00     0.089 H 
ENDROOT
BRANCH   1  11
ATOM     11  C2  <0> d           3.771   2.733  -2.491  0.00  0.00    -0.082 C 
ATOM     12  C1  <0> d           4.974   3.289  -2.492  0.00  0.00    -0.120 C 
ATOM     13  H1  <0> d           5.469   3.527  -3.446  0.00  0.00     0.066 H 
ATOM     14  H2  <0> d           5.478   3.512  -1.540  0.00  0.00     0.066 H 
ATOM     15  H3  <0> d           3.266   2.510  -3.443  0.00  0.00     0.083 H 
ENDBRANCH   1  11
BRANCH   5  16
ATOM     16  O1  <0> d          -0.011   0.963   0.007  0.00  0.00    -0.361 OA
ATOM     17  H8  <0> d          -0.517   0.733  -0.942  0.00  0.00     0.217 HD
ENDBRANCH   5  16
TORSDOF 2
