REMARK  4 active torsions:
REMARK  status: ('A' for Active; 'I' for Inactive)
REMARK    1  A    between atoms: C1_1  and  N1_2 
REMARK    2  A    between atoms: C1_1  and  O3_8 
REMARK       I    between atoms: N1_2  and  C2_3 
REMARK       I    between atoms: C2_3  and  N2_5 
REMARK    3  A    between atoms: N2_5  and  C3_6 
REMARK    4  A    between atoms: C3_6  and  O2_7 
ROOT
ATOM      1  N1  <0> d          -0.011   0.966   0.007  0.00  0.00    -0.322 N 
ATOM      2  C2  <0> d           1.147   1.655  -0.000  0.00  0.00     0.319 C 
ATOM      3  O1  <0> d           1.130   2.871   0.007  0.00  0.00    -0.247 OA
ATOM      4  N2  <0> d           2.323   0.998  -0.015  0.00  0.00    -0.322 N 
ATOM      5  H3  <0> d           0.002  -0.004   0.002  0.00  0.00     0.166 HD
ATOM      6  H4  <0> d           2.336   0.028  -0.020  0.00  0.00     0.166 HD
ENDROOT
BRANCH   1   7
ATOM      7  C1  <0> d          -1.290   1.681   0.017  0.00  0.00     0.078 C 
ATOM      8  H1  <0> d          -2.015   1.121   0.607  0.00  0.00     0.106 H 
ATOM      9  H2  <0> d          -1.150   2.669   0.456  0.00  0.00     0.106 H 
BRANCH   7  10
ATOM     10  O3  <0> d          -1.769   1.818  -1.322  0.00  0.00    -0.382 OA
ATOM     11  H8  <0> d          -2.614   2.284  -1.391  0.00  0.00     0.211 HD
ENDBRANCH   7  10
ENDBRANCH   1   7
BRANCH   4  12
ATOM     12  C3  <0> d           3.582   1.747  -0.023  0.00  0.00     0.078 C 
ATOM     13  H5  <0> d           4.319   1.213  -0.622  0.00  0.00     0.106 H 
ATOM     14  H6  <0> d           3.413   2.736  -0.450  0.00  0.00     0.106 H 
BRANCH  12  15
ATOM     15  O2  <0> d           4.064   1.883   1.316  0.00  0.00    -0.382 OA
ATOM     16  H7  <0> d           4.896   2.370   1.386  0.00  0.00     0.211 HD
ENDBRANCH  12  15
ENDBRANCH   4  12
TORSDOF 4
