REMARK  2 active torsions:
REMARK  status: ('A' for Active; 'I' for Inactive)
REMARK    1  A    between atoms: C2_2  and  N1_3 
REMARK    2  A    between atoms: C3_4  and  N5_8 
ROOT
ATOM      1  N1  <0> d          -1.231   1.757   0.017  0.00  0.00    -0.053 N 
ATOM      2  C3  <0> d          -2.476   1.219   0.020  0.00  0.00     0.741 A 
ATOM      3  N2  <0> d          -3.329   2.220   0.031  0.00  0.00     0.065 NA
ATOM      4  N3  <0> d          -2.705   3.343   0.034  0.00  0.00    -0.008 NA
ATOM      5  N4  <0> d          -1.431   3.149   0.032  0.00  0.00    -0.026 NA
ENDROOT
BRANCH   1   6
ATOM      6  C2  <0> d          -0.013   1.076   0.008  0.00  0.00     0.015 C 
ATOM      7  C1  <0> d           1.120   1.750   0.001  0.00  0.00    -0.104 C 
ATOM      8  H1  <0> d           2.080   1.214  -0.007  0.00  0.00     0.068 H 
ATOM      9  H2  <0> d           1.105   2.850   0.002  0.00  0.00     0.068 H 
ATOM     10  H3  <0> d           0.002  -0.024   0.007  0.00  0.00     0.114 H 
ENDBRANCH   1   6
BRANCH   2  11
ATOM     11  N5  <0> d          -2.790  -0.128   0.014  0.00  0.00    -0.230 N 
ATOM     12  H4  <0> d          -3.842  -0.448   0.018  0.00  0.00     0.174 HD
ATOM     13  H5  <0> d          -1.987  -0.880   0.006  0.00  0.00     0.174 HD
ENDBRANCH   2  11
TORSDOF 2
