REMARK  3 active torsions:
REMARK  status: ('A' for Active; 'I' for Inactive)
REMARK    1  A    between atoms: C1_1  and  C2_2 
REMARK    2  A    between atoms: C2_2  and  N1_3 
REMARK    3  A    between atoms: C4_6  and  N4_8 
ROOT
ATOM      1  N1  <0> d          -0.698   1.558   1.213  0.00  0.00    -0.247 N 
ATOM      2  C3  <0> d          -1.160   0.803   2.224  0.00  0.00     0.102 A 
ATOM      3  N2  <0> d          -1.704   1.596   3.112  0.00  0.00    -0.055 NA
ATOM      4  C4  <0> d          -1.619   2.864   2.698  0.00  0.00     0.738 A 
ATOM      5  N3  <0> d          -1.008   2.889   1.537  0.00  0.00     0.021 NA
ATOM      6  H6  <0> d          -1.091  -0.273   2.293  0.00  0.00     0.147 H 
ENDROOT
BRANCH   1   7
ATOM      7  C2  <0> d          -0.013   1.086   0.008  0.00  0.00     0.015 C 
ATOM      8  H4  <0> d           0.002  -0.004   0.002  0.00  0.00     0.066 H 
ATOM      9  H5  <0> d           1.010   1.463   0.000  0.00  0.00     0.066 H 
BRANCH   7  10
ATOM     10  C1  <0> d          -0.753   1.593  -1.232  0.00  0.00    -0.059 C 
ATOM     11  H1  <0> d          -0.242   1.241  -2.128  0.00  0.00     0.029 H 
ATOM     12  H2  <0> d          -1.775   1.215  -1.224  0.00  0.00     0.029 H 
ATOM     13  H3  <0> d          -0.767   2.683  -1.226  0.00  0.00     0.029 H 
ENDBRANCH   7  10
ENDBRANCH   1   7
BRANCH   4  14
ATOM     14  N4  <0> d          -2.099   3.978   3.388  0.00  0.00    -0.230 N 
ATOM     15  H7  <0> d          -1.992   4.866   3.011  0.00  0.00     0.174 HD
ATOM     16  H8  <0> d          -2.539   3.866   4.245  0.00  0.00     0.174 HD
ENDBRANCH   4  14
TORSDOF 3
