REMARK  8 active torsions:
REMARK  status: ('A' for Active; 'I' for Inactive)
REMARK    1  A    between atoms: C1_1  and  C2_2 
REMARK       I    between atoms: C2_2  and  N1_4 
REMARK    2  A    between atoms: N1_4  and  C3_5 
REMARK    3  A    between atoms: C3_5  and  C4_7 
REMARK    4  A    between atoms: C3_5  and  C5_9 
REMARK    5  A    between atoms: C4_7  and  O2_8 
REMARK    6  A    between atoms: C5_9  and  C6_10 
REMARK    7  A    between atoms: C5_9  and  C7_11 
REMARK    8  A    between atoms: C5_9  and  C8_12 
ROOT
ATOM      1  C3  <0> d          -0.766   1.698   1.338  0.00  0.00     0.038 C 
ATOM      2  H1  <0> d          -0.401   1.359   2.308  0.00  0.00     0.076 H 
ENDROOT
BRANCH   1   3
ATOM      3  N1  <0> d          -0.680   3.159   1.268  0.00  0.00    -0.354 N 
ATOM      4  C2  <0> d           0.338   3.804   1.871  0.00  0.00     0.214 C 
ATOM      5  O1  <0> d           1.183   3.175   2.473  0.00  0.00    -0.274 OA
ATOM      6  H5  <0> d          -1.355   3.662   0.787  0.00  0.00     0.162 HD
BRANCH   4   7
ATOM      7  C1  <0> d           0.427   5.307   1.799  0.00  0.00    -0.003 C 
ATOM      8  H2  <0> d          -0.465   5.745   2.247  0.00  0.00     0.040 H 
ATOM      9  H3  <0> d           1.310   5.645   2.341  0.00  0.00     0.040 H 
ATOM     10  H4  <0> d           0.500   5.617   0.756  0.00  0.00     0.040 H 
ENDBRANCH   4   7
ENDBRANCH   1   3
BRANCH   1  11
ATOM     11  C4  <0> d           0.089   1.083   0.228  0.00  0.00     0.036 C 
ATOM     12  H6  <0> d           0.050  -0.004   0.300  0.00  0.00     0.077 H 
ATOM     13  H7  <0> d           1.120   1.418   0.336  0.00  0.00     0.077 H 
BRANCH  11  14
ATOM     14  O2  <0> d          -0.415   1.494  -1.044  0.00  0.00    -0.399 OA
ATOM     15  H8  <0> d           0.080   1.141  -1.796  0.00  0.00     0.209 HD
ENDBRANCH  11  14
ENDBRANCH   1  11
BRANCH   1  16
ATOM     16  C5  <0> d          -2.222   1.264   1.161  0.00  0.00    -0.029 C 
BRANCH  16  17
ATOM     17  C6  <0> d          -2.294  -0.262   1.087  0.00  0.00    -0.068 C 
ATOM     18  H9  <0> d          -1.898  -0.689   2.009  0.00  0.00     0.028 H 
ATOM     19  H10 <0> d          -3.332  -0.571   0.961  0.00  0.00     0.028 H 
ATOM     20  H11 <0> d          -1.704  -0.614   0.241  0.00  0.00     0.028 H 
ENDBRANCH  16  17
BRANCH  16  21
ATOM     21  C7  <0> d          -3.050   1.758   2.349  0.00  0.00    -0.068 C 
ATOM     22  H12 <0> d          -2.999   2.845   2.401  0.00  0.00     0.028 H 
ATOM     23  H13 <0> d          -4.088   1.448   2.222  0.00  0.00     0.028 H 
ATOM     24  H14 <0> d          -2.654   1.331   3.270  0.00  0.00     0.028 H 
ENDBRANCH  16  21
BRANCH  16  25
ATOM     25  C8  <0> d          -2.779   1.863  -0.133  0.00  0.00    -0.068 C 
ATOM     26  H15 <0> d          -2.319   1.371  -0.989  0.00  0.00     0.028 H 
ATOM     27  H16 <0> d          -3.859   1.717  -0.166  0.00  0.00     0.028 H 
ATOM     28  H17 <0> d          -2.556   2.930  -0.164  0.00  0.00     0.028 H 
ENDBRANCH  16  25
ENDBRANCH   1  16
TORSDOF 8
