REMARK  4 active torsions:
REMARK  status: ('A' for Active; 'I' for Inactive)
REMARK    1  A    between atoms: C1_1  and  C2_2 
REMARK    2  A    between atoms: C2_2  and  C3_3 
REMARK    3  A    between atoms: C2_2  and  C4_4 
REMARK    4  A    between atoms: C7_7  and  C10_10 
ROOT
ATOM      1  C10 <0> d           1.172   3.518   0.009  0.00  0.00    -0.078 C 
ATOM      2  C11 <0> d           1.162   4.692   0.015  0.00  0.00    -0.149 C 
ATOM      3  H12 <0> d           1.152   5.792   0.021  0.00  0.00     0.166 H 
ENDROOT
BRANCH   1   4
ATOM      4  C7  <0> d           1.184   2.087   0.002  0.00  0.00     0.017 A 
ATOM      5  C6  <0> d          -0.017   1.375   0.010  0.00  0.00    -0.064 A 
ATOM      6  C5  <0> d           0.002  -0.004   0.002  0.00  0.00    -0.075 A 
ATOM      7  H9  <0> d          -0.959   1.904   0.017  0.00  0.00     0.085 H 
ATOM      8  C4  <0> d           1.208  -0.682  -0.013  0.00  0.00    -0.055 A 
ATOM      9  H8  <0> d          -0.926  -0.556   0.008  0.00  0.00     0.084 H 
ATOM     10  C9  <0> d           2.401   0.017  -0.021  0.00  0.00    -0.075 A 
ATOM     11  C8  <0> d           2.397   1.396  -0.013  0.00  0.00    -0.064 A 
ATOM     12  H11 <0> d           3.339  -0.519  -0.032  0.00  0.00     0.084 H 
ATOM     13  H10 <0> d           3.329   1.941  -0.020  0.00  0.00     0.085 H 
BRANCH   8  14
ATOM     14  C2  <0> d           1.221  -2.189  -0.021  0.00  0.00    -0.036 C 
ATOM     15  H4  <0> d           0.181  -2.550  -0.013  0.00  0.00     0.046 H 
BRANCH  14  16
ATOM     16  C1  <0> d           1.934  -2.687  -1.280  0.00  0.00    -0.069 C 
ATOM     17  H1  <0> d           1.404  -2.320  -2.171  0.00  0.00     0.028 H 
ATOM     18  H2  <0> d           1.943  -3.787  -1.285  0.00  0.00     0.028 H 
ATOM     19  H3  <0> d           2.968  -2.311  -1.288  0.00  0.00     0.028 H 
ENDBRANCH  14  16
BRANCH  14  20
ATOM     20  C3  <0> d           1.958  -2.699   1.219  0.00  0.00    -0.069 C 
ATOM     21  H5  <0> d           1.446  -2.342   2.124  0.00  0.00     0.028 H 
ATOM     22  H6  <0> d           2.992  -2.324   1.210  0.00  0.00     0.028 H 
ATOM     23  H7  <0> d           1.968  -3.799   1.213  0.00  0.00     0.028 H 
ENDBRANCH  14  20
ENDBRANCH   8  14
ENDBRANCH   1   4
TORSDOF 4
