REMARK  2 active torsions:
REMARK  status: ('A' for Active; 'I' for Inactive)
REMARK    1  A    between atoms: C1_1  and  C2_2 
REMARK    2  A    between atoms: C2_2  and  C3_4 
ROOT
ATOM      1  C3  <0> d          -0.000  -0.750  -1.307  0.00  0.00     0.109 A 
ATOM      2  C4  <0> d          -1.257  -1.547  -1.664  0.00  0.00    -0.037 A 
ATOM      3  C5  <0> d           0.021  -2.279  -1.249  0.00  0.00    -0.037 A 
ATOM      4  C6  <0> d           0.730  -0.102  -2.409  0.00  0.00     0.077 C 
ATOM      5  N1  <0> d           1.293   0.398  -3.259  0.00  0.00    -0.196 NA
ATOM      6  H4  <0> d          -2.082  -1.532  -0.952  0.00  0.00     0.036 H 
ATOM      7  H5  <0> d          -1.543  -1.591  -2.715  0.00  0.00     0.036 H 
ATOM      8  H6  <0> d           0.575  -2.805  -2.026  0.00  0.00     0.036 H 
ATOM      9  H7  <0> d           0.037  -2.745  -0.264  0.00  0.00     0.036 H 
ENDROOT
BRANCH   1  10
ATOM     10  C2  <0> d           0.002  -0.004   0.002  0.00  0.00     0.145 C 
ATOM     11  O1  <0> d           0.020  -0.613   1.044  0.00  0.00    -0.296 OA
BRANCH  10  12
ATOM     12  C1  <0> d          -0.018   1.503   0.010  0.00  0.00    -0.019 C 
ATOM     13  H1  <0> d           1.004   1.880   0.003  0.00  0.00     0.037 H 
ATOM     14  H2  <0> d          -0.545   1.864  -0.873  0.00  0.00     0.037 H 
ATOM     15  H3  <0> d          -0.529   1.854   0.907  0.00  0.00     0.037 H 
ENDBRANCH  10  12
ENDBRANCH   1  10
TORSDOF 2
