REMARK  8 active torsions:
REMARK  status: ('A' for Active; 'I' for Inactive)
REMARK    1  A    between atoms: C1_1  and  C2_2 
REMARK    2  A    between atoms: C2_2  and  C3_3 
REMARK    3  A    between atoms: C3_3  and  C4_4 
REMARK    4  A    between atoms: C4_4  and  O1_5 
REMARK    5  A    between atoms: O1_5  and  C5_6 
REMARK    6  A    between atoms: C5_6  and  O2_7 
REMARK    7  A    between atoms: O2_7  and  C6_8 
REMARK    8  A    between atoms: C6_8  and  C7_10 
ROOT
ATOM      1  C4  <0> d          -1.413  -2.063   0.004  0.00  0.00     0.022 C 
ATOM      2  H8  <0> d          -0.902  -2.415  -0.892  0.00  0.00     0.074 H 
ATOM      3  H9  <0> d          -0.885  -2.425   0.887  0.00  0.00     0.074 H 
ENDROOT
BRANCH   1   4
ATOM      4  C3  <0> d          -1.433  -0.534   0.013  0.00  0.00    -0.045 C 
ATOM      5  H6  <0> d          -1.944  -0.182   0.910  0.00  0.00     0.036 H 
ATOM      6  H7  <0> d          -1.960  -0.173  -0.870  0.00  0.00     0.036 H 
BRANCH   4   7
ATOM      7  C2  <0> d           0.002  -0.004   0.002  0.00  0.00    -0.067 C 
ATOM      8  H4  <0> d           0.512  -0.356  -0.895  0.00  0.00     0.032 H 
ATOM      9  H5  <0> d           0.529  -0.365   0.885  0.00  0.00     0.032 H 
BRANCH   7  10
ATOM     10  C1  <0> d          -0.019   1.526   0.010  0.00  0.00    -0.076 C 
ATOM     11  H1  <0> d           1.004   1.903   0.003  0.00  0.00     0.027 H 
ATOM     12  H2  <0> d          -0.546   1.887  -0.873  0.00  0.00     0.027 H 
ATOM     13  H3  <0> d          -0.529   1.877   0.907  0.00  0.00     0.027 H 
ENDBRANCH   7  10
ENDBRANCH   4   7
ENDBRANCH   1   4
BRANCH   1  14
ATOM     14  O1  <0> d          -2.753  -2.558   0.015  0.00  0.00    -0.366 OA
BRANCH  14  15
ATOM     15  C5  <0> d          -2.847  -3.984   0.008  0.00  0.00     0.111 C 
ATOM     16  H10 <0> d          -3.864  -4.280  -0.250  0.00  0.00     0.118 H 
ATOM     17  H11 <0> d          -2.152  -4.390  -0.728  0.00  0.00     0.118 H 
BRANCH  15  18
ATOM     18  O2  <0> d          -2.518  -4.489   1.303  0.00  0.00    -0.296 OA
BRANCH  18  19
ATOM     19  C6  <0> d          -3.441  -4.344   2.267  0.00  0.00     0.256 C 
ATOM     20  O3  <0> d          -4.494  -3.806   2.018  0.00  0.00    -0.266 OA
BRANCH  19  21
ATOM     21  C7  <0> d          -3.164  -4.852   3.658  0.00  0.00     0.004 C 
ATOM     22  H12 <0> d          -2.172  -5.303   3.690  0.00  0.00     0.041 H 
ATOM     23  H13 <0> d          -3.209  -4.023   4.364  0.00  0.00     0.041 H 
ATOM     24  H14 <0> d          -3.912  -5.599   3.928  0.00  0.00     0.041 H 
ENDBRANCH  19  21
ENDBRANCH  18  19
ENDBRANCH  15  18
ENDBRANCH  14  15
ENDBRANCH   1  14
TORSDOF 8
