REMARK  2 active torsions:
REMARK  status: ('A' for Active; 'I' for Inactive)
REMARK    1  A    between atoms: C1_1  and  N1_2 
REMARK    2  A    between atoms: N1_2  and  C2_3 
ROOT
ATOM      1  C2  <0> d          -0.050   3.843   0.023  0.00  0.00     0.029 A 
ATOM      2  C3  <0> d           1.161   3.163   0.008  0.00  0.00    -0.058 A 
ATOM      3  C4  <0> d           1.176   1.782   0.000  0.00  0.00    -0.079 A 
ATOM      4  C5  <0> d          -0.013   1.076   0.008  0.00  0.00    -0.062 A 
ATOM      5  C6  <0> d          -1.221   1.750   0.017  0.00  0.00     0.036 A 
ATOM      6  C7  <0> d          -1.243   3.132   0.031  0.00  0.00    -0.037 A 
ATOM      7 Cl1  <0> d          -2.711   0.859   0.019  0.00  0.00    -0.084 Cl
ATOM      8  H5  <0> d           2.091   3.713   0.002  0.00  0.00     0.086 H 
ATOM      9  H6  <0> d           2.118   1.253  -0.012  0.00  0.00     0.083 H 
ATOM     10  H7  <0> d           0.002  -0.004   0.002  0.00  0.00     0.086 H 
ATOM     11  H8  <0> d          -2.186   3.658   0.043  0.00  0.00     0.089 H 
ENDROOT
BRANCH   1  12
ATOM     12  N1  <0> d          -0.068   5.240   0.031  0.00  0.00    -0.394 N 
ATOM     13  H4  <0> d           0.766   5.736   0.026  0.00  0.00     0.159 HD
BRANCH  12  14
ATOM     14  C1  <0> d          -1.346   5.956   0.047  0.00  0.00    -0.021 C 
ATOM     15  H1  <0> d          -1.922   5.690  -0.839  0.00  0.00     0.056 H 
ATOM     16  H2  <0> d          -1.906   5.680   0.941  0.00  0.00     0.056 H 
ATOM     17  H3  <0> d          -1.161   7.030   0.052  0.00  0.00     0.056 H 
ENDBRANCH  12  14
ENDBRANCH   1  12
TORSDOF 2
