REMARK  2 active torsions:
REMARK  status: ('A' for Active; 'I' for Inactive)
REMARK    1  A    between atoms: C2_2  and  C3_3 
REMARK    2  A    between atoms: C3_3  and  C4_4 
ROOT
ATOM      1  C4  <0> d          -1.318  -1.726  -1.159  0.00  0.00    -0.052 A 
ATOM      2  C5  <0> d          -1.833  -1.313  -2.373  0.00  0.00    -0.073 A 
ATOM      3  C6  <0> d          -1.858  -2.184  -3.447  0.00  0.00    -0.042 A 
ATOM      4  C7  <0> d          -1.366  -3.470  -3.306  0.00  0.00     0.154 A 
ATOM      5  C8  <0> d          -0.849  -3.884  -2.088  0.00  0.00     0.155 A 
ATOM      6  C9  <0> d          -0.822  -3.008  -1.016  0.00  0.00    -0.036 A 
ATOM      7  F1  <0> d          -0.369  -5.139  -1.949  0.00  0.00    -0.203 F 
ATOM      8  F2  <0> d          -1.391  -4.322  -4.355  0.00  0.00    -0.203 F 
ATOM      9  H6  <0> d          -2.217  -0.310  -2.484  0.00  0.00     0.084 H 
ATOM     10  H7  <0> d          -2.261  -1.861  -4.395  0.00  0.00     0.088 H 
ATOM     11  H8  <0> d          -0.416  -3.328  -0.068  0.00  0.00     0.089 H 
ENDROOT
BRANCH   1  12
ATOM     12  C3  <0> d          -1.293  -0.775   0.010  0.00  0.00    -0.026 C 
ATOM     13  H4  <0> d          -1.374  -1.339   0.939  0.00  0.00     0.045 H 
ATOM     14  H5  <0> d          -2.130  -0.081  -0.068  0.00  0.00     0.045 H 
BRANCH  12  15
ATOM     15  C2  <0> d           0.002  -0.004   0.002  0.00  0.00    -0.108 C 
ATOM     16  C1  <0> d          -0.016   1.306   0.009  0.00  0.00    -0.124 C 
ATOM     17  H1  <0> d           0.912   1.859   0.003  0.00  0.00     0.066 H 
ATOM     18  H2  <0> d          -0.958   1.833   0.017  0.00  0.00     0.066 H 
ATOM     19  H3  <0> d           0.945  -0.531  -0.010  0.00  0.00     0.076 H 
ENDBRANCH  12  15
ENDBRANCH   1  12
TORSDOF 2
