REMARK  4 active torsions:
REMARK  status: ('A' for Active; 'I' for Inactive)
REMARK    1  A    between atoms: C2_2  and  C3_3 
REMARK    2  A    between atoms: C3_3  and  N1_4 
REMARK    3  A    between atoms: N1_4  and  C4_5 
REMARK    4  A    between atoms: C4_5  and  C5_6 
ROOT
ATOM      1  C1  <0> d          -0.146   8.141  -3.895  0.00  0.00    -0.152 C 
ATOM      2  C2  <0> d          -0.130   7.774  -2.780  0.00  0.00    -0.087 C 
ATOM      3  H1  <0> d          -0.160   8.486  -4.939  0.00  0.00     0.166 H 
ENDROOT
BRANCH   2   4
ATOM      4  C3  <0> d          -0.111   7.313  -1.382  0.00  0.00     0.165 C 
ATOM      5  H2  <0> d           0.787   7.702  -0.880  0.00  0.00     0.099 H 
ATOM      6  H3  <0> d          -1.009   7.678  -0.863  0.00  0.00     0.099 H 
BRANCH   4   7
ATOM      7  N1  <0> d          -0.090   5.844  -1.351  0.00  0.00     0.098 N 
ATOM      8  H4  <0> d          -0.988   5.454  -1.853  0.00  0.00     0.317 HD
BRANCH   7   9
ATOM      9  C4  <0> d          -0.070   5.347   0.031  0.00  0.00     0.136 C 
ATOM     10  H5  <0> d           0.828   5.723   0.543  0.00  0.00     0.086 H 
ATOM     11  H6  <0> d          -0.969   5.699   0.560  0.00  0.00     0.086 H 
BRANCH   9  12
ATOM     12  C5  <0> d          -0.050   3.840   0.023  0.00  0.00    -0.030 A 
ATOM     13  C10 <0> d          -1.238   3.133   0.030  0.00  0.00    -0.075 A 
ATOM     14  C9  <0> d          -1.219   1.751   0.017  0.00  0.00    -0.082 A 
ATOM     15  H11 <0> d          -2.180   3.660   0.041  0.00  0.00     0.084 H 
ATOM     16  C8  <0> d          -0.013   1.076   0.008  0.00  0.00    -0.083 A 
ATOM     17  H10 <0> d          -2.147   1.198   0.019  0.00  0.00     0.083 H 
ATOM     18  C7  <0> d           1.175   1.783   0.000  0.00  0.00    -0.082 A 
ATOM     19  H9  <0> d           0.002  -0.004   0.002  0.00  0.00     0.083 H 
ATOM     20  C6  <0> d           1.156   3.165   0.008  0.00  0.00    -0.075 A 
ATOM     21  H8  <0> d           2.118   1.256  -0.011  0.00  0.00     0.083 H 
ATOM     22  H7  <0> d           2.084   3.718   0.002  0.00  0.00     0.084 H 
ENDBRANCH   9  12
ENDBRANCH   7   9
ENDBRANCH   4   7
ENDBRANCH   2   4
TORSDOF 4
