REMARK  4 active torsions:
REMARK  status: ('A' for Active; 'I' for Inactive)
REMARK    1  A    between atoms: C1_1  and  C2_2 
REMARK    2  A    between atoms: C2_2  and  C3_3 
REMARK    3  A    between atoms: C3_3  and  C4_4 
REMARK    4  A    between atoms: C4_4  and  C5_5 
ROOT
ATOM      1  C2  <0> d           0.002  -0.004   0.002  0.00  0.00     0.015 C 
ATOM      2  H4  <0> d          -0.466  -0.546  -0.806  0.00  0.00     0.061 H 
ENDROOT
BRANCH   1   3
ATOM      3  C1  <0> d          -0.018   1.503   0.010  0.00  0.00    -0.061 C 
ATOM      4  H1  <0> d           1.004   1.880   0.003  0.00  0.00     0.029 H 
ATOM      5  H2  <0> d          -0.545   1.864  -0.873  0.00  0.00     0.029 H 
ATOM      6  H3  <0> d          -0.529   1.854   0.907  0.00  0.00     0.029 H 
ENDBRANCH   1   3
BRANCH   1   7
ATOM      7  C3  <0> d           0.586  -0.655   0.973  0.00  0.00    -0.101 C 
BRANCH   7   8
ATOM      8  C4  <0> d           1.170  -1.306   1.944  0.00  0.00    -0.105 C 
BRANCH   8   9
ATOM      9  C5  <0> d           1.754  -1.957   2.916  0.00  0.00     0.000 C 
ATOM     10  H5  <0> d           1.769  -3.037   2.910  0.00  0.00     0.053 H 
ATOM     11  H6  <0> d           2.222  -1.415   3.724  0.00  0.00     0.053 H 
ENDBRANCH   8   9
ENDBRANCH   7   8
ENDBRANCH   1   7
TORSDOF 4
