REMARK  5 active torsions:
REMARK  status: ('A' for Active; 'I' for Inactive)
REMARK    1  A    between atoms: C2_2  and  C3_3 
REMARK    2  A    between atoms: C3_3  and  C4_4 
REMARK    3  A    between atoms: C4_4  and  C5_5 
REMARK    4  A    between atoms: C5_5  and  S1_6 
REMARK    5  A    between atoms: S1_6  and  N1_9 
ROOT
ATOM      1  C4  <0> d          -1.319  -1.741  -1.176  0.00  0.00    -0.048 C 
ATOM      2  H6  <0> d          -1.238  -1.177  -2.106  0.00  0.00     0.034 H 
ATOM      3  H7  <0> d          -0.482  -2.435  -1.099  0.00  0.00     0.034 H 
ENDROOT
BRANCH   1   4
ATOM      4  C3  <0> d          -1.293  -0.775   0.010  0.00  0.00    -0.050 C 
ATOM      5  H4  <0> d          -1.374  -1.339   0.939  0.00  0.00     0.038 H 
ATOM      6  H5  <0> d          -2.130  -0.081  -0.068  0.00  0.00     0.038 H 
BRANCH   4   7
ATOM      7  C2  <0> d           0.002  -0.004   0.002  0.00  0.00    -0.112 C 
ATOM      8  C1  <0> d          -0.016   1.306   0.009  0.00  0.00    -0.125 C 
ATOM      9  H1  <0> d           0.912   1.859   0.003  0.00  0.00     0.066 H 
ATOM     10  H2  <0> d          -0.958   1.833   0.017  0.00  0.00     0.066 H 
ATOM     11  H3  <0> d           0.945  -0.531  -0.010  0.00  0.00     0.075 H 
ENDBRANCH   4   7
ENDBRANCH   1   4
BRANCH   1  12
ATOM     12  C5  <0> d          -2.633  -2.524  -1.168  0.00  0.00     0.046 C 
ATOM     13  H8  <0> d          -2.714  -3.088  -0.239  0.00  0.00     0.058 H 
ATOM     14  H9  <0> d          -3.470  -1.830  -1.246  0.00  0.00     0.058 H 
BRANCH  12  15
ATOM     15  S1  <0> d          -2.664  -3.668  -2.575  0.00  0.00     0.224 S 
ATOM     16  O1  <0> d          -2.739  -2.943  -3.795  0.00  0.00    -0.206 OA
ATOM     17  O2  <0> d          -1.691  -4.688  -2.397  0.00  0.00    -0.206 OA
BRANCH  15  18
ATOM     18  N1  <0> d          -4.120  -4.449  -2.457  0.00  0.00    -0.328 N 
ATOM     19  H10 <0> d          -4.567  -4.764  -3.258  0.00  0.00     0.168 HD
ATOM     20  H11 <0> d          -4.525  -4.590  -1.587  0.00  0.00     0.168 HD
ENDBRANCH  15  18
ENDBRANCH  12  15
ENDBRANCH   1  12
TORSDOF 5
