REMARK  4 active torsions:
REMARK  status: ('A' for Active; 'I' for Inactive)
REMARK    1  A    between atoms: C1_1  and  C2_2 
REMARK    2  A    between atoms: C2_2  and  C3_3 
REMARK    3  A    between atoms: C2_2  and  C4_4 
REMARK    4  A    between atoms: C7_8  and  N3_10 
ROOT
ATOM      1  C4  <0> d           0.707  -0.490  -1.238  0.00  0.00     0.131 A 
ATOM      2  N1  <0> d           0.229  -0.156  -2.420  0.00  0.00    -0.245 NA
ATOM      3  C5  <0> d           0.819  -0.562  -3.535  0.00  0.00     0.008 A 
ATOM      4  C6  <0> d           1.953  -1.347  -3.450  0.00  0.00    -0.022 A 
ATOM      5  C7  <0> d           2.433  -1.682  -2.183  0.00  0.00     0.124 A 
ATOM      6  N2  <0> d           1.788  -1.232  -1.110  0.00  0.00    -0.216 NA
ATOM      7  H8  <0> d           0.418  -0.283  -4.498  0.00  0.00     0.115 H 
ATOM      8  H9  <0> d           2.454  -1.692  -4.342  0.00  0.00     0.091 H 
ENDROOT
BRANCH   1   9
ATOM      9  C2  <0> d           0.002  -0.004   0.002  0.00  0.00    -0.001 C 
ATOM     10  H4  <0> d           0.529  -0.365   0.885  0.00  0.00     0.051 H 
BRANCH   9  11
ATOM     11  C1  <0> d          -0.019   1.526   0.010  0.00  0.00    -0.066 C 
ATOM     12  H1  <0> d           1.004   1.903   0.003  0.00  0.00     0.028 H 
ATOM     13  H2  <0> d          -0.546   1.887  -0.873  0.00  0.00     0.028 H 
ATOM     14  H3  <0> d          -0.529   1.877   0.907  0.00  0.00     0.028 H 
ENDBRANCH   9  11
BRANCH   9  15
ATOM     15  C3  <0> d          -1.433  -0.534   0.013  0.00  0.00    -0.066 C 
ATOM     16  H5  <0> d          -1.960  -0.173  -0.870  0.00  0.00     0.028 H 
ATOM     17  H6  <0> d          -1.419  -1.623   0.007  0.00  0.00     0.028 H 
ATOM     18  H7  <0> d          -1.944  -0.182   0.910  0.00  0.00     0.028 H 
ENDBRANCH   9  15
ENDBRANCH   1   9
BRANCH   5  19
ATOM     19  N3  <0> d           3.566  -2.467  -2.045  0.00  0.00    -0.384 N 
ATOM     20  H10 <0> d           4.032  -2.789  -2.833  0.00  0.00     0.157 HD
ATOM     21  H11 <0> d           3.893  -2.696  -1.161  0.00  0.00     0.157 HD
ENDBRANCH   5  19
TORSDOF 4
