REMARK  3 active torsions:
REMARK  status: ('A' for Active; 'I' for Inactive)
REMARK    1  A    between atoms: C1_1  and  O1_2 
REMARK    2  A    between atoms: O1_2  and  C2_3 
REMARK    3  A    between atoms: C2_3  and  C3_5 
ROOT
ATOM      1  C3  <0> d           0.659  -2.079  -1.122  0.00  0.00     0.112 A 
ATOM      2  C4  <0> d           0.101  -2.829  -0.133  0.00  0.00    -0.003 A 
ATOM      3  C5  <0> d           0.166  -4.245  -0.221  0.00  0.00     0.175 A 
ATOM      4  O3  <0> d          -0.325  -4.947   0.650  0.00  0.00    -0.288 OA
ATOM      5  C6  <0> d           0.809  -4.824  -1.337  0.00  0.00    -0.020 A 
ATOM      6  C7  <0> d           1.344  -4.022  -2.288  0.00  0.00    -0.019 A 
ATOM      7  N1  <0> d           1.266  -2.681  -2.187  0.00  0.00    -0.361 N 
ATOM      8  H1  <0> d           1.654  -2.130  -2.885  0.00  0.00     0.165 HD
ATOM      9  H5  <0> d          -0.383  -2.354   0.708  0.00  0.00     0.093 H 
ATOM     10  H6  <0> d           0.875  -5.898  -1.432  0.00  0.00     0.091 H 
ATOM     11  H7  <0> d           1.837  -4.464  -3.142  0.00  0.00     0.111 H 
ENDROOT
BRANCH   1  12
ATOM     12  C2  <0> d           0.600  -0.602  -1.046  0.00  0.00     0.309 C 
ATOM     13  O2  <0> d           1.092   0.071  -1.929  0.00  0.00    -0.258 OA
BRANCH  12  14
ATOM     14  O1  <0> d           0.002  -0.004   0.002  0.00  0.00    -0.321 OA
BRANCH  14  15
ATOM     15  C1  <0> d          -0.017   1.425   0.010  0.00  0.00     0.013 C 
ATOM     16  H2  <0> d           1.005   1.802   0.002  0.00  0.00     0.067 H 
ATOM     17  H3  <0> d          -0.544   1.786  -0.873  0.00  0.00     0.067 H 
ATOM     18  H4  <0> d          -0.527   1.776   0.907  0.00  0.00     0.067 H 
ENDBRANCH  14  15
ENDBRANCH  12  14
ENDBRANCH   1  12
TORSDOF 3
