REMARK  1 active torsions:
REMARK  status: ('A' for Active; 'I' for Inactive)
REMARK    1  A    between atoms: C5_6  and  O3_12 
ROOT
ATOM      1  C1  <0> d           1.312   2.791  -0.822  0.00  0.00     0.050 C 
ATOM      2  C2  <0> d          -0.174   2.958  -1.235  0.00  0.00     0.078 C 
ATOM      3  H1  <0> d          -0.304   3.427  -2.210  0.00  0.00     0.093 H 
ATOM      4  C3  <0> d          -0.837   3.725  -0.108  0.00  0.00    -0.075 C 
ATOM      5  C4  <0> d          -1.101   3.122   1.019  0.00  0.00    -0.072 C 
ATOM      6  C5  <0> d          -0.775   1.606   1.230  0.00  0.00     0.099 C 
ATOM      7  H2  <0> d          -1.692   1.030   1.356  0.00  0.00     0.097 H 
ATOM      8  C6  <0> d          -0.013   1.086   0.008  0.00  0.00     0.159 C 
ATOM      9  H3  <0> d           0.002  -0.004   0.002  0.00  0.00     0.133 H 
ATOM     10  O1  <0> d           1.323   1.607  -0.002  0.00  0.00    -0.355 OA
ATOM     11  O2  <0> d          -0.659   1.592  -1.182  0.00  0.00    -0.347 OA
ATOM     12  H4  <0> d           1.648   3.655  -0.248  0.00  0.00     0.079 H 
ATOM     13  H5  <0> d           1.941   2.651  -1.701  0.00  0.00     0.079 H 
ATOM     14  H6  <0> d          -1.090   4.767  -0.236  0.00  0.00     0.080 H 
ATOM     15  H7  <0> d          -1.562   3.683   1.818  0.00  0.00     0.080 H 
ENDROOT
BRANCH   6  16
ATOM     16  O3  <0> d           0.039   1.455   2.395  0.00  0.00    -0.387 OA
ATOM     17  H8  <0> d          -0.380   1.764   3.210  0.00  0.00     0.210 HD
ENDBRANCH   6  16
TORSDOF 1
