REMARK  0 active torsions:
REMARK  status: ('A' for Active; 'I' for Inactive)
ROOT
ATOM      1  C1  <0> d           2.371   1.397  -0.014  0.00  0.00    -0.078 A 
ATOM      2  C2  <0> d           2.358  -0.008  -0.021  0.00  0.00    -0.067 A 
ATOM      3  C3  <0> d           1.187  -0.679  -0.013  0.00  0.00    -0.012 A 
ATOM      4  N1  <0> d           0.002  -0.004   0.002  0.00  0.00    -0.298 N 
ATOM      5  C4  <0> d          -1.301  -0.394   0.013  0.00  0.00     0.093 A 
ATOM      6  N2  <0> d          -2.036   0.688   0.026  0.00  0.00    -0.143 NA
ATOM      7  N3  <0> d          -1.288   1.735   0.029  0.00  0.00    -0.131 NA
ATOM      8  C5  <0> d          -0.017   1.369   0.010  0.00  0.00     0.157 A 
ATOM      9  C6  <0> d           1.197   2.083   0.002  0.00  0.00    -0.036 A 
ATOM     10  H1  <0> d           3.311   1.930  -0.021  0.00  0.00     0.083 H 
ATOM     11  H2  <0> d           3.290  -0.554  -0.033  0.00  0.00     0.085 H 
ATOM     12  H3  <0> d           1.188  -1.759  -0.019  0.00  0.00     0.112 H 
ATOM     13  H4  <0> d          -1.663  -1.412   0.011  0.00  0.00     0.147 H 
ATOM     14  H5  <0> d           1.196   3.163   0.007  0.00  0.00     0.089 H 
ENDROOT
TORSDOF 0
