REMARK  3 active torsions:
REMARK  status: ('A' for Active; 'I' for Inactive)
REMARK    1  A    between atoms: C2_3  and  N4_9 
REMARK    2  A    between atoms: N3_5  and  C3_6 
REMARK    3  A    between atoms: C3_6  and  C4_7 
ROOT
ATOM      1  C1  <0> d          -3.437   0.901   0.905  0.00  0.00     0.102 A 
ATOM      2  N1  <0> d          -4.213  -0.096   0.562  0.00  0.00    -0.055 NA
ATOM      3  C2  <0> d          -3.734  -0.684  -0.538  0.00  0.00     0.738 A 
ATOM      4  N2  <0> d          -2.643  -0.058  -0.911  0.00  0.00     0.022 NA
ATOM      5  N3  <0> d          -2.430   0.973   0.019  0.00  0.00    -0.237 N 
ATOM      6  H1  <0> d          -3.582   1.553   1.754  0.00  0.00     0.147 H 
ENDROOT
BRANCH   5   7
ATOM      7  C3  <0> d          -1.329   1.940   0.019  0.00  0.00     0.098 C 
ATOM      8  H2  <0> d          -1.391   2.561   0.913  0.00  0.00     0.084 H 
ATOM      9  H3  <0> d          -1.400   2.570  -0.867  0.00  0.00     0.084 H 
BRANCH   7  10
ATOM     10  C4  <0> d          -0.014   1.204   0.009  0.00  0.00     0.193 C 
ATOM     11  O1  <0> d           0.002  -0.004   0.002  0.00  0.00    -0.647 OA
ATOM     12  O2  <0> d           1.139   1.891   0.001  0.00  0.00    -0.647 OA
ENDBRANCH   7  10
ENDBRANCH   5   7
BRANCH   3  13
ATOM     13  N4  <0> d          -4.304  -1.781  -1.187  0.00  0.00    -0.230 N 
ATOM     14  H4  <0> d          -5.118  -2.179  -0.842  0.00  0.00     0.174 HD
ATOM     15  H5  <0> d          -3.886  -2.145  -1.983  0.00  0.00     0.174 HD
ENDBRANCH   3  13
TORSDOF 3
