REMARK  1 active torsions:
REMARK  status: ('A' for Active; 'I' for Inactive)
REMARK    1  A    between atoms: C1_1  and  C2_2 
ROOT
ATOM      1  C2  <0> d          -0.019   1.546   0.011  0.00  0.00     0.146 A 
ATOM      2  C3  <0> d           0.002  -0.004   0.002  0.00  0.00     0.125 A 
ATOM      3  N1  <0> d           1.435  -0.332  -0.013  0.00  0.00    -0.318 N 
ATOM      4  C4  <0> d           2.149   0.800  -0.014  0.00  0.00     0.319 A 
ATOM      5  O1  <0> d           3.365   0.817  -0.026  0.00  0.00    -0.247 OA
ATOM      6  N2  <0> d           1.404   1.913  -0.001  0.00  0.00    -0.313 N 
ATOM      7  N3  <0> d          -0.589  -0.367   1.298  0.00  0.00    -0.318 N 
ATOM      8  C5  <0> d          -0.909   0.748   1.967  0.00  0.00     0.319 A 
ATOM      9  O2  <0> d          -1.417   0.735   3.072  0.00  0.00    -0.247 OA
ATOM     10  N4  <0> d          -0.605   1.878   1.317  0.00  0.00    -0.313 N 
ATOM     11  H4  <0> d          -0.538  -0.432  -0.843  0.00  0.00     0.114 H 
ATOM     12  H5  <0> d           1.804  -1.229  -0.021  0.00  0.00     0.166 HD
ATOM     13  H6  <0> d           1.750   2.819   0.000  0.00  0.00     0.167 HD
ATOM     14  H7  <0> d          -0.726  -1.272   1.618  0.00  0.00     0.166 HD
ATOM     15  H8  <0> d          -0.762   2.776   1.649  0.00  0.00     0.167 HD
ENDROOT
BRANCH   1  16
ATOM     16  C1  <0> d          -0.793   2.139  -1.168  0.00  0.00    -0.032 C 
ATOM     17  H1  <0> d          -1.826   1.794  -1.135  0.00  0.00     0.033 H 
ATOM     18  H2  <0> d          -0.771   3.227  -1.106  0.00  0.00     0.033 H 
ATOM     19  H3  <0> d          -0.332   1.819  -2.103  0.00  0.00     0.033 H 
ENDBRANCH   1  16
TORSDOF 1
