REMARK  4 active torsions:
REMARK  status: ('A' for Active; 'I' for Inactive)
REMARK    1  A    between atoms: C1_1  and  N1_2 
REMARK    2  A    between atoms: N1_2  and  C2_3 
REMARK    3  A    between atoms: N1_2  and  C3_4 
REMARK    4  A    between atoms: C3_4  and  N2_5 
ROOT
ATOM      1  C3  <0> d          -0.013   1.086   0.008  0.00  0.00     0.192 C 
ATOM      2  H7  <0> d           0.002  -0.014   0.002  0.00  0.00     0.115 H 
ATOM      3  H8  <0> d           1.019   1.466   0.000  0.00  0.00     0.115 H 
ENDROOT
BRANCH   1   4
ATOM      4  N1  <0> d          -0.723   1.572  -1.182  0.00  0.00     0.099 N 
BRANCH   4   5
ATOM      5  C1  <0> d           0.059   1.323  -2.401  0.00  0.00     0.097 C 
ATOM      6  H1  <0> d           1.052   1.784  -2.300  0.00  0.00     0.071 H 
ATOM      7  H2  <0> d          -0.462   1.759  -3.266  0.00  0.00     0.071 H 
ATOM      8  H3  <0> d           0.171   0.239  -2.549  0.00  0.00     0.071 H 
ENDBRANCH   4   5
BRANCH   4   9
ATOM      9  C2  <0> d          -2.059   0.969  -1.281  0.00  0.00     0.097 C 
ATOM     10  H4  <0> d          -2.622   1.171  -0.357  0.00  0.00     0.071 H 
ATOM     11  H5  <0> d          -1.961  -0.117  -1.421  0.00  0.00     0.071 H 
ATOM     12  H6  <0> d          -2.595   1.403  -2.139  0.00  0.00     0.071 H 
ENDBRANCH   4   9
ENDBRANCH   1   4
BRANCH   1  13
ATOM     13  N2  <0> d          -0.698   1.558   1.213  0.00  0.00    -0.234 N 
ATOM     14  N4  <0> d          -0.520   2.796   1.853  0.00  0.00    -0.163 NA
ATOM     15  C5  <0> d          -1.325   2.808   2.883  0.00  0.00     0.107 A 
ATOM     16  N3  <0> d          -1.986   1.652   2.929  0.00  0.00    -0.234 NA
ATOM     17  H10 <0> d          -1.433   3.622   3.585  0.00  0.00     0.149 H 
ATOM     18  C4  <0> d          -1.619   0.891   1.931  0.00  0.00     0.086 A 
ATOM     19  H9  <0> d          -1.991  -0.101   1.719  0.00  0.00     0.146 H 
ENDBRANCH   1  13
TORSDOF 4
