REMARK  3 active torsions:
REMARK  status: ('A' for Active; 'I' for Inactive)
REMARK    1  A    between atoms: C3_3  and  C7_10 
REMARK    2  A    between atoms: C5_6  and  C6_8 
REMARK    3  A    between atoms: C8_12  and  C9_13 
ROOT
ATOM      1  C6  <0> d          -2.918   1.325   0.036  0.00  0.00    -0.033 A 
ATOM      2  H3  <0> d          -3.990   1.520   0.078  0.00  0.00     0.042 H 
ATOM      3  C7  <0> d          -2.118   0.799   1.256  0.00  0.00    -0.033 A 
ATOM      4  H4  <0> d          -2.583   0.594   2.220  0.00  0.00     0.042 H 
ATOM      5  C8  <0> d          -2.387  -0.109   0.055  0.00  0.00     0.039 A 
ATOM      6  H11 <0> d          -3.113  -0.912   0.185  0.00  0.00     0.058 H 
ENDROOT
BRANCH   5   7
ATOM      7  C9  <0> d          -1.224  -0.427  -0.849  0.00  0.00     0.177 C 
ATOM      8  O1  <0> d          -0.370   0.404  -1.051  0.00  0.00    -0.648 OA
ATOM      9  O2  <0> d          -1.137  -1.634  -1.431  0.00  0.00    -0.648 OA
ENDBRANCH   5   7
BRANCH   1  10
ATOM     10  C5  <0> d          -2.001   2.418  -0.594  0.00  0.00    -0.049 C 
ATOM     11  C1  <0> d          -0.814   1.621  -1.216  0.00  0.00    -0.061 C 
ATOM     12  C2  <0> d          -0.017   1.094  -0.001  0.00  0.00    -0.061 C 
ATOM     13  H5  <0> d          -0.192   2.278  -1.823  0.00  0.00     0.033 H 
ATOM     14  H6  <0> d          -1.187   0.789  -1.815  0.00  0.00     0.033 H 
ATOM     15  C3  <0> d          -0.794   1.623   1.243  0.00  0.00    -0.049 C 
ATOM     16  H7  <0> d           0.002   0.004  -0.002  0.00  0.00     0.033 H 
ATOM     17  H8  <0> d           0.998   1.491  -0.011  0.00  0.00     0.033 H 
ATOM     18  H1  <0> d          -0.233   1.658   2.177  0.00  0.00     0.040 H 
ATOM     19  C4  <0> d          -1.316   2.999   0.693  0.00  0.00    -0.058 C 
ATOM     20  H9  <0> d          -0.498   3.678   0.450  0.00  0.00     0.034 H 
ATOM     21  H10 <0> d          -2.038   3.463   1.366  0.00  0.00     0.034 H 
ATOM     22  H2  <0> d          -2.485   3.141  -1.250  0.00  0.00     0.040 H 
BRANCH  15  23
ENDBRANCH  15  23
ENDBRANCH   1  10
TORSDOF 3
