REMARK  1 active torsions:
REMARK  status: ('A' for Active; 'I' for Inactive)
REMARK    1  A    between atoms: C1_1  and  C2_2 
ROOT
ATOM      1  C2  <0> d          -1.214   1.749   0.017  0.00  0.00    -0.021 A 
ATOM      2  C3  <0> d          -0.013   1.076   0.008  0.00  0.00    -0.048 A 
ATOM      3  C4  <0> d           1.182   1.788   0.000  0.00  0.00     0.043 A 
ATOM      4  C5  <0> d           1.149   3.194   0.008  0.00  0.00    -0.005 A 
ATOM      5  C6  <0> d           2.547   3.632  -0.003  0.00  0.00    -0.056 A 
ATOM      6  C7  <0> d           3.305   2.524  -0.016  0.00  0.00    -0.022 A 
ATOM      7  N1  <0> d           2.508   1.413  -0.014  0.00  0.00    -0.365 N 
ATOM      8  H1  <0> d           2.828   0.497  -0.021  0.00  0.00     0.165 HD
ATOM      9  C8  <0> d          -0.076   3.863   0.023  0.00  0.00    -0.033 A 
ATOM     10  C9  <0> d          -1.248   3.138   0.030  0.00  0.00     0.123 A 
ATOM     11  F1  <0> d          -2.436   3.781   0.044  0.00  0.00    -0.206 F 
ATOM     12  H5  <0> d           0.002  -0.004   0.002  0.00  0.00     0.087 H 
ATOM     13  H6  <0> d           2.901   4.652  -0.001  0.00  0.00     0.086 H 
ATOM     14  H7  <0> d           4.385   2.513  -0.026  0.00  0.00     0.111 H 
ATOM     15  H8  <0> d          -0.105   4.943   0.028  0.00  0.00     0.089 H 
ENDROOT
BRANCH   1  16
ATOM     16  C1  <0> d          -2.505   0.971   0.020  0.00  0.00    -0.048 C 
ATOM     17  H2  <0> d          -2.811   0.778   1.048  0.00  0.00     0.033 H 
ATOM     18  H3  <0> d          -3.278   1.548  -0.487  0.00  0.00     0.033 H 
ATOM     19  H4  <0> d          -2.360   0.024  -0.500  0.00  0.00     0.033 H 
ENDBRANCH   1  16
TORSDOF 1
