REMARK  2 active torsions:
REMARK  status: ('A' for Active; 'I' for Inactive)
REMARK    1  A    between atoms: C1_1  and  C2_2 
REMARK    2  A    between atoms: C5_5  and  N1_12 
ROOT
ATOM      1  C2  <0> d           0.002  -0.004   0.002  0.00  0.00    -0.051 A 
ATOM      2  C3  <0> d          -0.006  -0.679  -1.181  0.00  0.00    -0.074 A 
ATOM      3  C4  <0> d           0.020  -2.070  -1.214  0.00  0.00    -0.056 A 
ATOM      4  C5  <0> d           0.040  -2.803  -0.047  0.00  0.00     0.036 A 
ATOM      5  C6  <0> d           0.042  -2.130   1.194  0.00  0.00     0.001 A 
ATOM      6  C7  <0> d           0.023  -0.714   1.215  0.00  0.00    -0.018 A 
ATOM      7  C8  <0> d           0.025  -0.043   2.450  0.00  0.00    -0.072 A 
ATOM      8  C9  <0> d           0.046  -0.762   3.606  0.00  0.00    -0.082 A 
ATOM      9  C10 <0> d           0.064  -2.155   3.584  0.00  0.00    -0.082 A 
ATOM     10  C11 <0> d           0.063  -2.837   2.406  0.00  0.00    -0.070 A 
ATOM     11  H4  <0> d          -0.027  -0.126  -2.108  0.00  0.00     0.084 H 
ATOM     12  H5  <0> d           0.018  -2.581  -2.166  0.00  0.00     0.086 H 
ATOM     13  H6  <0> d           0.010   1.036   2.483  0.00  0.00     0.084 H 
ATOM     14  H7  <0> d           0.047  -0.245   4.554  0.00  0.00     0.083 H 
ATOM     15  H8  <0> d           0.079  -2.702   4.516  0.00  0.00     0.083 H 
ATOM     16  H9  <0> d           0.077  -3.917   2.404  0.00  0.00     0.084 H 
ENDROOT
BRANCH   1  17
ATOM     17  C1  <0> d          -0.018   1.503   0.010  0.00  0.00    -0.050 C 
ATOM     18  H1  <0> d           1.004   1.880   0.003  0.00  0.00     0.033 H 
ATOM     19  H2  <0> d          -0.545   1.864  -0.873  0.00  0.00     0.033 H 
ATOM     20  H3  <0> d          -0.529   1.854   0.907  0.00  0.00     0.033 H 
ENDBRANCH   1  17
BRANCH   4  21
ATOM     21  N1  <0> d           0.059  -4.195  -0.091  0.00  0.00    -0.398 N 
ATOM     22  H10 <0> d           0.073  -4.707   0.733  0.00  0.00     0.156 HD
ATOM     23  H11 <0> d           0.057  -4.653  -0.946  0.00  0.00     0.156 HD
ENDBRANCH   4  21
TORSDOF 2
