REMARK  1 active torsions:
REMARK  status: ('A' for Active; 'I' for Inactive)
REMARK    1  A    between atoms: C6_6  and  C7_7 
ROOT
ATOM      1  C7  <0> d          -0.018   1.468   0.010  0.00  0.00     0.038 C 
ATOM      2  C8  <0> d           0.002  -0.004   0.002  0.00  0.00     0.063 C 
ATOM      3  N1  <0> d           0.018  -1.140  -0.004  0.00  0.00    -0.197 NA
ATOM      4  H4  <0> d          -0.550   1.832  -0.881  0.00  0.00     0.062 H 
ATOM      5  H5  <0> d           1.014   1.849   0.002  0.00  0.00     0.062 H 
ENDROOT
BRANCH   1   6
ATOM      6  C6  <0> d          -0.723   1.954   1.250  0.00  0.00    -0.044 A 
ATOM      7  C1  <0> d          -2.088   2.172   1.231  0.00  0.00    -0.073 A 
ATOM      8  C2  <0> d          -2.739   2.616   2.364  0.00  0.00    -0.050 A 
ATOM      9  H1  <0> d          -2.649   1.990   0.326  0.00  0.00     0.084 H 
ATOM     10  C3  <0> d          -2.024   2.859   3.534  0.00  0.00     0.075 A 
ATOM     11  H2  <0> d          -3.806   2.780   2.342  0.00  0.00     0.087 H 
ATOM     12  O1  <0> d          -2.456   3.309   4.743  0.00  0.00    -0.350 OA
ATOM     13  C4  <0> d          -0.653   2.635   3.541  0.00  0.00    -0.022 A 
ATOM     14  C10 <0> d          -1.474   2.995   5.745  0.00  0.00     0.030 C 
ATOM     15  C9  <0> d          -0.156   2.965   4.935  0.00  0.00    -0.018 C 
ATOM     16  H8  <0> d          -1.641   2.012   6.210  0.00  0.00     0.075 H 
ATOM     17  H9  <0> d          -1.405   3.764   6.528  0.00  0.00     0.075 H 
ATOM     18  H6  <0> d           0.539   2.182   5.271  0.00  0.00     0.043 H 
ATOM     19  H7  <0> d           0.363   3.934   4.919  0.00  0.00     0.043 H 
ATOM     20  C5  <0> d          -0.006   2.189   2.410  0.00  0.00    -0.067 A 
ATOM     21  H3  <0> d           1.061   2.022   2.428  0.00  0.00     0.085 H 
ENDBRANCH   1   6
TORSDOF 1
