REMARK  1 active torsions:
REMARK  status: ('A' for Active; 'I' for Inactive)
REMARK    1  A    between atoms: C1_1  and  C2_2 
ROOT
ATOM      1  C2  <0> d          -1.220   1.747   0.017  0.00  0.00    -0.061 A 
ATOM      2  C3  <0> d          -1.246   3.130   0.030  0.00  0.00    -0.075 A 
ATOM      3  C4  <0> d          -0.063   3.841   0.021  0.00  0.00    -0.057 A 
ATOM      4  C5  <0> d           1.154   3.167   0.004  0.00  0.00     0.034 A 
ATOM      5  C6  <0> d           1.179   1.781   0.000  0.00  0.00    -0.031 A 
ATOM      6  C7  <0> d          -0.013   1.076   0.008  0.00  0.00    -0.069 A 
ATOM      7  C8  <0> d           2.478   1.018  -0.006  0.00  0.00    -0.037 C 
ATOM      8  C9  <0> d           3.616   1.903  -0.514  0.00  0.00    -0.047 C 
ATOM      9  C10 <0> d           3.609   3.220   0.274  0.00  0.00    -0.007 C 
ATOM     10  N1  <0> d           2.341   3.907  -0.010  0.00  0.00    -0.389 N 
ATOM     11  H4  <0> d          -2.191   3.652   0.043  0.00  0.00     0.084 H 
ATOM     12  H5  <0> d          -0.082   4.920   0.025  0.00  0.00     0.086 H 
ATOM     13  H6  <0> d           0.002  -0.004   0.002  0.00  0.00     0.085 H 
ATOM     14  H7  <0> d           2.705   0.685   1.006  0.00  0.00     0.040 H 
ATOM     15  H8  <0> d           2.381   0.148  -0.656  0.00  0.00     0.040 H 
ATOM     16  H9  <0> d           3.472   2.111  -1.574  0.00  0.00     0.035 H 
ATOM     17  H10 <0> d           4.569   1.395  -0.368  0.00  0.00     0.035 H 
ATOM     18  H11 <0> d           4.445   3.844  -0.042  0.00  0.00     0.064 H 
ATOM     19  H12 <0> d           3.685   3.012   1.341  0.00  0.00     0.064 H 
ATOM     20  H13 <0> d           2.328   4.857  -0.204  0.00  0.00     0.159 HD
ENDROOT
BRANCH   1  21
ATOM     21  C1  <0> d          -2.511   0.970   0.019  0.00  0.00    -0.051 C 
ATOM     22  H1  <0> d          -2.818   0.778   1.048  0.00  0.00     0.033 H 
ATOM     23  H2  <0> d          -3.284   1.549  -0.488  0.00  0.00     0.033 H 
ATOM     24  H3  <0> d          -2.367   0.023  -0.500  0.00  0.00     0.033 H 
ENDBRANCH   1  21
TORSDOF 1
