REMARK  4 active torsions:
REMARK  status: ('A' for Active; 'I' for Inactive)
REMARK    1  A    between atoms: C1_1  and  C2_2 
REMARK    2  A    between atoms: C3_4  and  O4_14 
REMARK    3  A    between atoms: C5_7  and  O3_13 
REMARK    4  A    between atoms: C6_9  and  O2_12 
ROOT
ATOM      1  C2  <0> d          -2.191   1.109   1.226  0.00  0.00     0.063 C 
ATOM      2  H1  <0> d          -2.220   0.019   1.237  0.00  0.00     0.086 H 
ATOM      3  C3  <0> d          -0.733   1.582   1.266  0.00  0.00     0.062 C 
ATOM      4  H2  <0> d          -0.705   2.671   1.296  0.00  0.00     0.086 H 
ATOM      5  C4  <0> d          -0.013   1.086   0.008  0.00  0.00    -0.010 C 
ATOM      6  C5  <0> d          -0.757   1.595  -1.230  0.00  0.00     0.085 C 
ATOM      7  H3  <0> d          -0.281   1.202  -2.128  0.00  0.00     0.090 H 
ATOM      8  C6  <0> d          -2.212   1.122  -1.172  0.00  0.00     0.153 C 
ATOM      9  H4  <0> d          -2.241   0.033  -1.193  0.00  0.00     0.132 H 
ATOM     10  O1  <0> d          -2.816   1.591   0.035  0.00  0.00    -0.351 OA
ATOM     11  H8  <0> d           0.002  -0.004   0.002  0.00  0.00     0.041 H 
ATOM     12  H9  <0> d           1.009   1.464   0.000  0.00  0.00     0.041 H 
ENDROOT
BRANCH   1  13
ATOM     13  C1  <0> d          -2.935   1.651   2.449  0.00  0.00    -0.050 C 
ATOM     14  H5  <0> d          -3.972   1.315   2.421  0.00  0.00     0.031 H 
ATOM     15  H6  <0> d          -2.458   1.283   3.357  0.00  0.00     0.031 H 
ATOM     16  H7  <0> d          -2.906   2.740   2.438  0.00  0.00     0.031 H 
ENDBRANCH   1  13
BRANCH   3  17
ATOM     17  O4  <0> d          -0.088   1.053   2.426  0.00  0.00    -0.393 OA
ATOM     18  H12 <0> d           0.841   1.308   2.510  0.00  0.00     0.210 HD
ENDBRANCH   3  17
BRANCH   8  19
ATOM     19  O2  <0> d          -2.927   1.640  -2.295  0.00  0.00    -0.369 OA
ATOM     20  H10 <0> d          -3.858   1.380  -2.323  0.00  0.00     0.212 HD
ENDBRANCH   8  19
BRANCH   6  21
ATOM     21  O3  <0> d          -0.720   3.023  -1.256  0.00  0.00    -0.391 OA
ATOM     22  H11 <0> d          -1.173   3.415  -2.015  0.00  0.00     0.210 HD
ENDBRANCH   6  21
TORSDOF 4
