REMARK  4 active torsions:
REMARK  status: ('A' for Active; 'I' for Inactive)
REMARK    1  A    between atoms: C2_2  and  N4_10 
REMARK    2  A    between atoms: C3_3  and  N3_9 
REMARK    3  A    between atoms: C5_5  and  N2_8 
REMARK    4  A    between atoms: C6_6  and  N1_7 
ROOT
ATOM      1  C1  <0> d          -0.017   1.383   0.010  0.00  0.00    -0.028 A 
ATOM      2  C2  <0> d           1.175   2.092   0.002  0.00  0.00     0.054 A 
ATOM      3  C3  <0> d           2.391   1.412  -0.013  0.00  0.00     0.054 A 
ATOM      4  C4  <0> d           2.410   0.025  -0.020  0.00  0.00    -0.028 A 
ATOM      5  C5  <0> d           1.218  -0.684  -0.012  0.00  0.00     0.054 A 
ATOM      6  C6  <0> d           0.002  -0.004   0.002  0.00  0.00     0.054 A 
ATOM      7  H1  <0> d          -0.959   1.910   0.026  0.00  0.00     0.090 H 
ATOM      8  H2  <0> d           3.352  -0.502  -0.033  0.00  0.00     0.090 H 
ENDROOT
BRANCH   2   9
ATOM      9  N4  <0> d           1.156   3.495   0.009  0.00  0.00    -0.397 N 
ATOM     10  H9  <0> d           0.309   3.969   0.020  0.00  0.00     0.156 HD
ATOM     11  H10 <0> d           1.989   3.992   0.004  0.00  0.00     0.156 HD
ENDBRANCH   2   9
BRANCH   3  12
ATOM     12  N3  <0> d           3.596   2.130  -0.022  0.00  0.00    -0.397 N 
ATOM     13  H7  <0> d           3.583   3.100  -0.017  0.00  0.00     0.156 HD
ATOM     14  H8  <0> d           4.443   1.657  -0.032  0.00  0.00     0.156 HD
ENDBRANCH   3  12
BRANCH   6  15
ATOM     15  N1  <0> d          -1.204  -0.722   0.010  0.00  0.00    -0.397 N 
ATOM     16  H3  <0> d          -2.050  -0.249   0.021  0.00  0.00     0.156 HD
ATOM     17  H4  <0> d          -1.190  -1.692   0.005  0.00  0.00     0.156 HD
ENDBRANCH   6  15
BRANCH   5  18
ATOM     18  N2  <0> d           1.237  -2.087  -0.020  0.00  0.00    -0.397 N 
ATOM     19  H5  <0> d           2.084  -2.561  -0.032  0.00  0.00     0.156 HD
ATOM     20  H6  <0> d           0.404  -2.584  -0.014  0.00  0.00     0.156 HD
ENDBRANCH   5  18
TORSDOF 4
