REMARK  0 active torsions:
REMARK  status: ('A' for Active; 'I' for Inactive)
ROOT
ATOM      1  C1  <0> d          -0.013   1.076   0.008  0.00  0.00    -0.059 A 
ATOM      2  C2  <0> d           1.151   1.792   0.001  0.00  0.00    -0.015 A 
ATOM      3  C3  <0> d           1.057   3.200   0.009  0.00  0.00     0.261 A 
ATOM      4  O1  <0> d           2.067   3.886   0.003  0.00  0.00    -0.267 OA
ATOM      5  N1  <0> d          -0.159   3.780   0.024  0.00  0.00    -0.244 N 
ATOM      6  H1  <0> d          -0.245   4.877   0.030  0.00  0.00     0.192 HD
ATOM      7  N2  <0> d          -1.237   3.083   0.031  0.00  0.00    -0.184 NA
ATOM      8  C4  <0> d          -1.228   1.780   0.017  0.00  0.00     0.022 A 
ATOM      9  H2  <0> d           0.002  -0.004   0.002  0.00  0.00     0.086 H 
ATOM     10  H3  <0> d           2.110   1.297  -0.011  0.00  0.00     0.092 H 
ATOM     11  H4  <0> d          -2.162   1.237   0.018  0.00  0.00     0.117 H 
ENDROOT
TORSDOF 0
