REMARK  3 active torsions:
REMARK  status: ('A' for Active; 'I' for Inactive)
REMARK    1  A    between atoms: C1_1  and  C2_2 
REMARK    2  A    between atoms: C2_2  and  C3_3 
REMARK    3  A    between atoms: C3_3  and  C4_4 
ROOT
ATOM      1  C4  <0> d          -0.132   3.793   0.024  0.00  0.00     0.034 A 
ATOM      2  C5  <0> d           1.107   3.179   0.009  0.00  0.00    -0.059 A 
ATOM      3  C6  <0> d           1.174   1.794   0.001  0.00  0.00    -0.080 A 
ATOM      4  C7  <0> d          -0.013   1.076   0.008  0.00  0.00    -0.066 A 
ATOM      5  C8  <0> d          -1.214   1.759   0.017  0.00  0.00     0.002 A 
ATOM      6  N1  <0> d          -1.239   3.078   0.030  0.00  0.00    -0.266 NA
ATOM      7  H8  <0> d           2.010   3.770   0.004  0.00  0.00     0.086 H 
ATOM      8  H9  <0> d           2.127   1.287  -0.011  0.00  0.00     0.083 H 
ATOM      9  H10 <0> d           0.002  -0.004   0.002  0.00  0.00     0.085 H 
ATOM     10  H11 <0> d          -2.142   1.207   0.018  0.00  0.00     0.114 H 
ENDROOT
BRANCH   1  11
ATOM     11  C3  <0> d          -0.217   5.298   0.032  0.00  0.00    -0.025 C 
ATOM     12  H6  <0> d          -0.662   5.631   0.970  0.00  0.00     0.042 H 
ATOM     13  H7  <0> d           0.784   5.719  -0.065  0.00  0.00     0.042 H 
BRANCH  11  14
ATOM     14  C2  <0> d          -1.083   5.766  -1.139  0.00  0.00    -0.063 C 
ATOM     15  H4  <0> d          -0.638   5.433  -2.076  0.00  0.00     0.033 H 
ATOM     16  H5  <0> d          -2.084   5.345  -1.042  0.00  0.00     0.033 H 
BRANCH  14  17
ATOM     17  C1  <0> d          -1.169   7.294  -1.130  0.00  0.00    -0.076 C 
ATOM     18  H1  <0> d          -1.786   7.627  -1.964  0.00  0.00     0.027 H 
ATOM     19  H2  <0> d          -1.614   7.627  -0.193  0.00  0.00     0.027 H 
ATOM     20  H3  <0> d          -0.169   7.715  -1.227  0.00  0.00     0.027 H 
ENDBRANCH  14  17
ENDBRANCH  11  14
ENDBRANCH   1  11
TORSDOF 3
