REMARK  1 active torsions:
REMARK  status: ('A' for Active; 'I' for Inactive)
REMARK    1  A    between atoms: C1_1  and  C2_2 
ROOT
ATOM      1  C2  <0> d           0.002  -0.004   0.002  0.00  0.00     0.095 A 
ATOM      2  N1  <0> d          -0.015   1.295   0.009  0.00  0.00    -0.162 NA
ATOM      3  N2  <0> d           1.159   2.035   0.002  0.00  0.00    -0.199 N 
ATOM      4  C3  <0> d           1.577   3.350   0.005  0.00  0.00     0.112 A 
ATOM      5  N3  <0> d           2.881   3.359  -0.007  0.00  0.00    -0.141 NA
ATOM      6  N4  <0> d           3.330   2.152  -0.018  0.00  0.00    -0.121 NA
ATOM      7  C4  <0> d           2.332   1.321  -0.013  0.00  0.00     0.217 A 
ATOM      8  S1  <0> d           1.753  -0.357  -0.017  0.00  0.00    -0.032 SA
ATOM      9  H4  <0> d           0.937   4.220   0.016  0.00  0.00     0.149 H 
ENDROOT
BRANCH   1  10
ATOM     10  C1  <0> d          -1.157  -0.967   0.007  0.00  0.00    -0.028 C 
ATOM     11  H1  <0> d          -1.446  -1.193  -1.019  0.00  0.00     0.036 H 
ATOM     12  H2  <0> d          -0.864  -1.886   0.513  0.00  0.00     0.036 H 
ATOM     13  H3  <0> d          -2.001  -0.517   0.531  0.00  0.00     0.036 H 
ENDBRANCH   1  10
TORSDOF 1
