REMARK  3 active torsions:
REMARK  status: ('A' for Active; 'I' for Inactive)
REMARK    1  A    between atoms: C1_1  and  C2_2 
REMARK    2  A    between atoms: C4_4  and  C7_8 
REMARK    3  A    between atoms: C7_8  and  C8_10 
ROOT
ATOM      1  C2  <0> d           1.128  -0.689  -0.013  0.00  0.00     0.031 A 
ATOM      2  C3  <0> d           2.350  -0.046  -0.021  0.00  0.00    -0.046 A 
ATOM      3  C4  <0> d           2.380   1.354  -0.014  0.00  0.00     0.013 A 
ATOM      4  C5  <0> d           1.159   2.040   0.002  0.00  0.00    -0.053 A 
ATOM      5  C6  <0> d          -0.016   1.314   0.009  0.00  0.00     0.003 A 
ATOM      6  N1  <0> d           0.002  -0.004   0.002  0.00  0.00    -0.266 NA
ATOM      7  H4  <0> d           3.269  -0.614  -0.033  0.00  0.00     0.088 H 
ATOM      8  H5  <0> d           1.137   3.119   0.008  0.00  0.00     0.087 H 
ATOM      9  H6  <0> d          -0.963   1.834   0.017  0.00  0.00     0.114 H 
ENDROOT
BRANCH   3  10
ATOM     10  C7  <0> d           3.662   2.085  -0.022  0.00  0.00     0.155 C 
ATOM     11  O1  <0> d           4.705   1.476  -0.036  0.00  0.00    -0.293 OA
BRANCH  10  12
ATOM     12  C8  <0> d           3.669   3.592  -0.014  0.00  0.00    -0.017 C 
ATOM     13  H7  <0> d           3.679   3.921   0.930  0.00  0.00     0.038 H 
ATOM     14  H8  <0> d           4.556   3.954  -0.535  0.00  0.00     0.038 H 
ATOM     15  H9  <0> d           2.776   3.963  -0.518  0.00  0.00     0.038 H 
ENDBRANCH  10  12
ENDBRANCH   3  10
BRANCH   1  16
ATOM     16  C1  <0> d           1.081  -2.196  -0.020  0.00  0.00    -0.035 C 
ATOM     17  H1  <0> d           1.059  -2.553  -1.050  0.00  0.00     0.035 H 
ATOM     18  H2  <0> d           1.964  -2.589   0.483  0.00  0.00     0.035 H 
ATOM     19  H3  <0> d           0.184  -2.534   0.500  0.00  0.00     0.035 H 
ENDBRANCH   1  16
TORSDOF 3
