REMARK  5 active torsions:
REMARK  status: ('A' for Active; 'I' for Inactive)
REMARK    1  A    between atoms: C1_1  and  C2_2 
REMARK    2  A    between atoms: C2_2  and  C3_3 
REMARK    3  A    between atoms: C2_2  and  N2_6 
REMARK       I    between atoms: N2_6  and  C5_7 
REMARK       I    between atoms: C5_7  and  N3_9 
REMARK    4  A    between atoms: N3_9  and  C6_10 
REMARK    5  A    between atoms: N3_9  and  C7_11 
ROOT
ATOM      1  C2  <0> d           0.008  -0.019   0.012  0.00  0.00     0.116 C 
ATOM      2  C4  <0> d          -1.369  -0.538   0.029  0.00  0.00     0.090 C 
ATOM      3  N1  <0> d          -2.432  -0.939   0.042  0.00  0.00    -0.195 NA
ENDROOT
BRANCH   1   4
ATOM      4  C1  <0> d          -0.024   1.511   0.017  0.00  0.00    -0.041 C 
ATOM      5  H1  <0> d           0.996   1.895   0.004  0.00  0.00     0.032 H 
ATOM      6  H2  <0> d          -0.557   1.866  -0.865  0.00  0.00     0.032 H 
ATOM      7  H3  <0> d          -0.533   1.861   0.915  0.00  0.00     0.032 H 
ENDBRANCH   1   4
BRANCH   1   8
ATOM      8  C3  <0> d           0.756  -0.517   1.250  0.00  0.00    -0.041 C 
ATOM      9  H4  <0> d           0.247  -0.168   2.148  0.00  0.00     0.032 H 
ATOM     10  H5  <0> d           0.779  -1.607   1.246  0.00  0.00     0.032 H 
ATOM     11  H6  <0> d           1.776  -0.133   1.237  0.00  0.00     0.032 H 
ENDBRANCH   1   8
BRANCH   1  12
ATOM     12  N2  <0> d           0.692  -0.489  -1.195  0.00  0.00    -0.322 N 
ATOM     13  C5  <0> d           1.973  -0.136  -1.425  0.00  0.00     0.318 C 
ATOM     14  O1  <0> d           2.531   0.644  -0.678  0.00  0.00    -0.247 OA
ATOM     15  N3  <0> d           2.633  -0.647  -2.482  0.00  0.00    -0.343 N 
ATOM     16  H7  <0> d           0.224  -1.054  -1.829  0.00  0.00     0.166 HD
BRANCH  15  17
ATOM     17  C6  <0> d           4.057  -0.356  -2.667  0.00  0.00    -0.015 C 
ATOM     18  H8  <0> d           4.652  -1.116  -2.159  0.00  0.00     0.056 H 
ATOM     19  H9  <0> d           4.294  -0.360  -3.731  0.00  0.00     0.056 H 
ATOM     20  H10 <0> d           4.285   0.624  -2.248  0.00  0.00     0.056 H 
ENDBRANCH  15  17
BRANCH  15  21
ATOM     21  C7  <0> d           1.928  -1.494  -3.447  0.00  0.00    -0.015 C 
ATOM     22  H11 <0> d           0.867  -1.522  -3.198  0.00  0.00     0.056 H 
ATOM     23  H12 <0> d           2.056  -1.087  -4.450  0.00  0.00     0.056 H 
ATOM     24  H13 <0> d           2.336  -2.505  -3.410  0.00  0.00     0.056 H 
ENDBRANCH  15  21
ENDBRANCH   1  12
TORSDOF 5
