REMARK  3 active torsions:
REMARK  status: ('A' for Active; 'I' for Inactive)
REMARK    1  A    between atoms: C1_1  and  N1_2 
REMARK    2  A    between atoms: N1_2  and  C2_3 
REMARK    3  A    between atoms: C5_6  and  C8_9 
ROOT
ATOM      1  C8  <0> d          -4.808  -2.869   0.032  0.00  0.00    -0.078 C 
ATOM      2  C9  <0> d          -5.816  -3.470   0.038  0.00  0.00    -0.149 C 
ATOM      3  H9  <0> d          -6.719  -4.007   0.044  0.00  0.00     0.166 H 
ENDROOT
BRANCH   1   4
ATOM      4  C5  <0> d          -3.578  -2.136   0.024  0.00  0.00     0.017 A 
ATOM      5  C4  <0> d          -3.595  -0.740   0.026  0.00  0.00    -0.063 A 
ATOM      6  C3  <0> d          -2.409  -0.038   0.019  0.00  0.00    -0.056 A 
ATOM      7  H6  <0> d          -4.537  -0.211   0.034  0.00  0.00     0.085 H 
ATOM      8  C2  <0> d          -1.197  -0.718   0.010  0.00  0.00     0.027 A 
ATOM      9  H5  <0> d          -2.422   1.042   0.021  0.00  0.00     0.087 H 
ATOM     10  C7  <0> d          -1.176  -2.108   0.002  0.00  0.00    -0.056 A 
ATOM     11  C6  <0> d          -2.358  -2.816   0.014  0.00  0.00    -0.063 A 
ATOM     12  H8  <0> d          -0.233  -2.634  -0.009  0.00  0.00     0.087 H 
ATOM     13  H7  <0> d          -2.342  -3.896   0.013  0.00  0.00     0.085 H 
BRANCH   8  14
ATOM     14  N1  <0> d           0.002  -0.004   0.002  0.00  0.00    -0.394 N 
ATOM     15  H4  <0> d           0.849  -0.478  -0.009  0.00  0.00     0.159 HD
BRANCH  14  16
ATOM     16  C1  <0> d          -0.018   1.461   0.010  0.00  0.00    -0.021 C 
ATOM     17  H1  <0> d           1.005   1.838   0.002  0.00  0.00     0.056 H 
ATOM     18  H2  <0> d          -0.545   1.822  -0.873  0.00  0.00     0.056 H 
ATOM     19  H3  <0> d          -0.528   1.812   0.907  0.00  0.00     0.056 H 
ENDBRANCH  14  16
ENDBRANCH   8  14
ENDBRANCH   1   4
TORSDOF 3
