REMARK  7 active torsions:
REMARK  status: ('A' for Active; 'I' for Inactive)
REMARK    1  A    between atoms: C1_1  and  C2_2 
REMARK    2  A    between atoms: C2_2  and  C3_3 
REMARK    3  A    between atoms: C2_2  and  C7_9 
REMARK    4  A    between atoms: C3_3  and  C4_4 
REMARK    5  A    between atoms: C4_4  and  O1_5 
REMARK    6  A    between atoms: O1_5  and  C5_6 
REMARK    7  A    between atoms: C5_6  and  C6_8 
ROOT
ATOM      1  C3  <0> d           0.022  -0.664   1.130  0.00  0.00    -0.137 C 
ENDROOT
BRANCH   1   2
ATOM      2  C2  <0> d           0.002  -0.004   0.002  0.00  0.00     0.024 C 
BRANCH   2   3
ATOM      3  C1  <0> d          -0.018   1.503   0.010  0.00  0.00    -0.058 C 
ATOM      4  H1  <0> d           1.004   1.880   0.003  0.00  0.00     0.029 H 
ATOM      5  H2  <0> d          -0.545   1.864  -0.873  0.00  0.00     0.029 H 
ATOM      6  H3  <0> d          -0.529   1.854   0.907  0.00  0.00     0.029 H 
ENDBRANCH   2   3
BRANCH   2   7
ATOM      7  C7  <0> d          -0.000  -0.750  -1.307  0.00  0.00    -0.058 C 
ATOM      8  H8  <0> d           1.027  -0.916  -1.633  0.00  0.00     0.029 H 
ATOM      9  H9  <0> d          -0.500  -1.710  -1.177  0.00  0.00     0.029 H 
ATOM     10  H10 <0> d          -0.529  -0.164  -2.059  0.00  0.00     0.029 H 
ENDBRANCH   2   7
ENDBRANCH   1   2
BRANCH   1  11
ATOM     11  C4  <0> d           0.041  -1.323   2.259  0.00  0.00     0.131 C 
ATOM     12  H4  <0> d          -0.886  -1.608   2.733  0.00  0.00     0.108 H 
BRANCH  11  13
ATOM     13  O1  <0> d           1.217  -1.647   2.828  0.00  0.00    -0.301 OA
BRANCH  13  14
ATOM     14  C5  <0> d           1.190  -2.324   3.986  0.00  0.00     0.256 C 
ATOM     15  O2  <0> d           0.128  -2.626   4.487  0.00  0.00    -0.266 OA
BRANCH  14  16
ATOM     16  C6  <0> d           2.480  -2.709   4.663  0.00  0.00     0.004 C 
ATOM     17  H5  <0> d           3.323  -2.355   4.069  0.00  0.00     0.041 H 
ATOM     18  H6  <0> d           2.519  -2.257   5.654  0.00  0.00     0.041 H 
ATOM     19  H7  <0> d           2.532  -3.794   4.756  0.00  0.00     0.041 H 
ENDBRANCH  14  16
ENDBRANCH  13  14
ENDBRANCH  11  13
ENDBRANCH   1  11
TORSDOF 7
