REMARK  0 active torsions:
REMARK  status: ('A' for Active; 'I' for Inactive)
ROOT
ATOM      1  C1  <0> d           1.305   4.406   0.012  0.00  0.00    -0.027 A 
ATOM      2  C2  <0> d           0.565   5.576   0.024  0.00  0.00     0.064 A 
ATOM      3  C3  <0> d          -0.843   5.528   0.037  0.00  0.00     0.087 A 
ATOM      4  C4  <0> d          -1.496   4.298   0.038  0.00  0.00    -0.023 A 
ATOM      5  C5  <0> d          -0.750   3.123   0.025  0.00  0.00     0.087 A 
ATOM      6  C6  <0> d           0.657   3.183   0.012  0.00  0.00     0.064 A 
ATOM      7  N1  <0> d           1.093   1.870   0.002  0.00  0.00    -0.349 N 
ATOM      8  H1  <0> d           2.044   1.561  -0.009  0.00  0.00     0.167 HD
ATOM      9  C7  <0> d          -0.013   1.076   0.008  0.00  0.00     0.065 A 
ATOM     10  N2  <0> d          -1.089   1.805   0.017  0.00  0.00    -0.242 NA
ATOM     11  N3  <0> d          -1.282   6.815   0.047  0.00  0.00    -0.242 NA
ATOM     12  C8  <0> d          -0.265   7.625   0.041  0.00  0.00     0.065 A 
ATOM     13  N4  <0> d           0.899   6.919   0.027  0.00  0.00    -0.349 N 
ATOM     14  H2  <0> d           1.823   7.300   0.020  0.00  0.00     0.167 HD
ATOM     15  H3  <0> d           2.384   4.448   0.002  0.00  0.00     0.090 H 
ATOM     16  H4  <0> d          -2.575   4.256   0.047  0.00  0.00     0.090 H 
ATOM     17  H5  <0> d           0.002  -0.004   0.002  0.00  0.00     0.143 H 
ATOM     18  H6  <0> d          -0.334   8.703   0.046  0.00  0.00     0.143 H 
ENDROOT
TORSDOF 0
