REMARK  5 active torsions:
REMARK  status: ('A' for Active; 'I' for Inactive)
REMARK    1  A    between atoms: C1_1  and  C2_2 
REMARK    2  A    between atoms: C4_4  and  C9_11 
REMARK    3  A    between atoms: C5_5  and  O2_10 
REMARK    4  A    between atoms: C6_6  and  C8_9 
REMARK    5  A    between atoms: C7_7  and  O1_8 
ROOT
ATOM      1  C2  <0> d          -2.735   2.232   2.372  0.00  0.00    -0.028 A 
ATOM      2  C3  <0> d          -2.015   2.466   3.528  0.00  0.00    -0.066 A 
ATOM      3  C4  <0> d          -0.650   2.254   3.550  0.00  0.00    -0.028 A 
ATOM      4  C5  <0> d           0.002   1.807   2.409  0.00  0.00     0.080 A 
ATOM      5  C6  <0> d          -0.718   1.572   1.248  0.00  0.00     0.005 A 
ATOM      6  C7  <0> d          -2.087   1.790   1.227  0.00  0.00     0.080 A 
ATOM      7  H4  <0> d          -2.521   2.813   4.417  0.00  0.00     0.085 H 
ENDROOT
BRANCH   1   8
ATOM      8  C1  <0> d          -4.224   2.464   2.352  0.00  0.00    -0.049 C 
ATOM      9  H1  <0> d          -4.427   3.493   2.054  0.00  0.00     0.033 H 
ATOM     10  H2  <0> d          -4.689   1.782   1.641  0.00  0.00     0.033 H 
ATOM     11  H3  <0> d          -4.633   2.287   3.347  0.00  0.00     0.033 H 
ENDBRANCH   1   8
BRANCH   6  12
ATOM     12  O1  <0> d          -2.794   1.566   0.089  0.00  0.00    -0.360 OA
ATOM     13  H5  <0> d          -3.136   0.665   0.009  0.00  0.00     0.217 HD
ENDBRANCH   6  12
BRANCH   5  14
ATOM     14  C8  <0> d          -0.013   1.086   0.008  0.00  0.00    -0.046 C 
ATOM     15  H6  <0> d           0.002  -0.004   0.002  0.00  0.00     0.033 H 
ATOM     16  H7  <0> d           1.010   1.463   0.000  0.00  0.00     0.033 H 
ATOM     17  H8  <0> d          -0.540   1.447  -0.875  0.00  0.00     0.033 H 
ENDBRANCH   5  14
BRANCH   3  18
ATOM     18  C9  <0> d           0.132   2.510   4.812  0.00  0.00    -0.049 C 
ATOM     19  H10 <0> d           0.475   3.545   4.824  0.00  0.00     0.033 H 
ATOM     20  H11 <0> d          -0.506   2.329   5.678  0.00  0.00     0.033 H 
ATOM     21  H12 <0> d           0.992   1.841   4.849  0.00  0.00     0.033 H 
ENDBRANCH   3  18
BRANCH   4  22
ATOM     22  O2  <0> d           1.345   1.598   2.431  0.00  0.00    -0.360 OA
ATOM     23  H9  <0> d           1.867   2.374   2.185  0.00  0.00     0.217 HD
ENDBRANCH   4  22
TORSDOF 5
