REMARK  0 active torsions:
REMARK  status: ('A' for Active; 'I' for Inactive)
ROOT
ATOM      1  C1  <0> d           1.482  -0.441   0.011  0.00  0.00    -0.037 C 
ATOM      2  C2  <0> d           2.209   0.798   0.597  0.00  0.00    -0.022 C 
ATOM      3  C3  <0> d           1.377   1.960  -0.001  0.00  0.00     0.214 C 
ATOM      4  H1  <0> d           1.682   2.273  -1.010  0.00  0.00     0.112 H 
ATOM      5  N1  <0> d          -0.018   1.470   0.010  0.00  0.00     0.101 N 
ATOM      6  C4  <0> d           0.002  -0.004   0.002  0.00  0.00     0.113 C 
ATOM      7  C5  <0> d           1.504   3.164   0.837  0.00  0.00     0.095 C 
ATOM      8  N2  <0> d           1.602   4.093   1.483  0.00  0.00    -0.195 NA
ATOM      9  H2  <0> d           1.596  -1.335   0.641  0.00  0.00     0.035 H 
ATOM     10  H3  <0> d           1.802  -0.673  -1.016  0.00  0.00     0.035 H 
ATOM     11  H4  <0> d           2.173   0.759   1.695  0.00  0.00     0.037 H 
ATOM     12  H5  <0> d           3.257   0.799   0.264  0.00  0.00     0.037 H 
ATOM     13  H6  <0> d          -0.527   1.833   0.915  0.00  0.00     0.317 HD
ATOM     14  H7  <0> d          -0.489  -0.393  -0.902  0.00  0.00     0.079 H 
ATOM     15  H8  <0> d          -0.503  -0.403   0.894  0.00  0.00     0.079 H 
ENDROOT
TORSDOF 0
