REMARK  3 active torsions:
REMARK  status: ('A' for Active; 'I' for Inactive)
REMARK    1  A    between atoms: C1_1  and  O1_2 
REMARK    2  A    between atoms: O1_2  and  C2_3 
REMARK    3  A    between atoms: C2_3  and  C3_5 
ROOT
ATOM      1  C3  <0> d          -1.229   3.139   0.030  0.00  0.00     0.042 A 
ATOM      2  C4  <0> d          -1.224   1.741   0.017  0.00  0.00    -0.050 A 
ATOM      3  C5  <0> d          -0.013   1.076   0.008  0.00  0.00     0.003 A 
ATOM      4  N1  <0> d           1.125   1.741   0.001  0.00  0.00    -0.273 NA
ATOM      5  C6  <0> d           1.165   3.059   0.007  0.00  0.00     0.003 A 
ATOM      6  C7  <0> d           0.002   3.804   0.022  0.00  0.00    -0.050 A 
ATOM      7  H4  <0> d          -2.152   1.189   0.019  0.00  0.00     0.087 H 
ATOM      8  H5  <0> d           0.002  -0.004   0.002  0.00  0.00     0.114 H 
ATOM      9  H6  <0> d           2.120   3.563   0.001  0.00  0.00     0.114 H 
ATOM     10  H7  <0> d           0.042   4.883   0.027  0.00  0.00     0.087 H 
ENDROOT
BRANCH   1  11
ATOM     11  C2  <0> d          -2.502   3.895   0.046  0.00  0.00     0.293 C 
ATOM     12  O2  <0> d          -2.487   5.109   0.052  0.00  0.00    -0.259 OA
BRANCH  11  13
ATOM     13  O1  <0> d          -3.676   3.236   0.054  0.00  0.00    -0.323 OA
BRANCH  13  14
ATOM     14  C1  <0> d          -4.884   4.042   0.069  0.00  0.00     0.013 C 
ATOM     15  H1  <0> d          -4.910   4.675  -0.818  0.00  0.00     0.067 H 
ATOM     16  H2  <0> d          -5.757   3.388   0.074  0.00  0.00     0.067 H 
ATOM     17  H3  <0> d          -4.893   4.666   0.962  0.00  0.00     0.067 H 
ENDBRANCH  13  14
ENDBRANCH  11  13
ENDBRANCH   1  11
TORSDOF 3
