REMARK  1 active torsions:
REMARK  status: ('A' for Active; 'I' for Inactive)
REMARK    1  A    between atoms: C9_10  and  O1_11 
ROOT
ATOM      1  C1  <0> d           1.159   2.087   0.002  0.00  0.00    -0.082 A 
ATOM      2  C2  <0> d           2.382   1.419  -0.013  0.00  0.00    -0.082 A 
ATOM      3  C3  <0> d           2.438   0.058  -0.021  0.00  0.00    -0.069 A 
ATOM      4  C4  <0> d           1.248  -0.682  -0.013  0.00  0.00     0.010 A 
ATOM      5  C5  <0> d           0.002  -0.004   0.002  0.00  0.00    -0.006 A 
ATOM      6  C6  <0> d          -0.017   1.400   0.010  0.00  0.00    -0.071 A 
ATOM      7  C7  <0> d          -1.178  -0.765   0.010  0.00  0.00     0.013 A 
ATOM      8  N1  <0> d          -1.113  -2.076   0.003  0.00  0.00    -0.269 NA
ATOM      9  C8  <0> d           0.034  -2.739  -0.012  0.00  0.00     0.035 A 
ATOM     10  C9  <0> d           1.240  -2.093  -0.021  0.00  0.00     0.094 A 
ATOM     11  H1  <0> d           1.143   3.166   0.008  0.00  0.00     0.083 H 
ATOM     12  H2  <0> d           3.299   1.989  -0.019  0.00  0.00     0.083 H 
ATOM     13  H3  <0> d           3.393  -0.447  -0.033  0.00  0.00     0.085 H 
ATOM     14  H4  <0> d          -0.957   1.931   0.017  0.00  0.00     0.084 H 
ATOM     15  H5  <0> d          -2.139  -0.273   0.021  0.00  0.00     0.116 H 
ATOM     16  H6  <0> d           0.017  -3.819  -0.017  0.00  0.00     0.119 H 
ENDROOT
BRANCH  10  17
ATOM     17  O1  <0> d           2.403  -2.794  -0.036  0.00  0.00    -0.358 OA
ATOM     18  H7  <0> d           2.749  -3.001   0.843  0.00  0.00     0.217 HD
ENDBRANCH  10  17
TORSDOF 1
