REMARK  2 active torsions:
REMARK  status: ('A' for Active; 'I' for Inactive)
REMARK    1  A    between atoms: C3_3  and  C9_11 
REMARK    2  A    between atoms: C9_11  and  O1_12 
ROOT
ATOM      1  C1  <0> d           1.577   4.152   0.010  0.00  0.00    -0.070 A 
ATOM      2  C2  <0> d           2.916   3.877  -0.004  0.00  0.00    -0.074 A 
ATOM      3  C3  <0> d           3.365   2.564  -0.015  0.00  0.00    -0.033 A 
ATOM      4  C4  <0> d           2.472   1.515  -0.013  0.00  0.00    -0.048 A 
ATOM      5  C5  <0> d           1.105   1.772   0.001  0.00  0.00     0.043 A 
ATOM      6  C6  <0> d           0.654   3.105   0.013  0.00  0.00    -0.008 A 
ATOM      7  C7  <0> d          -0.809   3.037   0.026  0.00  0.00    -0.056 A 
ATOM      8  C8  <0> d          -1.142   1.737   0.016  0.00  0.00    -0.022 A 
ATOM      9  N1  <0> d          -0.011   0.966   0.007  0.00  0.00    -0.365 N 
ATOM     10  H1  <0> d           0.002  -0.004   0.002  0.00  0.00     0.165 HD
ATOM     11  H2  <0> d           1.234   5.176   0.018  0.00  0.00     0.084 H 
ATOM     12  H3  <0> d           3.629   4.688  -0.007  0.00  0.00     0.084 H 
ATOM     13  H4  <0> d           2.832   0.497  -0.022  0.00  0.00     0.087 H 
ATOM     14  H5  <0> d          -1.491   3.874   0.037  0.00  0.00     0.086 H 
ATOM     15  H6  <0> d          -2.152   1.355   0.018  0.00  0.00     0.111 H 
ENDROOT
BRANCH   3  16
ATOM     16  C9  <0> d           4.846   2.283  -0.031  0.00  0.00     0.041 C 
ATOM     17  H7  <0> d           5.032   1.344  -0.551  0.00  0.00     0.081 H 
ATOM     18  H8  <0> d           5.364   3.092  -0.545  0.00  0.00     0.081 H 
BRANCH  16  19
ATOM     19  O1  <0> d           5.326   2.187   1.312  0.00  0.00    -0.396 OA
ATOM     20  H9  <0> d           6.274   2.006   1.378  0.00  0.00     0.209 HD
ENDBRANCH  16  19
ENDBRANCH   3  16
TORSDOF 2
