REMARK  1 active torsions:
REMARK  status: ('A' for Active; 'I' for Inactive)
REMARK    1  A    between atoms: C3_3  and  N2_6 
ROOT
ATOM      1  C1  <0> d          -2.821   3.151   0.033  0.00  0.00     0.053 A 
ATOM      2  C2  <0> d          -1.402   3.020   0.031  0.00  0.00     0.117 A 
ATOM      3  C3  <0> d          -1.209   1.636   0.017  0.00  0.00     0.189 A 
ATOM      4  O1  <0> d          -2.438   1.099   0.020  0.00  0.00    -0.194 OA
ATOM      5  N1  <0> d          -3.300   1.944   0.029  0.00  0.00    -0.137 NA
ATOM      6  C4  <0> d          -0.414   4.056   0.039  0.00  0.00     0.105 C 
ATOM      7  N3  <0> d           0.371   4.878   0.045  0.00  0.00    -0.191 NA
ATOM      8  H1  <0> d          -3.386   4.072   0.041  0.00  0.00     0.120 H 
ENDROOT
BRANCH   3   9
ATOM      9  N2  <0> d          -0.011   0.966   0.007  0.00  0.00    -0.377 N 
ATOM     10  H2  <0> d           0.002  -0.004   0.002  0.00  0.00     0.158 HD
ATOM     11  H3  <0> d           0.822   1.462   0.002  0.00  0.00     0.158 HD
ENDBRANCH   3   9
TORSDOF 1
