REMARK  3 active torsions:
REMARK  status: ('A' for Active; 'I' for Inactive)
REMARK    1  A    between atoms: C1_1  and  C2_2 
REMARK    2  A    between atoms: C2_2  and  C3_3 
REMARK    3  A    between atoms: C3_3  and  C4_5 
ROOT
ATOM      1  C4  <0> d          -1.662  -1.982   0.007  0.00  0.00     0.074 C 
ATOM      2  N1  <0> d          -0.653  -2.758  -0.001  0.00  0.00    -0.290 NA
ATOM      3  C5  <0> d          -0.719  -4.213  -0.020  0.00  0.00     0.015 C 
ATOM      4  C6  <0> d          -2.106  -4.693   0.410  0.00  0.00    -0.048 C 
ATOM      5  C7  <0> d          -3.158  -3.921  -0.398  0.00  0.00    -0.058 C 
ATOM      6  C8  <0> d          -3.089  -2.448   0.018  0.00  0.00    -0.021 C 
ATOM      7  H6  <0> d          -0.511  -4.570  -1.029  0.00  0.00     0.067 H 
ATOM      8  H7  <0> d           0.029  -4.615   0.664  0.00  0.00     0.067 H 
ATOM      9  H8  <0> d          -2.203  -5.761   0.212  0.00  0.00     0.035 H 
ATOM     10  H9  <0> d          -2.248  -4.502   1.474  0.00  0.00     0.035 H 
ATOM     11  H10 <0> d          -2.946  -4.016  -1.463  0.00  0.00     0.033 H 
ATOM     12  H11 <0> d          -4.150  -4.317  -0.183  0.00  0.00     0.033 H 
ATOM     13  H12 <0> d          -3.500  -2.332   1.021  0.00  0.00     0.042 H 
ATOM     14  H13 <0> d          -3.671  -1.848  -0.681  0.00  0.00     0.042 H 
ENDROOT
BRANCH   1  15
ATOM     15  C3  <0> d          -1.412  -0.526   0.013  0.00  0.00     0.173 C 
ATOM     16  O1  <0> d          -2.341   0.247   0.026  0.00  0.00    -0.291 OA
BRANCH  15  17
ATOM     17  C2  <0> d           0.002  -0.004   0.002  0.00  0.00    -0.007 C 
ATOM     18  H4  <0> d           0.512  -0.356  -0.895  0.00  0.00     0.044 H 
ATOM     19  H5  <0> d           0.529  -0.365   0.885  0.00  0.00     0.044 H 
BRANCH  17  20
ATOM     20  C1  <0> d          -0.019   1.526   0.010  0.00  0.00    -0.070 C 
ATOM     21  H1  <0> d           1.004   1.903   0.003  0.00  0.00     0.028 H 
ATOM     22  H2  <0> d          -0.546   1.887  -0.873  0.00  0.00     0.028 H 
ATOM     23  H3  <0> d          -0.529   1.877   0.907  0.00  0.00     0.028 H 
ENDBRANCH  17  20
ENDBRANCH  15  17
ENDBRANCH   1  15
TORSDOF 3
