REMARK  1 active torsions:
REMARK  status: ('A' for Active; 'I' for Inactive)
REMARK    1  A    between atoms: C1_1  and  C2_2 
ROOT
ATOM      1  C2  <0> d          -0.742   1.585  -1.213  0.00  0.00     0.108 A 
ATOM      2  C3  <0> d          -0.049   1.831  -2.400  0.00  0.00     0.227 A 
ATOM      3  N1  <0> d          -0.730   2.271  -3.453  0.00  0.00    -0.212 NA
ATOM      4  C4  <0> d          -2.032   2.462  -3.351  0.00  0.00     0.111 A 
ATOM      5  N2  <0> d          -2.666   2.222  -2.218  0.00  0.00    -0.143 NA
ATOM      6  N3  <0> d          -2.045   1.790  -1.177  0.00  0.00    -0.150 NA
ATOM      7  O1  <0> d           1.288   1.627  -2.475  0.00  0.00    -0.168 OA
ATOM      8  H4  <0> d          -2.587   2.819  -4.206  0.00  0.00     0.149 H 
ENDROOT
BRANCH   1   9
ATOM      9  C1  <0> d          -0.013   1.086   0.008  0.00  0.00    -0.030 C 
ATOM     10  H1  <0> d           0.002  -0.004   0.002  0.00  0.00     0.035 H 
ATOM     11  H2  <0> d           1.010   1.463   0.000  0.00  0.00     0.035 H 
ATOM     12  H3  <0> d          -0.523   1.437   0.905  0.00  0.00     0.035 H 
ENDBRANCH   1   9
TORSDOF 1
