REMARK  1 active torsions:
REMARK  status: ('A' for Active; 'I' for Inactive)
REMARK    1  A    between atoms: C5_5  and  C7_7 
REMARK       I    between atoms: C7_7  and  N1_9 
ROOT
ATOM      1  C1  <0> d           1.175   1.781   0.000  0.00  0.00    -0.081 A 
ATOM      2  C2  <0> d          -0.013   1.076   0.008  0.00  0.00    -0.063 A 
ATOM      3  C3  <0> d          -1.233   1.756   0.017  0.00  0.00     0.045 A 
ATOM      4  C4  <0> d          -1.249   3.150   0.030  0.00  0.00    -0.048 A 
ATOM      5  C5  <0> d          -0.048   3.855   0.022  0.00  0.00     0.033 A 
ATOM      6  C6  <0> d           1.165   3.162   0.007  0.00  0.00    -0.068 A 
ATOM      7  C8  <0> d          -2.463   1.024   0.019  0.00  0.00     0.099 C 
ATOM      8  N2  <0> d          -3.439   0.443   0.021  0.00  0.00    -0.191 NA
ATOM      9  H1  <0> d           2.115   1.250  -0.011  0.00  0.00     0.083 H 
ATOM     10  H2  <0> d           0.002  -0.004   0.002  0.00  0.00     0.085 H 
ATOM     11  H3  <0> d          -2.190   3.681   0.041  0.00  0.00     0.087 H 
ATOM     12  H4  <0> d           2.097   3.707   0.000  0.00  0.00     0.085 H 
ENDROOT
BRANCH   5  13
ATOM     13  C7  <0> d          -0.056   5.333   0.029  0.00  0.00     0.249 C 
ATOM     14  O1  <0> d          -1.112   5.935   0.042  0.00  0.00    -0.268 OA
ATOM     15  N1  <0> d           1.107   6.014   0.022  0.00  0.00    -0.366 N 
ATOM     16  H5  <0> d           1.950   5.533   0.012  0.00  0.00     0.159 HD
ATOM     17  H6  <0> d           1.102   6.984   0.027  0.00  0.00     0.159 HD
ENDBRANCH   5  13
TORSDOF 1
