REMARK  1 active torsions:
REMARK  status: ('A' for Active; 'I' for Inactive)
REMARK    1  A    between atoms: C1_1  and  C2_2 
ROOT
ATOM      1  C2  <0> d           0.002  -0.004   0.002  0.00  0.00     0.009 A 
ATOM      2  C3  <0> d           0.005  -0.646  -1.185  0.00  0.00    -0.012 A 
ATOM      3  C4  <0> d           0.024  -2.060  -1.226  0.00  0.00     0.186 A 
ATOM      4  O1  <0> d           0.027  -2.660  -2.288  0.00  0.00    -0.287 OA
ATOM      5  C5  <0> d           0.041  -2.784   0.057  0.00  0.00     0.041 A 
ATOM      6  C6  <0> d           0.060  -4.178   0.107  0.00  0.00    -0.067 A 
ATOM      7  C7  <0> d           0.076  -4.812   1.318  0.00  0.00    -0.082 A 
ATOM      8  C8  <0> d           0.072  -4.080   2.497  0.00  0.00    -0.081 A 
ATOM      9  C9  <0> d           0.052  -2.703   2.470  0.00  0.00    -0.056 A 
ATOM     10  C10 <0> d           0.037  -2.037   1.248  0.00  0.00     0.046 A 
ATOM     11  N1  <0> d           0.022  -0.662   1.186  0.00  0.00    -0.359 N 
ATOM     12  H1  <0> d           0.023  -0.151   2.011  0.00  0.00     0.166 HD
ATOM     13  H5  <0> d          -0.007  -0.080  -2.104  0.00  0.00     0.092 H 
ATOM     14  H6  <0> d           0.063  -4.754  -0.807  0.00  0.00     0.085 H 
ATOM     15  H7  <0> d           0.090  -5.891   1.357  0.00  0.00     0.083 H 
ATOM     16  H8  <0> d           0.084  -4.596   3.446  0.00  0.00     0.083 H 
ATOM     17  H9  <0> d           0.048  -2.143   3.393  0.00  0.00     0.086 H 
ENDROOT
BRANCH   1  18
ATOM     18  C1  <0> d          -0.018   1.503   0.010  0.00  0.00    -0.037 C 
ATOM     19  H2  <0> d           1.004   1.880   0.003  0.00  0.00     0.035 H 
ATOM     20  H3  <0> d          -0.545   1.864  -0.873  0.00  0.00     0.035 H 
ATOM     21  H4  <0> d          -0.529   1.854   0.907  0.00  0.00     0.035 H 
ENDBRANCH   1  18
TORSDOF 1
