REMARK  5 active torsions:
REMARK  status: ('A' for Active; 'I' for Inactive)
REMARK    1  A    between atoms: C1_1  and  C2_2 
REMARK    2  A    between atoms: C2_2  and  C3_3 
REMARK    3  A    between atoms: C2_2  and  O1_4 
REMARK    4  A    between atoms: O1_4  and  C4_5 
REMARK    5  A    between atoms: C4_5  and  C5_7 
ROOT
ATOM      1  C5  <0> d           1.228   3.579   0.010  0.00  0.00     0.095 C 
ATOM      2  C6  <0> d           2.634   4.016  -0.002  0.00  0.00     0.069 C 
ATOM      3  N1  <0> d           3.719   4.353  -0.010  0.00  0.00    -0.197 NA
ATOM      4  H8  <0> d           0.721   3.967  -0.874  0.00  0.00     0.070 H 
ATOM      5  H9  <0> d           0.738   3.957   0.906  0.00  0.00     0.070 H 
ENDROOT
BRANCH   1   6
ATOM      6  C4  <0> d           1.170   2.073   0.002  0.00  0.00     0.272 C 
ATOM      7  O2  <0> d           2.192   1.429  -0.011  0.00  0.00    -0.264 OA
BRANCH   6   8
ATOM      8  O1  <0> d          -0.018   1.448   0.010  0.00  0.00    -0.316 OA
BRANCH   8   9
ATOM      9  C2  <0> d           0.002  -0.004   0.002  0.00  0.00     0.041 C 
ATOM     10  H4  <0> d           0.892  -0.352  -0.522  0.00  0.00     0.083 H 
BRANCH   9  11
ATOM     11  C1  <0> d           0.023  -0.522   1.442  0.00  0.00    -0.052 C 
ATOM     12  H1  <0> d          -0.867  -0.173   1.966  0.00  0.00     0.030 H 
ATOM     13  H2  <0> d           0.037  -1.612   1.436  0.00  0.00     0.030 H 
ATOM     14  H3  <0> d           0.913  -0.149   1.949  0.00  0.00     0.030 H 
ENDBRANCH   9  11
BRANCH   9  15
ATOM     15  C3  <0> d          -1.247  -0.527  -0.710  0.00  0.00    -0.052 C 
ATOM     16  H5  <0> d          -1.262  -0.158  -1.736  0.00  0.00     0.030 H 
ATOM     17  H6  <0> d          -1.232  -1.617  -0.716  0.00  0.00     0.030 H 
ATOM     18  H7  <0> d          -2.137  -0.179  -0.186  0.00  0.00     0.030 H 
ENDBRANCH   9  15
ENDBRANCH   8   9
ENDBRANCH   6   8
ENDBRANCH   1   6
TORSDOF 5
