REMARK  4 active torsions:
REMARK  status: ('A' for Active; 'I' for Inactive)
REMARK    1  A    between atoms: C1_1  and  C2_2 
REMARK    2  A    between atoms: C2_2  and  C3_3 
REMARK    3  A    between atoms: C3_3  and  C6_8 
REMARK    4  A    between atoms: C6_8  and  C7_9 
ROOT
ATOM      1  C3  <0> d          -1.508   2.426  -0.627  0.00  0.00     0.163 C 
ATOM      2  O1  <0> d          -0.954   1.199  -1.119  0.00  0.00    -0.353 OA
ATOM      3  C4  <0> d          -0.316   0.540  -0.007  0.00  0.00     0.043 C 
ATOM      4  C5  <0> d          -1.004   1.178   1.225  0.00  0.00     0.043 C 
ATOM      5  O2  <0> d          -1.206   2.541   0.774  0.00  0.00    -0.353 OA
ATOM      6  H6  <0> d          -0.500  -0.534  -0.038  0.00  0.00     0.077 H 
ATOM      7  H7  <0> d           0.755   0.745  -0.000  0.00  0.00     0.077 H 
ATOM      8  H8  <0> d          -1.957   0.693   1.435  0.00  0.00     0.077 H 
ATOM      9  H9  <0> d          -0.350   1.146   2.097  0.00  0.00     0.077 H 
ENDROOT
BRANCH   1  10
ATOM     10  C2  <0> d          -0.895   3.607  -1.383  0.00  0.00    -0.016 C 
ATOM     11  H4  <0> d          -1.127   3.517  -2.445  0.00  0.00     0.040 H 
ATOM     12  H5  <0> d          -1.309   4.539  -0.998  0.00  0.00     0.040 H 
BRANCH  10  13
ATOM     13  C1  <0> d           0.623   3.604  -1.190  0.00  0.00    -0.072 C 
ATOM     14  H1  <0> d           1.036   2.672  -1.575  0.00  0.00     0.027 H 
ATOM     15  H2  <0> d           1.059   4.445  -1.729  0.00  0.00     0.027 H 
ATOM     16  H3  <0> d           0.854   3.693  -0.129  0.00  0.00     0.027 H 
ENDBRANCH  10  13
ENDBRANCH   1  10
BRANCH   1  17
ATOM     17  C6  <0> d          -3.025   2.422  -0.828  0.00  0.00    -0.016 C 
ATOM     18  H10 <0> d          -3.458   1.571  -0.303  0.00  0.00     0.040 H 
ATOM     19  H11 <0> d          -3.446   3.346  -0.431  0.00  0.00     0.040 H 
BRANCH  17  20
ATOM     20  C7  <0> d          -3.341   2.317  -2.321  0.00  0.00    -0.072 C 
ATOM     21  H12 <0> d          -3.005   3.222  -2.828  0.00  0.00     0.027 H 
ATOM     22  H13 <0> d          -2.828   1.453  -2.741  0.00  0.00     0.027 H 
ATOM     23  H14 <0> d          -4.417   2.203  -2.457  0.00  0.00     0.027 H 
ENDBRANCH  17  20
ENDBRANCH   1  17
TORSDOF 4
