REMARK  2 active torsions:
REMARK  status: ('A' for Active; 'I' for Inactive)
REMARK    1  A    between atoms: C6_9  and  C8_11 
REMARK    2  A    between atoms: C8_11  and  O1_12 
ROOT
ATOM      1  C1  <0> d           0.763   7.208  -0.149  0.00  0.00    -0.038 A 
ATOM      2  C2  <0> d           0.738   7.352  -1.485  0.00  0.00    -0.020 A 
ATOM      3  N1  <0> d           0.845   6.130  -2.087  0.00  0.00    -0.364 N 
ATOM      4  H1  <0> d           0.850   5.979  -3.045  0.00  0.00     0.165 HD
ATOM      5  C3  <0> d           0.944   5.146  -1.130  0.00  0.00     0.061 A 
ATOM      6  C4  <0> d           0.897   5.777   0.128  0.00  0.00     0.084 A 
ATOM      7  N2  <0> d           0.974   5.059   1.244  0.00  0.00    -0.258 NA
ATOM      8  C5  <0> d           1.094   3.749   1.210  0.00  0.00     0.011 A 
ATOM      9  C6  <0> d           1.147   3.062   0.008  0.00  0.00    -0.015 A 
ATOM     10  C7  <0> d           1.077   3.761  -1.184  0.00  0.00    -0.045 A 
ATOM     11  H2  <0> d           0.697   8.000   0.583  0.00  0.00     0.089 H 
ATOM     12  H3  <0> d           0.646   8.293  -2.006  0.00  0.00     0.111 H 
ATOM     13  H4  <0> d           1.153   3.199   2.138  0.00  0.00     0.115 H 
ATOM     14  H5  <0> d           1.121   3.246  -2.132  0.00  0.00     0.088 H 
ENDROOT
BRANCH   9  15
ATOM     15  C8  <0> d           1.286   1.562  -0.002  0.00  0.00     0.042 C 
ATOM     16  H6  <0> d           1.840   1.243   0.881  0.00  0.00     0.081 H 
ATOM     17  H7  <0> d           1.823   1.252  -0.899  0.00  0.00     0.081 H 
BRANCH  15  18
ATOM     18  O1  <0> d          -0.011   0.963   0.007  0.00  0.00    -0.396 OA
ATOM     19  H8  <0> d           0.002  -0.004   0.002  0.00  0.00     0.209 HD
ENDBRANCH  15  18
ENDBRANCH   9  15
TORSDOF 2
