REMARK  6 active torsions:
REMARK  status: ('A' for Active; 'I' for Inactive)
REMARK    1  A    between atoms: C1_1  and  C2_2 
REMARK    2  A    between atoms: C2_2  and  C3_3 
REMARK    3  A    between atoms: C3_3  and  C4_5 
REMARK    4  A    between atoms: C3_3  and  O2_8 
REMARK       I    between atoms: C4_5  and  N1_7 
REMARK    5  A    between atoms: O2_8  and  C5_9 
REMARK    6  A    between atoms: C5_9  and  C6_10 
ROOT
ATOM      1  C3  <0> d          -0.068   1.127   2.404  0.00  0.00     0.114 C 
ATOM      2  H1  <0> d           0.420   0.165   2.187  0.00  0.00     0.098 H 
ENDROOT
BRANCH   1   3
ATOM      3  C2  <0> d          -1.136   0.987   3.490  0.00  0.00    -0.036 C 
ATOM      4  H5  <0> d          -1.692   1.931   3.582  0.00  0.00     0.036 H 
ATOM      5  H6  <0> d          -0.654   0.751   4.450  0.00  0.00     0.036 H 
BRANCH   3   6
ATOM      6  C1  <0> d          -2.102  -0.139   3.114  0.00  0.00    -0.074 C 
ATOM      7  H2  <0> d          -2.870  -0.240   3.895  0.00  0.00     0.027 H 
ATOM      8  H3  <0> d          -1.545  -1.084   3.023  0.00  0.00     0.027 H 
ATOM      9  H4  <0> d          -2.584   0.097   2.154  0.00  0.00     0.027 H 
ENDBRANCH   3   6
ENDBRANCH   1   3
BRANCH   1  10
ATOM     10  C4  <0> d           0.952   2.150   2.832  0.00  0.00     0.244 C 
ATOM     11  O1  <0> d           1.072   3.184   2.208  0.00  0.00    -0.271 OA
ATOM     12  N1  <0> d           1.731   1.917   3.906  0.00  0.00    -0.368 N 
ATOM     13  H7  <0> d           2.476   2.664   4.218  0.00  0.00     0.159 HD
ATOM     14  H8  <0> d           1.623   0.979   4.471  0.00  0.00     0.159 HD
ENDBRANCH   1  10
BRANCH   1  15
ATOM     15  O2  <0> d          -0.682   1.547   1.184  0.00  0.00    -0.377 OA
BRANCH  15  16
ATOM     16  C5  <0> d          -0.013   1.086   0.008  0.00  0.00     0.017 C 
ATOM     17  H9  <0> d           1.019   1.466   0.000  0.00  0.00     0.073 H 
ATOM     18  H10 <0> d           0.002  -0.014   0.002  0.00  0.00     0.073 H 
BRANCH  16  19
ATOM     19  C6  <0> d          -0.753   1.593  -1.232  0.00  0.00    -0.056 C 
ATOM     20  H11 <0> d          -0.238   1.238  -2.136  0.00  0.00     0.030 H 
ATOM     21  H12 <0> d          -0.768   2.693  -1.225  0.00  0.00     0.030 H 
ATOM     22  H13 <0> d          -1.785   1.212  -1.224  0.00  0.00     0.030 H 
ENDBRANCH  16  19
ENDBRANCH  15  16
ENDBRANCH   1  15
TORSDOF 6
