REMARK  1 active torsions:
REMARK  status: ('A' for Active; 'I' for Inactive)
REMARK    1  A    between atoms: C6_6  and  O1_7 
ROOT
ATOM      1  C1  <0> d          -1.216   1.748   0.017  0.00  0.00    -0.050 A 
ATOM      2  C2  <0> d          -0.013   1.076   0.008  0.00  0.00    -0.059 A 
ATOM      3  C3  <0> d           1.186   1.789   0.000  0.00  0.00     0.065 A 
ATOM      4  C4  <0> d           1.160   3.199   0.008  0.00  0.00     0.068 A 
ATOM      5  C5  <0> d          -0.063   3.864   0.022  0.00  0.00    -0.029 A 
ATOM      6  C6  <0> d          -1.245   3.138   0.030  0.00  0.00     0.067 A 
ATOM      7  C7  <0> d           2.384   3.942   0.001  0.00  0.00     0.101 C 
ATOM      8  N1  <0> d           3.355   4.532  -0.005  0.00  0.00    -0.191 NA
ATOM      9  C8  <0> d           2.438   1.093  -0.015  0.00  0.00     0.101 C 
ATOM     10  N2  <0> d           3.430   0.541  -0.028  0.00  0.00    -0.191 NA
ATOM     11  H1  <0> d          -2.142   1.192   0.019  0.00  0.00     0.087 H 
ATOM     12  H2  <0> d           0.002  -0.004   0.002  0.00  0.00     0.086 H 
ATOM     13  H3  <0> d          -0.091   4.943   0.028  0.00  0.00     0.090 H 
ENDROOT
BRANCH   6  14
ATOM     14  O1  <0> d          -2.437   3.789   0.044  0.00  0.00    -0.361 OA
ATOM     15  H4  <0> d          -2.791   3.982  -0.835  0.00  0.00     0.217 HD
ENDBRANCH   6  14
TORSDOF 1
