REMARK  2 active torsions:
REMARK  status: ('A' for Active; 'I' for Inactive)
REMARK    1  A    between atoms: C1_1  and  N1_2 
REMARK    2  A    between atoms: C3_4  and  N2_9 
ROOT
ATOM      1  N1  <0> d           2.386   0.021  -0.021  0.00  0.00    -0.327 N 
ATOM      2  C2  <0> d           2.376   1.381  -0.014  0.00  0.00     0.007 A 
ATOM      3  C3  <0> d           1.201   2.063   0.002  0.00  0.00     0.041 A 
ATOM      4  C4  <0> d          -0.016   1.359   0.009  0.00  0.00    -0.051 A 
ATOM      5  C5  <0> d           0.002  -0.004   0.002  0.00  0.00    -0.015 A 
ATOM      6  C6  <0> d           1.235  -0.677  -0.013  0.00  0.00     0.247 A 
ATOM      7  O1  <0> d           1.262  -1.898  -0.021  0.00  0.00    -0.268 OA
ATOM      8  H4  <0> d           3.310   1.924  -0.020  0.00  0.00     0.115 H 
ATOM      9  H5  <0> d          -0.956   1.893   0.017  0.00  0.00     0.087 H 
ATOM     10  H6  <0> d          -0.923  -0.561   0.007  0.00  0.00     0.092 H 
ENDROOT
BRANCH   1  11
ATOM     11  C1  <0> d           3.666  -0.693  -0.037  0.00  0.00    -0.011 C 
ATOM     12  H1  <0> d           4.491   0.034  -0.041  0.00  0.00     0.057 H 
ATOM     13  H2  <0> d           3.724  -1.320  -0.939  0.00  0.00     0.057 H 
ATOM     14  H3  <0> d           3.741  -1.330   0.857  0.00  0.00     0.057 H 
ENDBRANCH   1  11
BRANCH   3  15
ATOM     15  N2  <0> d           1.202   3.466   0.009  0.00  0.00    -0.398 N 
ATOM     16  H7  <0> d           0.250   4.017   0.021  0.00  0.00     0.156 HD
ATOM     17  H8  <0> d           2.155   4.016   0.002  0.00  0.00     0.156 HD
ENDBRANCH   3  15
TORSDOF 2
