REMARK  8 active torsions:
REMARK  status: ('A' for Active; 'I' for Inactive)
REMARK    1  A    between atoms: C1_1  and  C2_2 
REMARK    2  A    between atoms: C2_2  and  C3_3 
REMARK    3  A    between atoms: C3_3  and  C4_4 
REMARK    4  A    between atoms: C4_4  and  C5_5 
REMARK    5  A    between atoms: C5_5  and  C6_7 
REMARK    6  A    between atoms: C5_5  and  C7_8 
REMARK    7  A    between atoms: C7_8  and  C8_9 
REMARK    8  A    between atoms: C8_9  and  C9_10 
ROOT
ATOM      1  C5  <0> d          -0.013   1.086   0.008  0.00  0.00    -0.057 C 
ATOM      2  H1  <0> d           0.002  -0.004   0.002  0.00  0.00     0.039 H 
ENDROOT
BRANCH   1   3
ATOM      3  C4  <0> d          -0.753   1.593  -1.232  0.00  0.00    -0.062 C 
ATOM      4  H9  <0> d          -0.845   2.678  -1.181  0.00  0.00     0.033 H 
ATOM      5  H10 <0> d          -0.194   1.317  -2.126  0.00  0.00     0.033 H 
BRANCH   3   6
ATOM      6  C3  <0> d          -2.147   0.964  -1.286  0.00  0.00    -0.065 C 
ATOM      7  H7  <0> d          -2.054  -0.121  -1.336  0.00  0.00     0.033 H 
ATOM      8  H8  <0> d          -2.705   1.240  -0.391  0.00  0.00     0.033 H 
BRANCH   6   9
ATOM      9  C2  <0> d          -2.886   1.471  -2.526  0.00  0.00    -0.069 C 
ATOM     10  H5  <0> d          -2.979   2.556  -2.475  0.00  0.00     0.032 H 
ATOM     11  H6  <0> d          -2.328   1.195  -3.420  0.00  0.00     0.032 H 
BRANCH   9  12
ATOM     12  C1  <0> d          -4.280   0.842  -2.580  0.00  0.00    -0.077 C 
ATOM     13  H2  <0> d          -4.838   1.118  -1.685  0.00  0.00     0.027 H 
ATOM     14  H3  <0> d          -4.807   1.203  -3.463  0.00  0.00     0.027 H 
ATOM     15  H4  <0> d          -4.188  -0.243  -2.630  0.00  0.00     0.027 H 
ENDBRANCH   9  12
ENDBRANCH   6   9
ENDBRANCH   3   6
ENDBRANCH   1   3
BRANCH   1  16
ATOM     16  C6  <0> d          -0.729   1.579   1.267  0.00  0.00    -0.073 C 
ATOM     17  H11 <0> d          -0.744   2.669   1.273  0.00  0.00     0.028 H 
ATOM     18  H12 <0> d          -1.751   1.202   1.275  0.00  0.00     0.028 H 
ATOM     19  H13 <0> d          -0.202   1.218   2.150  0.00  0.00     0.028 H 
ENDBRANCH   1  16
BRANCH   1  20
ATOM     20  C7  <0> d           1.423   1.615  -0.003  0.00  0.00    -0.053 C 
ATOM     21  H14 <0> d           1.905   1.339  -0.940  0.00  0.00     0.034 H 
ATOM     22  H15 <0> d           1.410   2.701   0.093  0.00  0.00     0.034 H 
BRANCH  20  23
ATOM     23  C8  <0> d           2.199   1.009   1.168  0.00  0.00     0.016 C 
ATOM     24  H16 <0> d           1.716   1.286   2.106  0.00  0.00     0.049 H 
ATOM     25  H17 <0> d           2.211  -0.076   1.073  0.00  0.00     0.049 H 
BRANCH  23  26
ATOM     26  C9  <0> d           3.613   1.531   1.157  0.00  0.00     0.172 C 
ATOM     27  O1  <0> d           3.963   2.308   0.301  0.00  0.00    -0.648 OA
ATOM     28  O2  <0> d           4.482   1.133   2.099  0.00  0.00    -0.648 OA
ENDBRANCH  23  26
ENDBRANCH  20  23
ENDBRANCH   1  20
TORSDOF 8
