REMARK  4 active torsions:
REMARK  status: ('A' for Active; 'I' for Inactive)
REMARK    1  A    between atoms: C1_1  and  C2_2 
REMARK    2  A    between atoms: C2_2  and  O1_3 
REMARK    3  A    between atoms: O1_3  and  C3_4 
REMARK    4  A    between atoms: C3_4  and  C4_6 
ROOT
ATOM      1  C3  <0> d           0.002  -0.004   0.002  0.00  0.00     0.317 C 
ATOM      2  O2  <0> d           1.063  -0.598  -0.011  0.00  0.00    -0.257 OA
ENDROOT
BRANCH   1   3
ATOM      3  O1  <0> d          -0.016   1.345   0.009  0.00  0.00    -0.316 OA
BRANCH   3   4
ATOM      4  C2  <0> d           1.268   2.022   0.001  0.00  0.00     0.026 C 
ATOM      5  H4  <0> d           1.838   1.732   0.884  0.00  0.00     0.074 H 
ATOM      6  H5  <0> d           1.821   1.741  -0.896  0.00  0.00     0.074 H 
BRANCH   4   7
ATOM      7  C1  <0> d           1.047   3.535   0.011  0.00  0.00    -0.056 C 
ATOM      8  H1  <0> d           0.495   3.816   0.908  0.00  0.00     0.030 H 
ATOM      9  H2  <0> d           2.012   4.043   0.005  0.00  0.00     0.030 H 
ATOM     10  H3  <0> d           0.478   3.825  -0.872  0.00  0.00     0.030 H 
ENDBRANCH   4   7
ENDBRANCH   3   4
ENDBRANCH   1   3
BRANCH   1  11
ATOM     11  C4  <0> d          -1.256  -0.754   0.010  0.00  0.00     0.149 A 
ATOM     12  O3  <0> d          -2.496  -0.222   0.031  0.00  0.00    -0.317 OA
ATOM     13  C7  <0> d          -3.403  -1.207   0.029  0.00  0.00     0.020 A 
ATOM     14  C6  <0> d          -2.756  -2.394   0.016  0.00  0.00    -0.059 A 
ATOM     15  H8  <0> d          -4.475  -1.076   0.041  0.00  0.00     0.123 H 
ATOM     16  C5  <0> d          -1.381  -2.114   0.004  0.00  0.00    -0.042 A 
ATOM     17  H7  <0> d          -3.211  -3.373   0.015  0.00  0.00     0.086 H 
ATOM     18  H6  <0> d          -0.576  -2.835  -0.008  0.00  0.00     0.088 H 
ENDBRANCH   1  11
TORSDOF 4
