REMARK  2 active torsions:
REMARK  status: ('A' for Active; 'I' for Inactive)
REMARK    1  A    between atoms: C1_1  and  C2_2 
REMARK    2  A    between atoms: C4_4  and  N2_7 
ROOT
ATOM      1  C2  <0> d          -0.017   1.404   0.010  0.00  0.00     0.062 A 
ATOM      2  C3  <0> d           0.002  -0.004   0.002  0.00  0.00    -0.006 A 
ATOM      3  C4  <0> d           1.333  -0.315  -0.012  0.00  0.00     0.168 A 
ATOM      4  O1  <0> d           1.991   0.856  -0.012  0.00  0.00    -0.196 OA
ATOM      5  N1  <0> d           1.228   1.793  -0.000  0.00  0.00    -0.131 NA
ATOM      6  H4  <0> d          -0.839  -0.681   0.006  0.00  0.00     0.093 H 
ENDROOT
BRANCH   1   7
ATOM      7  C1  <0> d          -1.237   2.289   0.021  0.00  0.00    -0.033 C 
ATOM      8  H1  <0> d          -1.526   2.497   1.051  0.00  0.00     0.035 H 
ATOM      9  H2  <0> d          -1.011   3.225  -0.489  0.00  0.00     0.035 H 
ATOM     10  H3  <0> d          -2.056   1.784  -0.492  0.00  0.00     0.035 H 
ENDBRANCH   1   7
BRANCH   3  11
ATOM     11  N2  <0> d           1.890  -1.580  -0.025  0.00  0.00    -0.378 N 
ATOM     12  H5  <0> d           1.316  -2.362  -0.024  0.00  0.00     0.158 HD
ATOM     13  H6  <0> d           2.854  -1.685  -0.035  0.00  0.00     0.158 HD
ENDBRANCH   3  11
TORSDOF 2
