REMARK  1 active torsions:
REMARK  status: ('A' for Active; 'I' for Inactive)
REMARK    1  A    between atoms: C4_6  and  C5_7 
ROOT
ATOM      1  C1  <0> d          -0.013   1.076   0.008  0.00  0.00    -0.031 A 
ATOM      2  C2  <0> d           1.169   1.804   0.001  0.00  0.00     0.006 A 
ATOM      3  N1  <0> d           1.111   3.125   0.008  0.00  0.00    -0.254 NA
ATOM      4  C3  <0> d          -0.047   3.755   0.023  0.00  0.00     0.087 A 
ATOM      5  N2  <0> d          -1.192   3.106   0.030  0.00  0.00    -0.235 NA
ATOM      6  C4  <0> d          -1.220   1.775   0.017  0.00  0.00     0.135 A 
ATOM      7  H1  <0> d           0.002  -0.004   0.002  0.00  0.00     0.089 H 
ATOM      8  H2  <0> d           2.123   1.298  -0.012  0.00  0.00     0.114 H 
ATOM      9  H3  <0> d          -0.057   4.835   0.029  0.00  0.00     0.146 H 
ENDROOT
BRANCH   6  10
ATOM     10  C5  <0> d          -2.513   1.048   0.019  0.00  0.00     0.229 C 
ATOM     11  O1  <0> d          -2.527  -0.166   0.012  0.00  0.00    -0.643 OA
ATOM     12  O2  <0> d          -3.671   1.734   0.028  0.00  0.00    -0.643 OA
ENDBRANCH   6  10
TORSDOF 1
