REMARK  2 active torsions:
REMARK  status: ('A' for Active; 'I' for Inactive)
REMARK    1  A    between atoms: C3_3  and  N1_12 
REMARK    2  A    between atoms: C8_8  and  O1_11 
ROOT
ATOM      1  C1  <0> d           2.441   0.057  -0.021  0.00  0.00    -0.070 A 
ATOM      2  C2  <0> d           2.396   1.416  -0.014  0.00  0.00    -0.057 A 
ATOM      3  C3  <0> d           1.173   2.095   0.002  0.00  0.00     0.026 A 
ATOM      4  C4  <0> d          -0.017   1.400   0.010  0.00  0.00    -0.047 A 
ATOM      5  C5  <0> d           0.002  -0.004   0.002  0.00  0.00    -0.024 A 
ATOM      6  C6  <0> d           1.246  -0.684  -0.013  0.00  0.00    -0.023 A 
ATOM      7  C7  <0> d           1.264  -2.089  -0.021  0.00  0.00    -0.040 A 
ATOM      8  C8  <0> d           0.086  -2.779  -0.014  0.00  0.00     0.066 A 
ATOM      9  C9  <0> d          -1.140  -2.106   0.002  0.00  0.00    -0.050 A 
ATOM     10  C10 <0> d          -1.192  -0.747   0.009  0.00  0.00    -0.070 A 
ATOM     11  H1  <0> d           3.393  -0.453  -0.034  0.00  0.00     0.084 H 
ATOM     12  H2  <0> d           3.318   1.979  -0.020  0.00  0.00     0.086 H 
ATOM     13  H3  <0> d          -0.957   1.931   0.017  0.00  0.00     0.088 H 
ATOM     14  H4  <0> d           2.204  -2.620  -0.033  0.00  0.00     0.089 H 
ATOM     15  H5  <0> d          -2.059  -2.674   0.007  0.00  0.00     0.087 H 
ATOM     16  H6  <0> d          -2.146  -0.241   0.021  0.00  0.00     0.085 H 
ENDROOT
BRANCH   3  17
ATOM     17  N1  <0> d           1.157   3.492   0.010  0.00  0.00    -0.399 N 
ATOM     18  H8  <0> d           0.312   3.968   0.020  0.00  0.00     0.156 HD
ATOM     19  H9  <0> d           1.992   3.986   0.004  0.00  0.00     0.156 HD
ENDBRANCH   3  17
BRANCH   8  20
ATOM     20  O1  <0> d           0.105  -4.138  -0.021  0.00  0.00    -0.361 OA
ATOM     21  H7  <0> d           0.118  -4.536   0.861  0.00  0.00     0.217 HD
ENDBRANCH   8  20
TORSDOF 2
