REMARK  4 active torsions:
REMARK  status: ('A' for Active; 'I' for Inactive)
REMARK    1  A    between atoms: C1_1  and  C2_2 
REMARK    2  A    between atoms: C2_2  and  C3_3 
REMARK    3  A    between atoms: C3_3  and  N1_4 
REMARK    4  A    between atoms: C4_5  and  C8_11 
ROOT
ATOM      1  N1  <0> d           0.738  -1.962  -1.265  0.00  0.00    -0.348 N 
ATOM      2  C4  <0> d           1.801  -2.779  -0.668  0.00  0.00     0.011 C 
ATOM      3  H1  <0> d           2.075  -2.386   0.311  0.00  0.00     0.072 H 
ATOM      4  C5  <0> d           1.202  -4.196  -0.527  0.00  0.00    -0.038 C 
ATOM      5  C6  <0> d           0.123  -4.194  -1.634  0.00  0.00     0.011 C 
ATOM      6  C7  <0> d          -0.218  -2.731  -1.814  0.00  0.00     0.220 C 
ATOM      7  O1  <0> d          -1.209  -2.312  -2.375  0.00  0.00    -0.273 OA
ATOM      8  H9  <0> d           1.956  -4.960  -0.720  0.00  0.00     0.036 H 
ATOM      9  H10 <0> d           0.753  -4.334   0.456  0.00  0.00     0.036 H 
ATOM     10  H11 <0> d           0.522  -4.613  -2.558  0.00  0.00     0.047 H 
ATOM     11  H12 <0> d          -0.757  -4.750  -1.310  0.00  0.00     0.047 H 
ENDROOT
BRANCH   1  12
ATOM     12  C3  <0> d           0.718  -0.497  -1.257  0.00  0.00    -0.002 C 
ATOM     13  H7  <0> d           0.191  -0.136  -2.140  0.00  0.00     0.064 H 
ATOM     14  H8  <0> d           1.741  -0.120  -1.264  0.00  0.00     0.064 H 
BRANCH  12  15
ATOM     15  C2  <0> d           0.002  -0.004   0.002  0.00  0.00    -0.053 C 
ATOM     16  H5  <0> d           0.529  -0.365   0.885  0.00  0.00     0.034 H 
ATOM     17  H6  <0> d          -1.020  -0.381   0.010  0.00  0.00     0.034 H 
BRANCH  15  18
ATOM     18  C1  <0> d          -0.019   1.526   0.010  0.00  0.00    -0.075 C 
ATOM     19  H2  <0> d           1.004   1.903   0.003  0.00  0.00     0.027 H 
ATOM     20  H3  <0> d          -0.546   1.887  -0.873  0.00  0.00     0.027 H 
ATOM     21  H4  <0> d          -0.529   1.877   0.907  0.00  0.00     0.027 H 
ENDBRANCH  15  18
ENDBRANCH  12  15
ENDBRANCH   1  12
BRANCH   2  22
ATOM     22  C8  <0> d           3.025  -2.809  -1.587  0.00  0.00    -0.057 C 
ATOM     23  H13 <0> d           3.394  -1.794  -1.732  0.00  0.00     0.030 H 
ATOM     24  H14 <0> d           3.806  -3.418  -1.132  0.00  0.00     0.030 H 
ATOM     25  H15 <0> d           2.746  -3.235  -2.550  0.00  0.00     0.030 H 
ENDBRANCH   2  22
TORSDOF 4
