REMARK  4 active torsions:
REMARK  status: ('A' for Active; 'I' for Inactive)
REMARK    1  A    between atoms: C1_1  and  C2_2 
REMARK    2  A    between atoms: C2_2  and  C8_11 
REMARK    3  A    between atoms: C5_7  and  C6_9 
REMARK    4  A    between atoms: C5_7  and  C7_10 
ROOT
ATOM      1  C2  <0> d           0.002  -0.004   0.002  0.00  0.00     0.173 C 
ATOM      2  C3  <0> d          -1.432  -0.528  -0.088  0.00  0.00     0.062 C 
ATOM      3  O1  <0> d          -2.098  -0.268   1.155  0.00  0.00    -0.317 OA
ATOM      4  C4  <0> d          -1.495  -0.843   2.218  0.00  0.00     0.297 C 
ATOM      5  O2  <0> d          -2.122  -1.545   2.979  0.00  0.00    -0.262 OA
ATOM      6  C5  <0> d          -0.022  -0.588   2.430  0.00  0.00     0.237 C 
ATOM      7  N1  <0> d           0.699  -0.522   1.168  0.00  0.00     0.113 N 
ATOM      8  H4  <0> d          -1.958  -0.018  -0.895  0.00  0.00     0.079 H 
ATOM      9  H5  <0> d          -1.421  -1.600  -0.280  0.00  0.00     0.079 H 
ATOM     10  H6  <0> d           1.200  -1.375   0.968  0.00  0.00     0.318 HD
ENDROOT
BRANCH   1  11
ATOM     11  C1  <0> d          -0.019   1.528   0.010  0.00  0.00    -0.041 C 
ATOM     12  H1  <0> d           1.004   1.905   0.003  0.00  0.00     0.031 H 
ATOM     13  H2  <0> d          -0.546   1.889  -0.873  0.00  0.00     0.031 H 
ATOM     14  H3  <0> d          -0.529   1.880   0.907  0.00  0.00     0.031 H 
ENDBRANCH   1  11
BRANCH   1  15
ATOM     15  C8  <0> d           0.755  -0.458  -1.264  0.00  0.00    -0.041 C 
ATOM     16  H13 <0> d           1.772  -0.067  -1.242  0.00  0.00     0.031 H 
ATOM     17  H14 <0> d           0.786  -1.548  -1.297  0.00  0.00     0.031 H 
ATOM     18  H15 <0> d           0.239  -0.083  -2.147  0.00  0.00     0.031 H 
ENDBRANCH   1  15
BRANCH   6  19
ATOM     19  C6  <0> d           0.162   0.706   3.233  0.00  0.00    -0.034 C 
ATOM     20  H7  <0> d          -0.334   0.608   4.199  0.00  0.00     0.031 H 
ATOM     21  H8  <0> d           1.225   0.891   3.387  0.00  0.00     0.031 H 
ATOM     22  H9  <0> d          -0.276   1.540   2.684  0.00  0.00     0.031 H 
ENDBRANCH   6  19
BRANCH   6  23
ATOM     23  C7  <0> d           0.550  -1.748   3.269  0.00  0.00    -0.034 C 
ATOM     24  H10 <0> d           0.406  -2.688   2.736  0.00  0.00     0.031 H 
ATOM     25  H11 <0> d           1.615  -1.585   3.435  0.00  0.00     0.031 H 
ATOM     26  H12 <0> d           0.035  -1.792   4.228  0.00  0.00     0.031 H 
ENDBRANCH   6  23
TORSDOF 4
