REMARK  5 active torsions:
REMARK  status: ('A' for Active; 'I' for Inactive)
REMARK    1  A    between atoms: C1_1  and  C2_2 
REMARK    2  A    between atoms: C2_2  and  C3_3 
REMARK    3  A    between atoms: C3_3  and  C4_4 
REMARK    4  A    between atoms: C4_4  and  N1_5 
REMARK    5  A    between atoms: C5_6  and  C7_10 
ROOT
ATOM      1  C4  <0> d          -1.498   4.354   0.040  0.00  0.00     0.018 C 
ATOM      2  H8  <0> d          -2.430   4.134   0.561  0.00  0.00     0.067 H 
ATOM      3  H9  <0> d          -0.976   5.161   0.553  0.00  0.00     0.067 H 
ENDROOT
BRANCH   1   4
ATOM      4  C3  <0> d          -1.806   4.778  -1.397  0.00  0.00    -0.049 C 
ATOM      5  H6  <0> d          -0.875   4.997  -1.919  0.00  0.00     0.035 H 
ATOM      6  H7  <0> d          -2.329   3.971  -1.911  0.00  0.00     0.035 H 
BRANCH   4   7
ATOM      7  C2  <0> d          -2.689   6.028  -1.382  0.00  0.00    -0.067 C 
ATOM      8  H4  <0> d          -3.620   5.809  -0.861  0.00  0.00     0.032 H 
ATOM      9  H5  <0> d          -2.166   6.835  -0.869  0.00  0.00     0.032 H 
BRANCH   7  10
ATOM     10  C1  <0> d          -2.997   6.452  -2.820  0.00  0.00    -0.076 C 
ATOM     11  H1  <0> d          -2.065   6.672  -3.341  0.00  0.00     0.027 H 
ATOM     12  H2  <0> d          -3.519   5.645  -3.333  0.00  0.00     0.027 H 
ATOM     13  H3  <0> d          -3.625   7.343  -2.809  0.00  0.00     0.027 H 
ENDBRANCH   7  10
ENDBRANCH   4   7
ENDBRANCH   1   4
BRANCH   1  14
ATOM     14  N1  <0> d          -0.654   3.157   0.025  0.00  0.00    -0.255 N 
ATOM     15  N3  <0> d          -1.087   1.821   0.017  0.00  0.00    -0.164 NA
ATOM     16  C6  <0> d          -0.013   1.076   0.008  0.00  0.00     0.108 A 
ATOM     17  N2  <0> d           1.061   1.865   0.002  0.00  0.00    -0.226 NA
ATOM     18  H10 <0> d           0.002  -0.004   0.002  0.00  0.00     0.149 H 
ATOM     19  C5  <0> d           0.690   3.119   0.012  0.00  0.00     0.120 A 
BRANCH  19  20
ATOM     20  C7  <0> d           1.609   4.314   0.010  0.00  0.00    -0.020 C 
ATOM     21  H11 <0> d           1.821   4.608  -1.018  0.00  0.00     0.037 H 
ATOM     22  H12 <0> d           1.130   5.141   0.533  0.00  0.00     0.037 H 
ATOM     23  H13 <0> d           2.541   4.056   0.514  0.00  0.00     0.037 H 
ENDBRANCH  19  20
ENDBRANCH   1  14
TORSDOF 5
