REMARK  1 active torsions:
REMARK  status: ('A' for Active; 'I' for Inactive)
REMARK    1  A    between atoms: C1_1  and  N1_2 
ROOT
ATOM      1  N1  <0> d           0.002  -0.004   0.002  0.00  0.00    -0.322 N 
ATOM      2  C2  <0> d          -1.146  -0.797   0.003  0.00  0.00     0.043 A 
ATOM      3  C3  <0> d          -2.495  -0.448   0.012  0.00  0.00    -0.056 A 
ATOM      4  C4  <0> d          -3.464  -1.429   0.011  0.00  0.00    -0.081 A 
ATOM      5  C5  <0> d          -3.107  -2.765   0.002  0.00  0.00    -0.082 A 
ATOM      6  C6  <0> d          -1.769  -3.120  -0.007  0.00  0.00    -0.074 A 
ATOM      7  C7  <0> d          -0.800  -2.143  -0.007  0.00  0.00    -0.022 A 
ATOM      8  C8  <0> d           0.711  -2.193  -0.015  0.00  0.00     0.036 A 
ATOM      9  C9  <0> d           1.128  -0.738  -0.013  0.00  0.00     0.228 A 
ATOM     10  O1  <0> d           2.264  -0.314  -0.022  0.00  0.00    -0.273 OA
ATOM     11  H4  <0> d          -2.782   0.593   0.020  0.00  0.00     0.086 H 
ATOM     12  H5  <0> d          -4.508  -1.153   0.019  0.00  0.00     0.083 H 
ATOM     13  H6  <0> d          -3.870  -3.530   0.001  0.00  0.00     0.083 H 
ATOM     14  H7  <0> d          -1.486  -4.162  -0.015  0.00  0.00     0.084 H 
ATOM     15  H8  <0> d           1.081  -2.700   0.876  0.00  0.00     0.054 H 
ATOM     16  H9  <0> d           1.071  -2.690  -0.915  0.00  0.00     0.054 H 
ENDROOT
BRANCH   1  17
ATOM     17  C1  <0> d          -0.018   1.461   0.010  0.00  0.00    -0.011 C 
ATOM     18  H1  <0> d           1.005   1.838   0.002  0.00  0.00     0.057 H 
ATOM     19  H2  <0> d          -0.545   1.822  -0.873  0.00  0.00     0.057 H 
ATOM     20  H3  <0> d          -0.528   1.812   0.907  0.00  0.00     0.057 H 
ENDBRANCH   1  17
TORSDOF 1
