REMARK  8 active torsions:
REMARK  status: ('A' for Active; 'I' for Inactive)
REMARK    1  A    between atoms: C1_1  and  C2_2 
REMARK    2  A    between atoms: C2_2  and  O1_3 
REMARK    3  A    between atoms: O1_3  and  C3_4 
REMARK    4  A    between atoms: C3_4  and  C4_5 
REMARK    5  A    between atoms: C4_5  and  C5_7 
REMARK    6  A    between atoms: C5_7  and  O3_8 
REMARK    7  A    between atoms: O3_8  and  C6_9 
REMARK    8  A    between atoms: C6_9  and  C7_10 
ROOT
ATOM      1  C4  <0> d          -0.014   1.203   0.009  0.00  0.00     0.173 C 
ATOM      2  O2  <0> d           0.002  -0.004   0.002  0.00  0.00    -0.293 OA
ENDROOT
BRANCH   1   3
ATOM      3  C3  <0> d           1.280   1.975   0.000  0.00  0.00     0.076 C 
ATOM      4  H6  <0> d           1.318   2.554  -0.813  0.00  0.00     0.086 H 
ATOM      5  H7  <0> d           1.338   2.597   0.893  0.00  0.00     0.086 H 
BRANCH   3   6
ATOM      6  O1  <0> d           2.379   1.061  -0.015  0.00  0.00    -0.384 OA
BRANCH   6   7
ATOM      7  C2  <0> d           3.661   1.693  -0.024  0.00  0.00     0.017 C 
ATOM      8  H4  <0> d           3.751   2.319  -0.911  0.00  0.00     0.073 H 
ATOM      9  H5  <0> d           3.768   2.310   0.869  0.00  0.00     0.073 H 
BRANCH   7  10
ATOM     10  C1  <0> d           4.756   0.625  -0.040  0.00  0.00    -0.056 C 
ATOM     11  H1  <0> d           4.649   0.008  -0.932  0.00  0.00     0.030 H 
ATOM     12  H2  <0> d           5.734   1.107  -0.047  0.00  0.00     0.030 H 
ATOM     13  H3  <0> d           4.666  -0.002   0.848  0.00  0.00     0.030 H 
ENDBRANCH   7  10
ENDBRANCH   6   7
ENDBRANCH   3   6
ENDBRANCH   1   3
BRANCH   1  14
ATOM     14  C5  <0> d          -1.329   1.939   0.019  0.00  0.00     0.076 C 
ATOM     15  H8  <0> d          -1.386   2.509   0.839  0.00  0.00     0.086 H 
ATOM     16  H9  <0> d          -1.400   2.570  -0.867  0.00  0.00     0.086 H 
BRANCH  14  17
ATOM     17  O3  <0> d          -2.403   0.996   0.019  0.00  0.00    -0.384 OA
BRANCH  17  18
ATOM     18  C6  <0> d          -3.701   1.593   0.028  0.00  0.00     0.017 C 
ATOM     19  H10 <0> d          -3.812   2.207   0.922  0.00  0.00     0.073 H 
ATOM     20  H11 <0> d          -3.821   2.216  -0.858  0.00  0.00     0.073 H 
BRANCH  18  21
ATOM     21  C7  <0> d          -4.767   0.495   0.027  0.00  0.00    -0.056 C 
ATOM     22  H12 <0> d          -4.648  -0.128   0.913  0.00  0.00     0.030 H 
ATOM     23  H13 <0> d          -5.758   0.951   0.035  0.00  0.00     0.030 H 
ATOM     24  H14 <0> d          -4.656  -0.118  -0.867  0.00  0.00     0.030 H 
ENDBRANCH  18  21
ENDBRANCH  17  18
ENDBRANCH  14  17
ENDBRANCH   1  14
TORSDOF 8
