REMARK  5 active torsions:
REMARK  status: ('A' for Active; 'I' for Inactive)
REMARK    1  A    between atoms: C1_1  and  C2_2 
REMARK    2  A    between atoms: C2_2  and  C3_3 
REMARK    3  A    between atoms: C2_2  and  C4_4 
REMARK    4  A    between atoms: C2_2  and  C5_5 
REMARK    5  A    between atoms: N2_11  and  C8_12 
ROOT
ATOM      1  C5  <0> d          -1.347   2.393   0.550  0.00  0.00     0.245 C 
ATOM      2  H1  <0> d          -1.794   2.382   1.556  0.00  0.00     0.128 H 
ATOM      3  N1  <0> d          -1.115   3.782   0.099  0.00  0.00     0.339 N 
ATOM      4  C6  <0> d           0.281   4.048   0.520  0.00  0.00     0.222 C 
ATOM      5  C7  <0> d           0.937   2.685   0.563  0.00  0.00     0.252 C 
ATOM      6  O1  <0> d           2.131   2.474   0.581  0.00  0.00    -0.271 OA
ATOM      7  N2  <0> d          -0.030   1.745   0.577  0.00  0.00    -0.322 N 
ATOM      8  H11 <0> d           0.765   4.712  -0.211  0.00  0.00     0.099 H 
ATOM      9  H12 <0> d           0.280   4.531   1.509  0.00  0.00     0.099 H 
ENDROOT
BRANCH   1  10
ATOM     10  C2  <0> d          -2.271   1.667  -0.429  0.00  0.00     0.000 C 
BRANCH  10  11
ATOM     11  C1  <0> d          -2.579   0.266   0.104  0.00  0.00    -0.066 C 
ATOM     12  H2  <0> d          -1.642  -0.300   0.212  0.00  0.00     0.028 H 
ATOM     13  H3  <0> d          -3.244  -0.256  -0.600  0.00  0.00     0.028 H 
ATOM     14  H4  <0> d          -3.074   0.347   1.084  0.00  0.00     0.028 H 
ENDBRANCH  10  11
BRANCH  10  15
ATOM     15  C3  <0> d          -3.575   2.454  -0.579  0.00  0.00    -0.066 C 
ATOM     16  H5  <0> d          -3.353   3.461  -0.962  0.00  0.00     0.028 H 
ATOM     17  H6  <0> d          -4.069   2.535   0.400  0.00  0.00     0.028 H 
ATOM     18  H7  <0> d          -4.239   1.931  -1.283  0.00  0.00     0.028 H 
ENDBRANCH  10  15
BRANCH  10  19
ATOM     19  C4  <0> d          -1.583   1.554  -1.791  0.00  0.00    -0.066 C 
ATOM     20  H8  <0> d          -1.362   2.561  -2.174  0.00  0.00     0.028 H 
ATOM     21  H9  <0> d          -2.248   1.032  -2.495  0.00  0.00     0.028 H 
ATOM     22  H10 <0> d          -0.646   0.988  -1.683  0.00  0.00     0.028 H 
ENDBRANCH  10  19
ENDBRANCH   1  10
BRANCH   7  23
ATOM     23  C8  <0> d           0.200   0.298   0.607  0.00  0.00    -0.014 C 
ATOM     24  H13 <0> d           1.281   0.099   0.622  0.00  0.00     0.056 H 
ATOM     25  H14 <0> d          -0.246  -0.162  -0.287  0.00  0.00     0.056 H 
ATOM     26  H15 <0> d          -0.265  -0.128   1.509  0.00  0.00     0.056 H 
ENDBRANCH   7  23
TORSDOF 5
