REMARK  6 active torsions:
REMARK  status: ('A' for Active; 'I' for Inactive)
REMARK    1  A    between atoms: C1_1  and  C2_2 
REMARK    2  A    between atoms: C3_3  and  C4_4 
REMARK    3  A    between atoms: C3_3  and  C9_9 
REMARK    4  A    between atoms: C4_4  and  C5_5 
REMARK    5  A    between atoms: C5_5  and  C8_8 
REMARK    6  A    between atoms: C6_6  and  C7_7 
ROOT
ATOM      1  C4  <0> d           0.589  -2.153  -0.998  0.00  0.00    -0.025 C 
ATOM      2  H5  <0> d           1.521  -2.501  -1.443  0.00  0.00     0.046 H 
ATOM      3  H6  <0> d           0.514  -2.523   0.025  0.00  0.00     0.046 H 
ENDROOT
BRANCH   1   4
ATOM      4  C3  <0> d           0.569  -0.646  -0.989  0.00  0.00    -0.084 C 
ATOM      5  C2  <0> d           0.002  -0.004   0.002  0.00  0.00    -0.104 C 
ATOM      6  H4  <0> d          -0.451  -0.555   0.813  0.00  0.00     0.076 H 
BRANCH   5   7
ATOM      7  C1  <0> d          -0.018   1.503   0.010  0.00  0.00    -0.059 C 
ATOM      8  H1  <0> d           1.004   1.880   0.003  0.00  0.00     0.032 H 
ATOM      9  H2  <0> d          -0.545   1.864  -0.873  0.00  0.00     0.032 H 
ATOM     10  H3  <0> d          -0.529   1.854   0.907  0.00  0.00     0.032 H 
ENDBRANCH   5   7
BRANCH   4  11
ATOM     11  C9  <0> d           1.200   0.122  -2.122  0.00  0.00    -0.055 C 
ATOM     12  H14 <0> d           2.247   0.317  -1.889  0.00  0.00     0.033 H 
ATOM     13  H15 <0> d           1.134  -0.463  -3.039  0.00  0.00     0.033 H 
ATOM     14  H16 <0> d           0.676   1.069  -2.256  0.00  0.00     0.033 H 
ENDBRANCH   4  11
ENDBRANCH   1   4
BRANCH   1  15
ATOM     15  C5  <0> d          -0.576  -2.667  -1.804  0.00  0.00    -0.084 C 
ATOM     16  C6  <0> d          -0.414  -2.969  -3.069  0.00  0.00    -0.104 C 
ATOM     17  H7  <0> d           0.554  -2.850  -3.533  0.00  0.00     0.076 H 
BRANCH  16  18
ATOM     18  C7  <0> d          -1.579  -3.483  -3.875  0.00  0.00    -0.059 C 
ATOM     19  H8  <0> d          -1.951  -4.405  -3.429  0.00  0.00     0.032 H 
ATOM     20  H9  <0> d          -2.373  -2.736  -3.882  0.00  0.00     0.032 H 
ATOM     21  H10 <0> d          -1.254  -3.678  -4.897  0.00  0.00     0.032 H 
ENDBRANCH  16  18
BRANCH  15  22
ATOM     22  C8  <0> d          -1.926  -2.832  -1.157  0.00  0.00    -0.055 C 
ATOM     23  H11 <0> d          -2.495  -1.909  -1.262  0.00  0.00     0.033 H 
ATOM     24  H12 <0> d          -2.463  -3.648  -1.640  0.00  0.00     0.033 H 
ATOM     25  H13 <0> d          -1.796  -3.060  -0.099  0.00  0.00     0.033 H 
ENDBRANCH  15  22
ENDBRANCH   1  15
TORSDOF 6
