REMARK  5 active torsions:
REMARK  status: ('A' for Active; 'I' for Inactive)
REMARK    1  A    between atoms: C1_1  and  C2_2 
REMARK    2  A    between atoms: C2_2  and  O1_3 
REMARK    3  A    between atoms: O1_3  and  C3_4 
REMARK    4  A    between atoms: C3_4  and  C4_6 
REMARK    5  A    between atoms: C4_6  and  C5_7 
ROOT
ATOM      1  C4  <0> d          -2.881  -2.427   0.017  0.00  0.00     0.070 C 
ATOM      2  H7  <0> d          -3.409  -2.103   0.913  0.00  0.00     0.059 H 
ATOM      3  H8  <0> d          -3.426  -2.093  -0.867  0.00  0.00     0.059 H 
ENDROOT
BRANCH   1   4
ATOM      4  C3  <0> d          -1.496  -1.832   0.006  0.00  0.00     0.265 C 
ATOM      5  O2  <0> d          -0.528  -2.555  -0.007  0.00  0.00    -0.265 OA
BRANCH   4   6
ATOM      6  O1  <0> d          -1.339  -0.499   0.012  0.00  0.00    -0.322 OA
BRANCH   6   7
ATOM      7  C2  <0> d           0.002  -0.004   0.002  0.00  0.00     0.025 C 
ATOM      8  H5  <0> d           0.512  -0.356  -0.895  0.00  0.00     0.074 H 
ATOM      9  H6  <0> d           0.529  -0.365   0.885  0.00  0.00     0.074 H 
BRANCH   7  10
ATOM     10  C1  <0> d          -0.019   1.526   0.010  0.00  0.00    -0.056 C 
ATOM     11  H2  <0> d           1.004   1.903   0.003  0.00  0.00     0.030 H 
ATOM     12  H3  <0> d          -0.546   1.887  -0.873  0.00  0.00     0.030 H 
ATOM     13  H4  <0> d          -0.529   1.877   0.907  0.00  0.00     0.030 H 
ENDBRANCH   7  10
ENDBRANCH   6   7
ENDBRANCH   4   6
ENDBRANCH   1   4
BRANCH   1  14
ATOM     14  C5  <0> d          -2.782  -3.930   0.007  0.00  0.00     0.112 A 
ATOM     15  N2  <0> d          -2.133  -4.644  -0.872  0.00  0.00    -0.246 NA
ATOM     16  C7  <0> d          -2.259  -5.944  -0.565  0.00  0.00     0.019 A 
ATOM     17  C6  <0> d          -3.022  -6.040   0.541  0.00  0.00    -0.005 A 
ATOM     18  H10 <0> d          -1.827  -6.770  -1.111  0.00  0.00     0.117 H 
ATOM     19  N1  <0> d          -3.354  -4.762   0.904  0.00  0.00    -0.352 N 
ATOM     20  H9  <0> d          -3.315  -6.949   1.044  0.00  0.00     0.113 H 
ATOM     21  H1  <0> d          -3.898  -4.503   1.664  0.00  0.00     0.166 HD
ENDBRANCH   1  14
TORSDOF 5
