REMARK  4 active torsions:
REMARK  status: ('A' for Active; 'I' for Inactive)
REMARK    1  A    between atoms: C1_1  and  C2_2 
REMARK    2  A    between atoms: C2_2  and  O1_3 
REMARK    3  A    between atoms: O1_3  and  C3_4 
REMARK    4  A    between atoms: C3_4  and  C4_6 
ROOT
ATOM      1  C3  <0> d           0.002  -0.004   0.002  0.00  0.00     0.263 C 
ATOM      2  O2  <0> d           1.056  -0.594  -0.011  0.00  0.00    -0.265 OA
ENDROOT
BRANCH   1   3
ATOM      3  O1  <0> d          -0.016   1.338   0.009  0.00  0.00    -0.322 OA
BRANCH   3   4
ATOM      4  C2  <0> d           1.268   2.015   0.001  0.00  0.00     0.025 C 
ATOM      5  H4  <0> d           1.838   1.725   0.884  0.00  0.00     0.074 H 
ATOM      6  H5  <0> d           1.821   1.734  -0.896  0.00  0.00     0.074 H 
BRANCH   4   7
ATOM      7  C1  <0> d           1.048   3.529   0.011  0.00  0.00    -0.056 C 
ATOM      8  H1  <0> d           0.478   3.819  -0.872  0.00  0.00     0.030 H 
ATOM      9  H2  <0> d           0.495   3.809   0.908  0.00  0.00     0.030 H 
ATOM     10  H3  <0> d           2.012   4.037   0.004  0.00  0.00     0.030 H 
ENDBRANCH   4   7
ENDBRANCH   3   4
ENDBRANCH   1   3
BRANCH   1  11
ATOM     11  C4  <0> d          -1.293  -0.775   0.010  0.00  0.00     0.030 A 
ATOM     12  C6  <0> d          -1.205  -2.303   0.003  0.00  0.00    -0.052 A 
ATOM     13  C5  <0> d          -1.636  -1.566   1.274  0.00  0.00    -0.052 A 
ATOM     14  H9  <0> d          -1.972  -2.848  -0.546  0.00  0.00     0.034 H 
ATOM     15  H10 <0> d          -0.211  -2.750  -0.008  0.00  0.00     0.034 H 
ATOM     16  H7  <0> d          -0.925  -1.529   2.100  0.00  0.00     0.034 H 
ATOM     17  H8  <0> d          -2.686  -1.627   1.560  0.00  0.00     0.034 H 
ATOM     18  H6  <0> d          -2.117  -0.316  -0.535  0.00  0.00     0.055 H 
ENDBRANCH   1  11
TORSDOF 4
