REMARK  1 active torsions:
REMARK  status: ('A' for Active; 'I' for Inactive)
REMARK    1  A    between atoms: C1_1  and  C2_2 
ROOT
ATOM      1  C2  <0> d          -0.058   4.406   0.026  0.00  0.00     0.121 A 
ATOM      2  N1  <0> d           1.102   3.780   0.012  0.00  0.00    -0.244 NA
ATOM      3  C3  <0> d           1.160   2.458   0.004  0.00  0.00     0.026 A 
ATOM      4  C4  <0> d          -0.021   1.732   0.012  0.00  0.00     0.069 A 
ATOM      5  C5  <0> d          -1.222   2.426   0.021  0.00  0.00     0.026 A 
ATOM      6  N2  <0> d          -1.200   3.749   0.034  0.00  0.00    -0.244 NA
ATOM      7 Cl1  <0> d           0.002  -0.004   0.002  0.00  0.00    -0.081 Cl
ATOM      8  H4  <0> d           2.114   1.952  -0.007  0.00  0.00     0.117 H 
ATOM      9  H5  <0> d          -2.162   1.894   0.022  0.00  0.00     0.117 H 
ENDROOT
BRANCH   1  10
ATOM     10  C1  <0> d          -0.078   5.913   0.034  0.00  0.00    -0.020 C 
ATOM     11  H1  <0> d          -0.093   6.281  -0.992  0.00  0.00     0.037 H 
ATOM     12  H2  <0> d          -0.968   6.261   0.558  0.00  0.00     0.037 H 
ATOM     13  H3  <0> d           0.812   6.285   0.541  0.00  0.00     0.037 H 
ENDBRANCH   1  10
TORSDOF 1
