REMARK  2 active torsions:
REMARK  status: ('A' for Active; 'I' for Inactive)
REMARK    1  A    between atoms: C4_5  and  C5_7 
REMARK    2  A    between atoms: C5_7  and  C6_8 
ROOT
ATOM      1  C1  <0> d          -2.298  -3.099  -0.119  0.00  0.00    -0.040 C 
ATOM      2  C2  <0> d          -2.091  -4.277   0.852  0.00  0.00     0.020 C 
ATOM      3  O1  <0> d          -0.773  -4.143   1.412  0.00  0.00    -0.391 OA
ATOM      4  C3  <0> d          -0.439  -2.739   1.371  0.00  0.00     0.023 C 
ATOM      5  C4  <0> d          -0.993  -2.276  -0.001  0.00  0.00    -0.022 C 
ATOM      6  H1  <0> d          -0.301  -2.526  -0.805  0.00  0.00     0.044 H 
ATOM      7  H2  <0> d          -3.156  -2.500   0.186  0.00  0.00     0.036 H 
ATOM      8  H3  <0> d          -2.430  -3.461  -1.138  0.00  0.00     0.036 H 
ATOM      9  H4  <0> d          -2.836  -4.239   1.646  0.00  0.00     0.074 H 
ATOM     10  H5  <0> d          -2.172  -5.221   0.313  0.00  0.00     0.074 H 
ATOM     11  H6  <0> d           0.641  -2.600   1.416  0.00  0.00     0.074 H 
ATOM     12  H7  <0> d          -0.930  -2.204   2.184  0.00  0.00     0.074 H 
ENDROOT
BRANCH   5  13
ATOM     13  C5  <0> d          -1.293  -0.775   0.010  0.00  0.00     0.021 C 
ATOM     14  H8  <0> d          -1.859  -0.524   0.907  0.00  0.00     0.049 H 
ATOM     15  H9  <0> d          -1.876  -0.515  -0.873  0.00  0.00     0.049 H 
BRANCH  13  16
ATOM     16  C6  <0> d           0.002  -0.004   0.002  0.00  0.00     0.172 C 
ATOM     17  O2  <0> d           1.056  -0.594  -0.011  0.00  0.00    -0.648 OA
ATOM     18  O3  <0> d          -0.016   1.338   0.009  0.00  0.00    -0.648 OA
ENDBRANCH  13  16
ENDBRANCH   5  13
TORSDOF 2
