REMARK  0 active torsions:
REMARK  status: ('A' for Active; 'I' for Inactive)
ROOT
ATOM      1  C1  <0> d          -0.018   1.498   0.010  0.00  0.00    -0.045 C 
ATOM      2  C2  <0> d           1.347   2.131   0.001  0.00  0.00    -0.019 C 
ATOM      3  C3  <0> d           2.045   2.032   1.322  0.00  0.00     0.100 A 
ATOM      4  C4  <0> d           1.920   0.956   2.301  0.00  0.00     0.180 A 
ATOM      5  N1  <0> d           2.711   1.239   3.316  0.00  0.00    -0.098 NA
ATOM      6  O1  <0> d           3.343   2.475   3.046  0.00  0.00    -0.106 OA
ATOM      7  N2  <0> d           2.885   2.917   1.783  0.00  0.00    -0.107 NA
ATOM      8  C5  <0> d           1.069  -0.243   2.237  0.00  0.00     0.274 C 
ATOM      9  O2  <0> d           1.133  -0.988   3.195  0.00  0.00    -0.266 OA
ATOM     10  N3  <0> d           0.252  -0.614   1.280  0.00  0.00    -0.355 N 
ATOM     11  C6  <0> d           0.002  -0.004   0.002  0.00  0.00    -0.004 C 
ATOM     12  H1  <0> d          -0.550   1.833   0.901  0.00  0.00     0.035 H 
ATOM     13  H2  <0> d          -0.567   1.843  -0.867  0.00  0.00     0.035 H 
ATOM     14  H3  <0> d           1.957   1.639  -0.757  0.00  0.00     0.042 H 
ATOM     15  H4  <0> d           1.245   3.183  -0.264  0.00  0.00     0.042 H 
ATOM     16  H5  <0> d          -0.259  -1.418   1.461  0.00  0.00     0.162 HD
ATOM     17  H6  <0> d          -0.961  -0.359  -0.366  0.00  0.00     0.064 H 
ATOM     18  H7  <0> d           0.774  -0.334  -0.693  0.00  0.00     0.064 H 
ENDROOT
TORSDOF 0
