REMARK  1 active torsions:
REMARK  status: ('A' for Active; 'I' for Inactive)
REMARK    1  A    between atoms: C2_2  and  C3_3 
ROOT
ATOM      1  C1  <0> d           0.018  -1.178  -0.004  0.00  0.00    -0.149 C 
ATOM      2  C2  <0> d           0.002  -0.004   0.002  0.00  0.00    -0.083 C 
ATOM      3  H1  <0> d           0.032  -2.228  -0.010  0.00  0.00     0.166 H 
ENDROOT
BRANCH   2   4
ATOM      4  C3  <0> d          -0.017   1.428   0.010  0.00  0.00    -0.009 C 
ATOM      5  C8  <0> d           1.297   2.153   0.001  0.00  0.00    -0.034 C 
ATOM      6  C7  <0> d           1.089   3.611  -0.417  0.00  0.00    -0.061 C 
ATOM      7  H9  <0> d           1.735   2.118   0.999  0.00  0.00     0.041 H 
ATOM      8  H10 <0> d           1.972   1.669  -0.705  0.00  0.00     0.041 H 
ATOM      9  C6  <0> d          -0.043   4.201   0.431  0.00  0.00    -0.062 C 
ATOM     10  H7  <0> d           0.819   3.658  -1.472  0.00  0.00     0.033 H 
ATOM     11  H8  <0> d           2.007   4.174  -0.246  0.00  0.00     0.033 H 
ATOM     12  C5  <0> d          -1.355   3.522   0.031  0.00  0.00    -0.049 C 
ATOM     13  H5  <0> d          -0.116   5.274   0.250  0.00  0.00     0.033 H 
ATOM     14  H6  <0> d           0.156   4.018   1.487  0.00  0.00     0.033 H 
ATOM     15  C4  <0> d          -1.185   2.031   0.030  0.00  0.00    -0.089 C 
ATOM     16  H3  <0> d          -1.643   3.854  -0.967  0.00  0.00     0.038 H 
ATOM     17  H4  <0> d          -2.135   3.796   0.740  0.00  0.00     0.038 H 
ATOM     18  H2  <0> d          -2.074   1.418   0.046  0.00  0.00     0.078 H 
ENDBRANCH   2   4
TORSDOF 1
