REMARK  4 active torsions:
REMARK  status: ('A' for Active; 'I' for Inactive)
REMARK    1  A    between atoms: C1_1  and  C2_2 
REMARK    2  A    between atoms: C6_9  and  C7_10 
REMARK    3  A    between atoms: C6_9  and  C8_11 
REMARK    4  A    between atoms: C10_13  and  O1_15 
ROOT
ATOM      1  C2  <0> d           1.958   1.422   0.529  0.00  0.00    -0.029 C 
ATOM      2  H1  <0> d           1.964   1.675   1.609  0.00  0.00     0.043 H 
ATOM      3  C3  <0> d           1.826  -0.095   0.404  0.00  0.00    -0.041 C 
ATOM      4  H2  <0> d           2.738  -0.642   0.681  0.00  0.00     0.042 H 
ATOM      5  C4  <0> d           0.559  -0.561   1.164  0.00  0.00    -0.057 C 
ATOM      6  C5  <0> d          -0.172  -0.194  -0.144  0.00  0.00    -0.044 C 
ATOM      7  H3  <0> d          -1.040  -0.828  -0.370  0.00  0.00     0.041 H 
ATOM      8  C6  <0> d           1.124  -0.604  -0.857  0.00  0.00    -0.040 C 
ATOM      9  C9  <0> d          -0.468   1.304  -0.214  0.00  0.00    -0.037 C 
ATOM     10  C10 <0> d           0.791   2.158  -0.117  0.00  0.00     0.039 C 
ATOM     11  H4  <0> d           1.079   2.511  -1.115  0.00  0.00     0.083 H 
ATOM     12  H8  <0> d           0.301   0.088   2.005  0.00  0.00     0.034 H 
ATOM     13  H9  <0> d           0.546  -1.612   1.423  0.00  0.00     0.034 H 
ATOM     14  H16 <0> d          -0.992   1.530  -1.152  0.00  0.00     0.037 H 
ATOM     15  H17 <0> d          -1.150   1.574   0.606  0.00  0.00     0.037 H 
ENDROOT
BRANCH   8  16
ATOM     16  C7  <0> d           1.249  -2.129  -1.047  0.00  0.00    -0.069 C 
ATOM     17  H10 <0> d           0.646  -2.439  -1.900  0.00  0.00     0.028 H 
ATOM     18  H11 <0> d           2.292  -2.388  -1.226  0.00  0.00     0.028 H 
ATOM     19  H12 <0> d           0.897  -2.637  -0.149  0.00  0.00     0.028 H 
ENDBRANCH   8  16
BRANCH   8  20
ATOM     20  C8  <0> d           1.417   0.132  -2.160  0.00  0.00    -0.069 C 
ATOM     21  H13 <0> d           1.625   1.180  -1.948  0.00  0.00     0.028 H 
ATOM     22  H14 <0> d           2.282  -0.320  -2.646  0.00  0.00     0.028 H 
ATOM     23  H15 <0> d           0.551   0.060  -2.820  0.00  0.00     0.028 H 
ENDBRANCH   8  20
BRANCH   1  24
ATOM     24  C1  <0> d           3.290   1.903  -0.053  0.00  0.00    -0.070 C 
ATOM     25  H5  <0> d           3.345   1.632  -1.107  0.00  0.00     0.028 H 
ATOM     26  H6  <0> d           3.361   2.986   0.047  0.00  0.00     0.028 H 
ATOM     27  H7  <0> d           4.113   1.434   0.486  0.00  0.00     0.028 H 
ENDBRANCH   1  24
BRANCH  10  28
ATOM     28  O1  <0> d           0.493   3.330   0.665  0.00  0.00    -0.395 OA
ATOM     29  H18 <0> d          -0.208   3.883   0.294  0.00  0.00     0.210 HD
ENDBRANCH  10  28
TORSDOF 4
