REMARK  1 active torsions:
REMARK  status: ('A' for Active; 'I' for Inactive)
REMARK    1  A    between atoms: C1_1  and  C2_2 
ROOT
ATOM      1  C2  <0> d          -0.718   1.572   1.248  0.00  0.00     0.051 A 
ATOM      2  C3  <0> d          -2.103   1.791   1.221  0.00  0.00    -0.043 A 
ATOM      3  C4  <0> d          -2.728   2.223   2.344  0.00  0.00     0.004 A 
ATOM      4  N1  <0> d          -1.990   2.445   3.470  0.00  0.00    -0.164 N 
ATOM      5  C5  <0> d          -2.320   2.877   4.726  0.00  0.00     0.019 A 
ATOM      6  C6  <0> d          -1.179   2.911   5.447  0.00  0.00     0.037 A 
ATOM      7  N2  <0> d          -0.170   2.514   4.666  0.00  0.00    -0.073 NA
ATOM      8  C7  <0> d          -0.637   2.226   3.460  0.00  0.00     0.732 A 
ATOM      9  N3  <0> d          -0.032   1.793   2.345  0.00  0.00    -0.067 NA
ATOM     10  H4  <0> d          -2.666   1.613   0.317  0.00  0.00     0.088 H 
ATOM     11  H5  <0> d          -3.794   2.394   2.345  0.00  0.00     0.113 H 
ATOM     12  H6  <0> d          -3.308   3.140   5.076  0.00  0.00     0.115 H 
ATOM     13  H7  <0> d          -1.096   3.209   6.481  0.00  0.00     0.117 H 
ENDROOT
BRANCH   1  14
ATOM     14  C1  <0> d          -0.013   1.086   0.008  0.00  0.00    -0.035 C 
ATOM     15  H1  <0> d           0.002  -0.004   0.002  0.00  0.00     0.035 H 
ATOM     16  H2  <0> d           1.010   1.463   0.000  0.00  0.00     0.035 H 
ATOM     17  H3  <0> d          -0.540   1.447  -0.875  0.00  0.00     0.035 H 
ENDBRANCH   1  14
TORSDOF 1
