REMARK  3 active torsions:
REMARK  status: ('A' for Active; 'I' for Inactive)
REMARK    1  A    between atoms: C2_2  and  C3_3 
REMARK    2  A    between atoms: C3_3  and  O1_4 
REMARK    3  A    between atoms: O1_4  and  C4_5 
ROOT
ATOM      1  C1  <0> d          -1.039   8.460   0.054  0.00  0.00    -0.152 C 
ATOM      2  C2  <0> d          -1.177   7.294   0.050  0.00  0.00    -0.091 C 
ATOM      3  H1  <0> d          -0.916   9.502   0.058  0.00  0.00     0.166 H 
ENDROOT
BRANCH   2   4
ATOM      4  C3  <0> d          -1.350   5.832   0.045  0.00  0.00     0.080 C 
ATOM      5  H2  <0> d          -1.912   5.536  -0.841  0.00  0.00     0.094 H 
ATOM      6  H3  <0> d          -1.895   5.527   0.939  0.00  0.00     0.094 H 
BRANCH   4   7
ATOM      7  O1  <0> d          -0.069   5.201   0.029  0.00  0.00    -0.340 OA
BRANCH   7   8
ATOM      8  C4  <0> d          -0.050   3.842   0.023  0.00  0.00     0.070 A 
ATOM      9  C9  <0> d          -1.241   3.131   0.031  0.00  0.00    -0.051 A 
ATOM     10  C8  <0> d          -1.220   1.750   0.017  0.00  0.00    -0.080 A 
ATOM     11  H8  <0> d          -2.185   3.657   0.042  0.00  0.00     0.087 H 
ATOM     12  C7  <0> d          -0.013   1.076   0.008  0.00  0.00    -0.083 A 
ATOM     13  H7  <0> d          -2.147   1.196   0.018  0.00  0.00     0.083 H 
ATOM     14  C6  <0> d           1.176   1.782   0.000  0.00  0.00    -0.080 A 
ATOM     15  H6  <0> d           0.002  -0.004   0.002  0.00  0.00     0.083 H 
ATOM     16  C5  <0> d           1.160   3.163   0.007  0.00  0.00    -0.051 A 
ATOM     17  H5  <0> d           2.118   1.254  -0.011  0.00  0.00     0.083 H 
ATOM     18  H4  <0> d           2.089   3.715   0.001  0.00  0.00     0.087 H 
ENDBRANCH   7   8
ENDBRANCH   4   7
ENDBRANCH   2   4
TORSDOF 3
