REMARK  8 active torsions:
REMARK  status: ('A' for Active; 'I' for Inactive)
REMARK    1  A    between atoms: C1_1  and  C2_2 
REMARK    2  A    between atoms: C2_2  and  C10_11 
REMARK    3  A    between atoms: C3_3  and  C4_4 
REMARK    4  A    between atoms: C4_4  and  C5_5 
REMARK    5  A    between atoms: C5_5  and  C6_6 
REMARK    6  A    between atoms: C6_6  and  C9_10 
REMARK    7  A    between atoms: C7_7  and  C8_8 
REMARK    8  A    between atoms: C8_8  and  O1_9 
ROOT
ATOM      1  C5  <0> d          -0.879  -0.572   3.395  0.00  0.00    -0.042 C 
ATOM      2  H7  <0> d          -1.877  -0.533   2.957  0.00  0.00     0.040 H 
ATOM      3  H8  <0> d          -0.598  -1.611   3.565  0.00  0.00     0.040 H 
ENDROOT
BRANCH   1   4
ATOM      4  C4  <0> d           0.123   0.078   2.439  0.00  0.00    -0.046 C 
ATOM      5  H5  <0> d           1.121   0.039   2.877  0.00  0.00     0.039 H 
ATOM      6  H6  <0> d          -0.159   1.118   2.269  0.00  0.00     0.039 H 
BRANCH   4   7
ATOM      7  C3  <0> d           0.121  -0.664   1.128  0.00  0.00    -0.101 C 
ATOM      8  C2  <0> d          -0.087  -0.015   0.009  0.00  0.00    -0.091 C 
ATOM      9  H4  <0> d           0.290  -1.730   1.110  0.00  0.00     0.077 H 
BRANCH   8  10
ATOM     10  C1  <0> d          -0.201   1.487   0.018  0.00  0.00    -0.055 C 
ATOM     11  H1  <0> d           0.684   1.916   0.488  0.00  0.00     0.033 H 
ATOM     12  H2  <0> d          -0.282   1.852  -1.006  0.00  0.00     0.033 H 
ATOM     13  H3  <0> d          -1.088   1.781   0.580  0.00  0.00     0.033 H 
ENDBRANCH   8  10
BRANCH   8  14
ATOM     14  C10 <0> d          -0.213  -0.772  -1.289  0.00  0.00    -0.055 C 
ATOM     15  H16 <0> d          -0.382  -0.069  -2.104  0.00  0.00     0.033 H 
ATOM     16  H17 <0> d           0.705  -1.330  -1.474  0.00  0.00     0.033 H 
ATOM     17  H18 <0> d          -1.052  -1.464  -1.226  0.00  0.00     0.033 H 
ENDBRANCH   8  14
ENDBRANCH   4   7
ENDBRANCH   1   4
BRANCH   1  18
ATOM     18  C6  <0> d          -0.876   0.170   4.707  0.00  0.00    -0.085 C 
ATOM     19  C7  <0> d          -1.756   1.116   4.926  0.00  0.00    -0.079 C 
ATOM     20  H9  <0> d          -2.484   1.363   4.167  0.00  0.00     0.080 H 
BRANCH  19  21
ATOM     21  C8  <0> d          -1.754   1.858   6.238  0.00  0.00     0.032 C 
ATOM     22  H10 <0> d          -2.585   1.512   6.852  0.00  0.00     0.080 H 
ATOM     23  H11 <0> d          -0.815   1.671   6.759  0.00  0.00     0.080 H 
BRANCH  21  24
ATOM     24  O1  <0> d          -1.893   3.259   5.992  0.00  0.00    -0.397 OA
ATOM     25  H12 <0> d          -1.899   3.800   6.794  0.00  0.00     0.209 HD
ENDBRANCH  21  24
ENDBRANCH  19  21
BRANCH  18  26
ATOM     26  C9  <0> d           0.138  -0.175   5.766  0.00  0.00    -0.055 C 
ATOM     27  H13 <0> d           1.030   0.435   5.627  0.00  0.00     0.033 H 
ATOM     28  H14 <0> d          -0.285   0.018   6.752  0.00  0.00     0.033 H 
ATOM     29  H15 <0> d           0.403  -1.230   5.685  0.00  0.00     0.033 H 
ENDBRANCH  18  26
ENDBRANCH   1  18
TORSDOF 8
