REMARK  8 active torsions:
REMARK  status: ('A' for Active; 'I' for Inactive)
REMARK    1  A    between atoms: C1_1  and  C2_2 
REMARK    2  A    between atoms: C2_2  and  C3_3 
REMARK    3  A    between atoms: C2_2  and  C4_4 
REMARK    4  A    between atoms: C4_4  and  O1_5 
REMARK    5  A    between atoms: O1_5  and  C5_6 
REMARK    6  A    between atoms: C5_6  and  C6_7 
REMARK    7  A    between atoms: C6_7  and  C7_8 
REMARK    8  A    between atoms: C7_8  and  O2_9 
ROOT
ATOM      1  C4  <0> d          -1.433  -0.534   0.013  0.00  0.00     0.022 C 
ATOM      2  H8  <0> d          -1.916  -0.257   0.950  0.00  0.00     0.074 H 
ATOM      3  H9  <0> d          -1.986  -0.102  -0.821  0.00  0.00     0.074 H 
ENDROOT
BRANCH   1   4
ATOM      4  C2  <0> d           0.002  -0.004   0.002  0.00  0.00    -0.041 C 
ATOM      5  H4  <0> d           0.512  -0.356  -0.895  0.00  0.00     0.042 H 
BRANCH   4   6
ATOM      6  C1  <0> d          -0.019   1.526   0.010  0.00  0.00    -0.071 C 
ATOM      7  H1  <0> d           1.004   1.903   0.003  0.00  0.00     0.028 H 
ATOM      8  H2  <0> d          -0.546   1.887  -0.873  0.00  0.00     0.028 H 
ATOM      9  H3  <0> d          -0.529   1.877   0.907  0.00  0.00     0.028 H 
ENDBRANCH   4   6
BRANCH   4  10
ATOM     10  C3  <0> d           0.742  -0.511   1.242  0.00  0.00    -0.071 C 
ATOM     11  H5  <0> d           0.232  -0.159   2.138  0.00  0.00     0.028 H 
ATOM     12  H6  <0> d           0.757  -1.601   1.236  0.00  0.00     0.028 H 
ATOM     13  H7  <0> d           1.765  -0.134   1.234  0.00  0.00     0.028 H 
ENDBRANCH   4  10
ENDBRANCH   1   4
BRANCH   1  14
ATOM     14  O1  <0> d          -1.417  -1.957  -0.112  0.00  0.00    -0.391 OA
BRANCH  14  15
ATOM     15  C5  <0> d          -2.715  -2.555  -0.113  0.00  0.00     0.021 C 
ATOM     16  H10 <0> d          -3.223  -2.321   0.822  0.00  0.00     0.074 H 
ATOM     17  H11 <0> d          -3.294  -2.166  -0.950  0.00  0.00     0.074 H 
BRANCH  15  18
ATOM     18  C6  <0> d          -2.576  -4.073  -0.251  0.00  0.00    -0.026 C 
ATOM     19  H12 <0> d          -2.067  -4.308  -1.186  0.00  0.00     0.039 H 
ATOM     20  H13 <0> d          -1.997  -4.463   0.586  0.00  0.00     0.039 H 
BRANCH  18  21
ATOM     21  C7  <0> d          -3.966  -4.714  -0.252  0.00  0.00     0.019 C 
ATOM     22  H14 <0> d          -4.474  -4.479   0.683  0.00  0.00     0.074 H 
ATOM     23  H15 <0> d          -4.545  -4.324  -1.089  0.00  0.00     0.074 H 
BRANCH  21  24
ATOM     24  O2  <0> d          -3.836  -6.131  -0.381  0.00  0.00    -0.401 OA
ATOM     25  H16 <0> d          -4.680  -6.604  -0.389  0.00  0.00     0.209 HD
ENDBRANCH  21  24
ENDBRANCH  18  21
ENDBRANCH  15  18
ENDBRANCH  14  15
ENDBRANCH   1  14
TORSDOF 8
