REMARK  0 active torsions:
REMARK  status: ('A' for Active; 'I' for Inactive)
ROOT
ATOM      1  C1  <0> d           0.681   3.450   0.602  0.00  0.00    -0.048 C 
ATOM      2  C2  <0> d           1.198   2.118   0.002  0.00  0.00    -0.009 C 
ATOM      3  C3  <0> d          -0.014   1.203   0.009  0.00  0.00     0.131 C 
ATOM      4  O1  <0> d           0.002  -0.004   0.002  0.00  0.00    -0.298 OA
ATOM      5  C4  <0> d          -1.250   2.083   0.018  0.00  0.00     0.014 C 
ATOM      6  H1  <0> d          -1.839   1.839  -0.751  0.00  0.00     0.052 H 
ATOM      7  C5  <0> d          -0.742   3.547   0.004  0.00  0.00     0.014 C 
ATOM      8  H2  <0> d          -0.694   3.966  -0.903  0.00  0.00     0.052 H 
ATOM      9  C6  <0> d          -1.638   4.327   0.931  0.00  0.00     0.131 C 
ATOM     10  O2  <0> d          -1.734   5.530   0.978  0.00  0.00    -0.298 OA
ATOM     11  C7  <0> d          -2.396   3.344   1.792  0.00  0.00    -0.009 C 
ATOM     12  C8  <0> d          -1.934   1.934   1.398  0.00  0.00    -0.048 C 
ATOM     13  H3  <0> d           0.642   3.396   1.690  0.00  0.00     0.034 H 
ATOM     14  H4  <0> d           1.300   4.287   0.278  0.00  0.00     0.034 H 
ATOM     15  H5  <0> d           1.944   1.765   0.566  0.00  0.00     0.044 H 
ATOM     16  H6  <0> d           1.552   2.271  -1.017  0.00  0.00     0.044 H 
ATOM     17  H7  <0> d          -2.198   3.524   2.756  0.00  0.00     0.044 H 
ATOM     18  H8  <0> d          -3.466   3.446   1.615  0.00  0.00     0.044 H 
ATOM     19  H9  <0> d          -1.224   1.552   2.132  0.00  0.00     0.034 H 
ATOM     20  H10 <0> d          -2.791   1.265   1.322  0.00  0.00     0.034 H 
ENDROOT
TORSDOF 0
