REMARK  4 active torsions:
REMARK  status: ('A' for Active; 'I' for Inactive)
REMARK    1  A    between atoms: C1_1  and  O1_2 
REMARK    2  A    between atoms: O1_2  and  C2_3 
REMARK    3  A    between atoms: C2_3  and  C3_5 
REMARK    4  A    between atoms: C5_8  and  N2_10 
ROOT
ATOM      1  C3  <0> d          -2.686   3.234   0.032  0.00  0.00     0.171 A 
ATOM      2  C4  <0> d          -3.331   2.029   0.029  0.00  0.00     0.045 A 
ATOM      3  N1  <0> d          -2.400   1.074   0.020  0.00  0.00    -0.218 NA
ATOM      4  C5  <0> d          -1.209   1.636   0.017  0.00  0.00     0.244 A 
ATOM      5  O3  <0> d          -1.356   2.968   0.030  0.00  0.00    -0.271 OA
ATOM      6  H4  <0> d          -4.400   1.878   0.033  0.00  0.00     0.119 H 
ENDROOT
BRANCH   1   7
ATOM      7  C2  <0> d          -3.292   4.515   0.042  0.00  0.00     0.318 C 
ATOM      8  O2  <0> d          -4.504   4.615   0.049  0.00  0.00    -0.257 OA
BRANCH   7   9
ATOM      9  O1  <0> d          -2.523   5.625   0.044  0.00  0.00    -0.321 OA
BRANCH   9  10
ATOM     10  C1  <0> d          -3.200   6.883   0.054  0.00  0.00     0.013 C 
ATOM     11  H1  <0> d          -3.820   6.955   0.948  0.00  0.00     0.067 H 
ATOM     12  H2  <0> d          -2.467   7.690   0.055  0.00  0.00     0.067 H 
ATOM     13  H3  <0> d          -3.829   6.964  -0.832  0.00  0.00     0.067 H 
ENDBRANCH   9  10
ENDBRANCH   7   9
ENDBRANCH   1   7
BRANCH   4  14
ATOM     14  N2  <0> d          -0.011   0.966   0.007  0.00  0.00    -0.363 N 
ATOM     15  H5  <0> d           0.002  -0.004   0.002  0.00  0.00     0.159 HD
ATOM     16  H6  <0> d           0.822   1.462   0.002  0.00  0.00     0.159 HD
ENDBRANCH   4  14
TORSDOF 4
