REMARK  2 active torsions:
REMARK  status: ('A' for Active; 'I' for Inactive)
REMARK    1  A    between atoms: C3_3  and  O1_10 
REMARK    2  A    between atoms: C4_4  and  N2_9 
ROOT
ATOM      1  C1  <0> d          -1.217   1.747   0.017  0.00  0.00    -0.060 A 
ATOM      2  C2  <0> d          -0.013   1.076   0.008  0.00  0.00    -0.047 A 
ATOM      3  C3  <0> d           1.180   1.784   0.000  0.00  0.00     0.091 A 
ATOM      4  C4  <0> d           1.167   3.179   0.007  0.00  0.00     0.060 A 
ATOM      5  C5  <0> d          -0.038   3.859   0.022  0.00  0.00    -0.035 A 
ATOM      6  C6  <0> d          -1.239   3.144   0.030  0.00  0.00     0.046 A 
ATOM      7  C7  <0> d          -2.489   3.842   0.045  0.00  0.00     0.099 C 
ATOM      8  N1  <0> d          -3.481   4.396   0.056  0.00  0.00    -0.191 NA
ATOM      9  H1  <0> d          -2.144   1.193   0.019  0.00  0.00     0.086 H 
ATOM     10  H2  <0> d           0.002  -0.004   0.002  0.00  0.00     0.087 H 
ATOM     11  H3  <0> d          -0.050   4.939   0.027  0.00  0.00     0.089 H 
ENDROOT
BRANCH   4  12
ATOM     12  N2  <0> d           2.372   3.891   0.000  0.00  0.00    -0.397 N 
ATOM     13  H4  <0> d           3.217   3.415  -0.010  0.00  0.00     0.156 HD
ATOM     14  H5  <0> d           2.362   4.861   0.005  0.00  0.00     0.156 HD
ENDBRANCH   4  12
BRANCH   3  15
ATOM     15  O1  <0> d           2.364   1.117  -0.015  0.00  0.00    -0.358 OA
ATOM     16  H6  <0> d           2.698   0.929  -0.902  0.00  0.00     0.217 HD
ENDBRANCH   3  15
TORSDOF 2
