REMARK  3 active torsions:
REMARK  status: ('A' for Active; 'I' for Inactive)
REMARK    1  A    between atoms: C1_1  and  C2_2 
REMARK    2  A    between atoms: C2_2  and  O1_3 
REMARK    3  A    between atoms: O1_3  and  C3_4 
ROOT
ATOM      1  C3  <0> d           1.280   2.024   0.001  0.00  0.00     0.136 C 
ATOM      2  H1  <0> d           1.898   1.575   0.778  0.00  0.00     0.129 H 
ATOM      3  C4  <0> d           1.155   3.534   0.246  0.00  0.00    -0.016 C 
ATOM      4  C5  <0> d           2.566   4.130   0.282  0.00  0.00    -0.044 C 
ATOM      5  C6  <0> d           3.360   3.607  -0.884  0.00  0.00    -0.082 C 
ATOM      6  C7  <0> d           3.004   2.545  -1.556  0.00  0.00     0.012 C 
ATOM      7  O2  <0> d           1.893   1.826  -1.276  0.00  0.00    -0.333 OA
ATOM      8  H7  <0> d           0.582   3.991  -0.560  0.00  0.00     0.040 H 
ATOM      9  H8  <0> d           0.656   3.711   1.199  0.00  0.00     0.040 H 
ATOM     10  H9  <0> d           2.503   5.217   0.220  0.00  0.00     0.039 H 
ATOM     11  H10 <0> d           3.057   3.847   1.213  0.00  0.00     0.039 H 
ATOM     12  H11 <0> d           4.260   4.129  -1.176  0.00  0.00     0.079 H 
ATOM     13  H12 <0> d           3.628   2.224  -2.377  0.00  0.00     0.122 H 
ENDROOT
BRANCH   1  14
ATOM     14  O1  <0> d          -0.017   1.425   0.010  0.00  0.00    -0.361 OA
BRANCH  14  15
ATOM     15  C2  <0> d           0.002  -0.004   0.002  0.00  0.00     0.019 C 
ATOM     16  H5  <0> d           0.512  -0.356  -0.895  0.00  0.00     0.073 H 
ATOM     17  H6  <0> d           0.529  -0.365   0.885  0.00  0.00     0.073 H 
BRANCH  15  18
ATOM     18  C1  <0> d          -1.433  -0.534   0.013  0.00  0.00    -0.056 C 
ATOM     19  H2  <0> d          -1.960  -0.173  -0.870  0.00  0.00     0.030 H 
ATOM     20  H3  <0> d          -1.419  -1.623   0.007  0.00  0.00     0.030 H 
ATOM     21  H4  <0> d          -1.944  -0.182   0.910  0.00  0.00     0.030 H 
ENDBRANCH  15  18
ENDBRANCH  14  15
ENDBRANCH   1  14
TORSDOF 3
