REMARK  2 active torsions:
REMARK  status: ('A' for Active; 'I' for Inactive)
REMARK    1  A    between atoms: C1_1  and  N1_2 
REMARK       I    between atoms: N1_2  and  C2_3 
REMARK       I    between atoms: C2_3  and  N2_5 
REMARK    2  A    between atoms: N2_5  and  C3_6 
ROOT
ATOM      1  N1  <0> d           1.143   1.901   0.001  0.00  0.00    -0.347 N 
ATOM      2  C2  <0> d          -0.014   1.212   0.009  0.00  0.00     0.321 C 
ATOM      3  O1  <0> d           0.002  -0.004   0.002  0.00  0.00    -0.247 OA
ATOM      4  N2  <0> d          -1.191   1.870   0.018  0.00  0.00    -0.287 N 
ATOM      5  H4  <0> d           1.130   2.871   0.007  0.00  0.00     0.163 HD
ATOM      6  H5  <0> d          -1.204   2.840   0.023  0.00  0.00     0.172 HD
ENDROOT
BRANCH   4   7
ATOM      7  C3  <0> d          -2.385   1.158   0.020  0.00  0.00     0.174 A 
ATOM      8  S1  <0> d          -4.013   1.761   0.031  0.00  0.00    -0.062 SA
ATOM      9  C5  <0> d          -4.846   0.180   0.026  0.00  0.00    -0.025 A 
ATOM     10  C4  <0> d          -3.785  -0.664   0.016  0.00  0.00     0.011 A 
ATOM     11  H7  <0> d          -5.903  -0.043   0.029  0.00  0.00     0.097 H 
ATOM     12  N3  <0> d          -2.572  -0.147   0.008  0.00  0.00    -0.236 NA
ATOM     13  H6  <0> d          -3.930  -1.734   0.011  0.00  0.00     0.115 H 
ENDBRANCH   4   7
BRANCH   1  14
ATOM     14  C1  <0> d           2.422   1.186  -0.015  0.00  0.00    -0.017 C 
ATOM     15  H1  <0> d           2.497   0.556   0.871  0.00  0.00     0.056 H 
ATOM     16  H2  <0> d           2.480   0.565  -0.909  0.00  0.00     0.056 H 
ATOM     17  H3  <0> d           3.241   1.906  -0.019  0.00  0.00     0.056 H 
ENDBRANCH   1  14
TORSDOF 2
