REMARK  2 active torsions:
REMARK  status: ('A' for Active; 'I' for Inactive)
REMARK    1  A    between atoms: C4_4  and  C7_7 
REMARK    2  A    between atoms: C7_7  and  C8_9 
ROOT
ATOM      1  C1  <0> d          -0.017   1.380   0.010  0.00  0.00    -0.083 A 
ATOM      2  C2  <0> d           1.168   2.095   0.002  0.00  0.00    -0.082 A 
ATOM      3  C3  <0> d           2.377   1.433  -0.013  0.00  0.00    -0.070 A 
ATOM      4  C4  <0> d           2.405   0.035  -0.021  0.00  0.00     0.010 A 
ATOM      5  C5  <0> d           1.203  -0.681  -0.013  0.00  0.00    -0.070 A 
ATOM      6  C6  <0> d           0.002  -0.004   0.002  0.00  0.00    -0.082 A 
ATOM      7  H1  <0> d          -0.961   1.904   0.017  0.00  0.00     0.083 H 
ATOM      8  H2  <0> d           1.145   3.175   0.008  0.00  0.00     0.083 H 
ATOM      9  H3  <0> d           3.301   1.993  -0.019  0.00  0.00     0.085 H 
ATOM     10  H4  <0> d           1.216  -1.761  -0.020  0.00  0.00     0.085 H 
ATOM     11  H5  <0> d          -0.927  -0.555   0.008  0.00  0.00     0.083 H 
ENDROOT
BRANCH   4  12
ATOM     12  C7  <0> d           3.691  -0.680  -0.037  0.00  0.00     0.163 C 
ATOM     13  O1  <0> d           3.711  -1.892  -0.044  0.00  0.00    -0.292 OA
BRANCH  12  14
ATOM     14  C8  <0> d           4.984   0.096  -0.045  0.00  0.00     0.009 A 
ATOM     15  C10 <0> d           6.228  -0.600   0.511  0.00  0.00    -0.054 A 
ATOM     16  C9  <0> d           6.085  -0.377  -0.997  0.00  0.00    -0.054 A 
ATOM     17  H9  <0> d           6.952   0.016   1.044  0.00  0.00     0.034 H 
ATOM     18  H10 <0> d           6.112  -1.618   0.882  0.00  0.00     0.034 H 
ATOM     19  H7  <0> d           5.874  -1.248  -1.617  0.00  0.00     0.034 H 
ATOM     20  H8  <0> d           6.715   0.385  -1.455  0.00  0.00     0.034 H 
ATOM     21  H6  <0> d           4.793   1.064   0.116  0.00  0.00     0.052 H 
ENDBRANCH  12  14
ENDBRANCH   4  12
TORSDOF 2
