REMARK  1 active torsions:
REMARK  status: ('A' for Active; 'I' for Inactive)
REMARK    1  A    between atoms: C4_6  and  N2_9 
ROOT
ATOM      1  C1  <0> d          -1.197   1.728   0.017  0.00  0.00    -0.018 A 
ATOM      2  C2  <0> d          -0.013   1.076   0.008  0.00  0.00    -0.019 A 
ATOM      3  N1  <0> d           1.156   1.760   0.001  0.00  0.00    -0.373 N 
ATOM      4  H1  <0> d           2.112   1.217  -0.011  0.00  0.00     0.164 HD
ATOM      5  C3  <0> d           1.182   3.119   0.007  0.00  0.00     0.006 A 
ATOM      6  C4  <0> d           0.028   3.831   0.022  0.00  0.00     0.092 A 
ATOM      7  C5  <0> d          -1.211   3.139   0.030  0.00  0.00     0.200 A 
ATOM      8  O1  <0> d          -2.268   3.754   0.043  0.00  0.00    -0.286 OA
ATOM      9  H2  <0> d          -2.124   1.173   0.018  0.00  0.00     0.091 H 
ATOM     10  H3  <0> d           0.002  -0.004   0.002  0.00  0.00     0.111 H 
ATOM     11  H4  <0> d           2.130   3.636   0.001  0.00  0.00     0.115 H 
ENDROOT
BRANCH   6  12
ATOM     12  N2  <0> d           0.059   5.234   0.028  0.00  0.00    -0.395 N 
ATOM     13  H5  <0> d          -0.881   5.805   0.040  0.00  0.00     0.156 HD
ATOM     14  H6  <0> d           1.023   5.763   0.021  0.00  0.00     0.156 HD
ENDBRANCH   6  12
TORSDOF 1
