REMARK  6 active torsions:
REMARK  status: ('A' for Active; 'I' for Inactive)
REMARK    1  A    between atoms: C1_1  and  C2_2 
REMARK    2  A    between atoms: C2_2  and  C3_3 
REMARK    3  A    between atoms: C3_3  and  C4_4 
REMARK    4  A    between atoms: C4_4  and  N1_5 
REMARK    5  A    between atoms: C5_6  and  C9_11 
REMARK    6  A    between atoms: C7_8  and  C8_10 
ROOT
ATOM      1  N1  <0> d          -0.698   1.558   1.213  0.00  0.00    -0.274 N 
ATOM      2  C5  <0> d          -0.449   2.711   1.869  0.00  0.00     0.028 A 
ATOM      3  C6  <0> d          -1.294   2.778   2.923  0.00  0.00    -0.035 A 
ATOM      4  C7  <0> d          -2.082   1.622   2.917  0.00  0.00     0.053 A 
ATOM      5  N2  <0> d          -1.725   0.890   1.893  0.00  0.00    -0.177 NA
ATOM      6  H10 <0> d          -1.349   3.580   3.644  0.00  0.00     0.089 H 
ENDROOT
BRANCH   1   7
ATOM      7  C4  <0> d          -0.013   1.086   0.008  0.00  0.00     0.017 C 
ATOM      8  H8  <0> d           0.002  -0.014   0.002  0.00  0.00     0.067 H 
ATOM      9  H9  <0> d           1.019   1.466   0.000  0.00  0.00     0.067 H 
BRANCH   7  10
ATOM     10  C3  <0> d          -0.753   1.593  -1.232  0.00  0.00    -0.049 C 
ATOM     11  H6  <0> d          -0.767   2.693  -1.226  0.00  0.00     0.035 H 
ATOM     12  H7  <0> d          -1.785   1.212  -1.224  0.00  0.00     0.035 H 
BRANCH  10  13
ATOM     13  C2  <0> d          -0.037   1.099  -2.490  0.00  0.00    -0.067 C 
ATOM     14  H4  <0> d          -0.022  -0.001  -2.496  0.00  0.00     0.032 H 
ATOM     15  H5  <0> d           0.995   1.480  -2.498  0.00  0.00     0.032 H 
BRANCH  13  16
ATOM     16  C1  <0> d          -0.777   1.606  -3.730  0.00  0.00    -0.076 C 
ATOM     17  H1  <0> d          -0.262   1.251  -4.635  0.00  0.00     0.027 H 
ATOM     18  H2  <0> d          -0.791   2.706  -3.724  0.00  0.00     0.027 H 
ATOM     19  H3  <0> d          -1.809   1.225  -3.722  0.00  0.00     0.027 H 
ENDBRANCH  13  16
ENDBRANCH  10  13
ENDBRANCH   7  10
ENDBRANCH   1   7
BRANCH   2  20
ATOM     20  C9  <0> d           0.585   3.741   1.491  0.00  0.00    -0.036 C 
ATOM     21  H14 <0> d           0.555   4.572   2.212  0.00  0.00     0.035 H 
ATOM     22  H15 <0> d           0.370   4.124   0.483  0.00  0.00     0.035 H 
ATOM     23  H16 <0> d           1.583   3.281   1.504  0.00  0.00     0.035 H 
ENDBRANCH   2  20
BRANCH   4  24
ATOM     24  C8  <0> d          -3.154   1.279   3.918  0.00  0.00    -0.034 C 
ATOM     25  H11 <0> d          -3.602   0.308   3.658  0.00  0.00     0.035 H 
ATOM     26  H12 <0> d          -3.932   2.057   3.903  0.00  0.00     0.035 H 
ATOM     27  H13 <0> d          -2.713   1.221   4.924  0.00  0.00     0.035 H 
ENDBRANCH   4  24
TORSDOF 6
