REMARK  7 active torsions:
REMARK  status: ('A' for Active; 'I' for Inactive)
REMARK    1  A    between atoms: C1_1  and  C2_2 
REMARK    2  A    between atoms: C2_2  and  C3_3 
REMARK    3  A    between atoms: C3_3  and  C4_4 
REMARK    4  A    between atoms: C4_4  and  C5_5 
REMARK    5  A    between atoms: C5_5  and  C6_6 
REMARK    6  A    between atoms: C5_5  and  C8_8 
REMARK    7  A    between atoms: C6_6  and  C7_7 
ROOT
ATOM      1  C4  <0> d          -1.259   3.539   0.027  0.00  0.00    -0.037 C 
ATOM      2  H8  <0> d          -0.425   3.917  -0.564  0.00  0.00     0.036 H 
ATOM      3  H9  <0> d          -2.197   3.892  -0.401  0.00  0.00     0.036 H 
ENDROOT
BRANCH   1   4
ATOM      4  C3  <0> d          -1.133   4.043   1.466  0.00  0.00    -0.063 C 
ATOM      5  H6  <0> d          -1.967   3.665   2.058  0.00  0.00     0.033 H 
ATOM      6  H7  <0> d          -0.195   3.689   1.894  0.00  0.00     0.033 H 
BRANCH   4   7
ATOM      7  C2  <0> d          -1.154   5.572   1.475  0.00  0.00    -0.068 C 
ATOM      8  H4  <0> d          -0.320   5.950   0.883  0.00  0.00     0.032 H 
ATOM      9  H5  <0> d          -2.092   5.925   1.047  0.00  0.00     0.032 H 
BRANCH   7  10
ATOM     10  C1  <0> d          -1.028   6.076   2.914  0.00  0.00    -0.077 C 
ATOM     11  H1  <0> d          -1.862   5.698   3.505  0.00  0.00     0.027 H 
ATOM     12  H2  <0> d          -0.090   5.723   3.342  0.00  0.00     0.027 H 
ATOM     13  H3  <0> d          -1.043   7.166   2.920  0.00  0.00     0.027 H 
ENDBRANCH   7  10
ENDBRANCH   4   7
ENDBRANCH   1   4
BRANCH   1  14
ATOM     14  C5  <0> d          -1.238   2.032   0.019  0.00  0.00     0.127 C 
BRANCH  14  15
ATOM     15  C6  <0> d          -2.361   1.363   0.021  0.00  0.00    -0.159 C 
BRANCH  15  16
ATOM     16  C7  <0> d          -3.484   0.694   0.022  0.00  0.00    -0.010 C 
ATOM     17  H10 <0> d          -3.952   0.423  -0.912  0.00  0.00     0.051 H 
ATOM     18  H11 <0> d          -3.944   0.413   0.958  0.00  0.00     0.051 H 
ENDBRANCH  15  16
ENDBRANCH  14  15
BRANCH  14  19
ATOM     19  C8  <0> d          -0.016   1.348   0.009  0.00  0.00     0.195 C 
ATOM     20  O1  <0> d           1.030   1.972   0.003  0.00  0.00    -0.647 OA
ATOM     21  O2  <0> d           0.002  -0.004   0.002  0.00  0.00    -0.647 OA
ENDBRANCH  14  19
ENDBRANCH   1  14
TORSDOF 7
