REMARK  5 active torsions:
REMARK  status: ('A' for Active; 'I' for Inactive)
REMARK    1  A    between atoms: C1_1  and  C2_2 
REMARK       I    between atoms: C2_2  and  N1_4 
REMARK    2  A    between atoms: N1_4  and  C3_5 
REMARK    3  A    between atoms: C3_5  and  C4_6 
REMARK    4  A    between atoms: C4_6  and  C5_7 
REMARK    5  A    between atoms: C5_7  and  C6_8 
ROOT
ATOM      1  C3  <0> d           2.755   5.077   0.003  0.00  0.00    -0.004 C 
ATOM      2  H5  <0> d           2.248   5.465  -0.880  0.00  0.00     0.064 H 
ATOM      3  H6  <0> d           2.265   5.455   0.900  0.00  0.00     0.064 H 
ENDROOT
BRANCH   1   4
ATOM      4  N1  <0> d           4.154   5.511  -0.008  0.00  0.00    -0.361 N 
ATOM      5  C2  <0> d           4.452   6.826  -0.004  0.00  0.00     0.213 C 
ATOM      6  O1  <0> d           3.561   7.649   0.009  0.00  0.00    -0.274 OA
ATOM      7  H4  <0> d           4.867   4.853  -0.018  0.00  0.00     0.162 HD
BRANCH   5   8
ATOM      8  C1  <0> d           5.891   7.273  -0.015  0.00  0.00    -0.003 C 
ATOM      9  H1  <0> d           6.228   7.386  -1.046  0.00  0.00     0.040 H 
ATOM     10  H2  <0> d           5.979   8.228   0.503  0.00  0.00     0.040 H 
ATOM     11  H3  <0> d           6.507   6.528   0.489  0.00  0.00     0.040 H 
ENDBRANCH   5   8
ENDBRANCH   1   4
BRANCH   1  12
ATOM     12  C4  <0> d           2.696   3.548  -0.005  0.00  0.00    -0.041 C 
ATOM     13  H7  <0> d           3.204   3.160   0.878  0.00  0.00     0.036 H 
ATOM     14  H8  <0> d           3.187   3.170  -0.901  0.00  0.00     0.036 H 
BRANCH  12  15
ATOM     15  C5  <0> d           1.235   3.094   0.007  0.00  0.00     0.017 C 
ATOM     16  H9  <0> d           0.727   3.482  -0.876  0.00  0.00     0.049 H 
ATOM     17  H10 <0> d           0.744   3.473   0.904  0.00  0.00     0.049 H 
BRANCH  15  18
ATOM     18  C6  <0> d           1.177   1.588  -0.001  0.00  0.00     0.172 C 
ATOM     19  O2  <0> d           2.199   0.944  -0.014  0.00  0.00    -0.648 OA
ATOM     20  O3  <0> d          -0.011   0.963   0.007  0.00  0.00    -0.648 OA
ENDBRANCH  15  18
ENDBRANCH  12  15
ENDBRANCH   1  12
TORSDOF 5
