REMARK  2 active torsions:
REMARK  status: ('A' for Active; 'I' for Inactive)
REMARK    1  A    between atoms: C3_3  and  O2_15 
REMARK    2  A    between atoms: C7_9  and  O1_14 
ROOT
ATOM      1  C1  <0> d           0.756   3.628   1.273  0.00  0.00    -0.057 C 
ATOM      2  C2  <0> d          -0.643   3.067   1.470  0.00  0.00    -0.040 C 
ATOM      3  C3  <0> d          -0.707   1.559   1.282  0.00  0.00     0.039 C 
ATOM      4  H1  <0> d          -0.232   1.071   2.145  0.00  0.00     0.083 H 
ATOM      5  C4  <0> d          -0.013   1.098   0.008  0.00  0.00    -0.029 C 
ATOM      6  H2  <0> d          -0.038  -0.002  -0.000  0.00  0.00     0.043 H 
ATOM      7  C5  <0> d          -0.735   1.574  -1.243  0.00  0.00    -0.057 C 
ATOM      8  C6  <0> d          -0.662   3.079  -1.437  0.00  0.00    -0.040 C 
ATOM      9  C7  <0> d           0.737   3.643  -1.247  0.00  0.00     0.039 C 
ATOM     10  H3  <0> d           0.670   4.739  -1.180  0.00  0.00     0.083 H 
ATOM     11  C8  <0> d           1.424   3.115   0.005  0.00  0.00    -0.029 C 
ATOM     12  H4  <0> d           2.458   3.490  -0.002  0.00  0.00     0.043 H 
ATOM     13  C9  <0> d           1.436   1.587  -0.003  0.00  0.00    -0.054 C 
ATOM     14  H5  <0> d           1.360   3.341   2.147  0.00  0.00     0.033 H 
ATOM     15  H6  <0> d           0.676   4.724   1.227  0.00  0.00     0.033 H 
ATOM     16  H7  <0> d          -0.988   3.293   2.490  0.00  0.00     0.036 H 
ATOM     17  H8  <0> d          -1.328   3.526   0.742  0.00  0.00     0.036 H 
ATOM     18  H9  <0> d          -0.283   1.102  -2.129  0.00  0.00     0.033 H 
ATOM     19  H10 <0> d          -1.797   1.297  -1.182  0.00  0.00     0.033 H 
ATOM     20  H11 <0> d          -0.986   3.334  -2.457  0.00  0.00     0.036 H 
ATOM     21  H12 <0> d          -1.320   3.575  -0.708  0.00  0.00     0.036 H 
ATOM     22  H13 <0> d           1.957   1.208   0.888  0.00  0.00     0.034 H 
ATOM     23  H14 <0> d           1.941   1.217  -0.908  0.00  0.00     0.034 H 
ENDROOT
BRANCH   3  24
ATOM     24  O2  <0> d          -2.078   1.141   1.257  0.00  0.00    -0.395 OA
ATOM     25  H16 <0> d          -2.326   0.077   1.128  0.00  0.00     0.210 HD
ENDBRANCH   3  24
BRANCH   9  26
ATOM     26  O1  <0> d           1.537   3.328  -2.395  0.00  0.00    -0.395 OA
ATOM     27  H15 <0> d           2.586   3.655  -2.442  0.00  0.00     0.210 HD
ENDBRANCH   9  26
TORSDOF 2
