REMARK  2 active torsions:
REMARK  status: ('A' for Active; 'I' for Inactive)
REMARK    1  A    between atoms: C1_1  and  C2_2 
REMARK    2  A    between atoms: C6_7  and  C10_13 
ROOT
ATOM      1  C2  <0> d          -0.729   1.579   1.267  0.00  0.00    -0.008 C 
ATOM      2  C3  <0> d          -1.011   3.094   1.317  0.00  0.00    -0.055 C 
ATOM      3  C4  <0> d          -2.248   3.275   2.228  0.00  0.00    -0.060 C 
ATOM      4  C5  <0> d          -2.444   1.849   2.841  0.00  0.00    -0.042 C 
ATOM      5  H1  <0> d          -3.376   1.654   3.370  0.00  0.00     0.041 H 
ATOM      6  C6  <0> d          -2.144   0.940   1.572  0.00  0.00    -0.009 C 
ATOM      7  C7  <0> d          -1.718  -0.454   2.093  0.00  0.00     0.028 C 
ATOM      8  O1  <0> d          -0.389  -0.305   2.625  0.00  0.00    -0.384 OA
ATOM      9  C8  <0> d          -0.106   1.123   2.631  0.00  0.00     0.046 C 
ATOM     10  H2  <0> d           0.936   1.398   2.792  0.00  0.00     0.084 H 
ATOM     11  C9  <0> d          -1.123   1.694   3.668  0.00  0.00    -0.036 C 
ATOM     12  H6  <0> d          -0.161   3.619   1.752  0.00  0.00     0.034 H 
ATOM     13  H7  <0> d          -1.210   3.471   0.314  0.00  0.00     0.034 H 
ATOM     14  H8  <0> d          -3.119   3.566   1.641  0.00  0.00     0.033 H 
ATOM     15  H9  <0> d          -2.049   4.008   3.010  0.00  0.00     0.033 H 
ATOM     16  H10 <0> d          -2.399  -0.783   2.878  0.00  0.00     0.075 H 
ATOM     17  H11 <0> d          -1.714  -1.174   1.275  0.00  0.00     0.075 H 
ATOM     18  H12 <0> d          -1.266   0.994   4.491  0.00  0.00     0.037 H 
ATOM     19  H13 <0> d          -0.787   2.661   4.042  0.00  0.00     0.037 H 
ENDROOT
BRANCH   1  20
ATOM     20  C1  <0> d          -0.013   1.086   0.008  0.00  0.00    -0.066 C 
ATOM     21  H3  <0> d           0.002  -0.004   0.002  0.00  0.00     0.028 H 
ATOM     22  H4  <0> d           1.010   1.463   0.000  0.00  0.00     0.028 H 
ATOM     23  H5  <0> d          -0.540   1.447  -0.875  0.00  0.00     0.028 H 
ENDBRANCH   1  20
BRANCH   6  24
ATOM     24  C10 <0> d          -3.181   0.971   0.447  0.00  0.00    -0.066 C 
ATOM     25  H14 <0> d          -2.796   0.428  -0.417  0.00  0.00     0.028 H 
ATOM     26  H15 <0> d          -4.103   0.500   0.790  0.00  0.00     0.028 H 
ATOM     27  H16 <0> d          -3.382   2.004   0.167  0.00  0.00     0.028 H 
ENDBRANCH   6  24
TORSDOF 2
