REMARK  2 active torsions:
REMARK  status: ('A' for Active; 'I' for Inactive)
REMARK    1  A    between atoms: C9_9  and  C10_11 
REMARK    2  A    between atoms: C10_11  and  O1_12 
ROOT
ATOM      1  C1  <0> d           2.394   0.022  -0.021  0.00  0.00    -0.082 A 
ATOM      2  C2  <0> d           1.205  -0.683  -0.013  0.00  0.00    -0.082 A 
ATOM      3  C3  <0> d           0.002  -0.004   0.002  0.00  0.00    -0.076 A 
ATOM      4  C4  <0> d          -0.017   1.381   0.010  0.00  0.00    -0.046 A 
ATOM      5  C5  <0> d           1.173   2.085   0.002  0.00  0.00    -0.051 A 
ATOM      6  C6  <0> d           2.378   1.403  -0.013  0.00  0.00    -0.076 A 
ATOM      7  C7  <0> d           0.887   3.571   0.013  0.00  0.00    -0.040 C 
ATOM      8  C8  <0> d          -0.582   3.697   0.467  0.00  0.00    -0.052 C 
ATOM      9  C9  <0> d          -1.183   2.346   0.020  0.00  0.00    -0.007 C 
ATOM     10  H1  <0> d          -1.941   2.016   0.730  0.00  0.00     0.050 H 
ATOM     11  H2  <0> d           3.336  -0.508  -0.034  0.00  0.00     0.083 H 
ATOM     12  H3  <0> d           1.216  -1.763  -0.019  0.00  0.00     0.083 H 
ATOM     13  H4  <0> d          -0.927  -0.555   0.009  0.00  0.00     0.084 H 
ATOM     14  H5  <0> d           3.307   1.952  -0.019  0.00  0.00     0.084 H 
ATOM     15  H6  <0> d           1.546   4.078   0.718  0.00  0.00     0.040 H 
ATOM     16  H7  <0> d           1.012   3.988  -0.987  0.00  0.00     0.040 H 
ATOM     17  H8  <0> d          -0.645   3.814   1.549  0.00  0.00     0.034 H 
ATOM     18  H9  <0> d          -1.076   4.525  -0.042  0.00  0.00     0.034 H 
ENDROOT
BRANCH   9  19
ATOM     19  C10 <0> d          -1.784   2.467  -1.382  0.00  0.00     0.024 C 
ATOM     20  H10 <0> d          -2.545   3.247  -1.385  0.00  0.00     0.075 H 
ATOM     21  H11 <0> d          -0.999   2.723  -2.093  0.00  0.00     0.075 H 
BRANCH  19  22
ATOM     22  O1  <0> d          -2.377   1.222  -1.755  0.00  0.00    -0.400 OA
ATOM     23  H12 <0> d          -2.779   1.225  -2.635  0.00  0.00     0.209 HD
ENDBRANCH  19  22
ENDBRANCH   9  19
TORSDOF 2
