REMARK  5 active torsions:
REMARK  status: ('A' for Active; 'I' for Inactive)
REMARK    1  A    between atoms: C1_1  and  C2_2 
REMARK    2  A    between atoms: C2_2  and  C8_13 
REMARK    3  A    between atoms: C4_5  and  C5_8 
REMARK    4  A    between atoms: C5_8  and  C6_10 
REMARK    5  A    between atoms: C5_8  and  O3_12 
ROOT
ATOM      1  C6  <0> d          -0.731   2.430  -3.500  0.00  0.00    -0.083 C 
ATOM      2  C7  <0> d          -1.351   2.937  -4.359  0.00  0.00    -0.151 C 
ATOM      3  H8  <0> d          -1.906   3.389  -5.127  0.00  0.00     0.166 H 
ENDROOT
BRANCH   1   4
ATOM      4  C5  <0> d           0.046   1.796  -2.423  0.00  0.00     0.120 C 
ATOM      5  H2  <0> d           0.391   0.816  -2.752  0.00  0.00     0.107 H 
BRANCH   4   6
ATOM      6  C4  <0> d          -0.837   1.636  -1.183  0.00  0.00     0.097 C 
ATOM      7  C3  <0> d          -0.013   1.086   0.008  0.00  0.00     0.050 C 
ATOM      8  O1  <0> d          -0.761   1.588   1.141  0.00  0.00    -0.353 OA
ATOM      9  H6  <0> d           0.002  -0.004   0.002  0.00  0.00     0.078 H 
ATOM     10  H7  <0> d           1.000   1.488   0.001  0.00  0.00     0.078 H 
ATOM     11  C2  <0> d          -1.227   2.884   0.728  0.00  0.00     0.157 C 
ATOM     12  O2  <0> d          -1.286   2.919  -0.704  0.00  0.00    -0.345 OA
ATOM     13  H1  <0> d          -1.685   0.986  -1.397  0.00  0.00     0.092 H 
BRANCH  11  14
ATOM     14  C1  <0> d          -0.263   3.960   1.230  0.00  0.00    -0.026 C 
ATOM     15  H3  <0> d          -0.612   4.941   0.906  0.00  0.00     0.035 H 
ATOM     16  H4  <0> d          -0.220   3.931   2.319  0.00  0.00     0.035 H 
ATOM     17  H5  <0> d           0.731   3.776   0.823  0.00  0.00     0.035 H 
ENDBRANCH  11  14
BRANCH  11  18
ATOM     18  C8  <0> d          -2.621   3.138   1.306  0.00  0.00    -0.026 C 
ATOM     19  H10 <0> d          -3.307   2.367   0.953  0.00  0.00     0.035 H 
ATOM     20  H11 <0> d          -2.574   3.110   2.395  0.00  0.00     0.035 H 
ATOM     21  H12 <0> d          -2.976   4.116   0.983  0.00  0.00     0.035 H 
ENDBRANCH  11  18
ENDBRANCH   4   6
BRANCH   4  22
ATOM     22  O3  <0> d           1.173   2.615  -2.103  0.00  0.00    -0.381 OA
ATOM     23  H9  <0> d           0.940   3.503  -1.801  0.00  0.00     0.211 HD
ENDBRANCH   4  22
ENDBRANCH   1   4
TORSDOF 5
