REMARK  1 active torsions:
REMARK  status: ('A' for Active; 'I' for Inactive)
REMARK    1  A    between atoms: C2_2  and  N2_8 
ROOT
ATOM      1  C1  <0> d           1.164   2.449   0.004  0.00  0.00    -0.034 A 
ATOM      2  C2  <0> d           1.096   3.840   0.012  0.00  0.00     0.045 A 
ATOM      3  C3  <0> d          -0.150   4.454   0.026  0.00  0.00     0.027 A 
ATOM      4  N1  <0> d          -1.254   3.734   0.033  0.00  0.00    -0.269 NA
ATOM      5  C4  <0> d          -1.225   2.416   0.021  0.00  0.00     0.023 A 
ATOM      6  C5  <0> d          -0.021   1.732   0.012  0.00  0.00     0.053 A 
ATOM      7 Cl1  <0> d           0.002  -0.004   0.002  0.00  0.00    -0.083 Cl
ATOM      8  H1  <0> d           2.118   1.942  -0.007  0.00  0.00     0.089 H 
ATOM      9  H2  <0> d          -0.215   5.532   0.033  0.00  0.00     0.118 H 
ATOM     10  H3  <0> d          -2.152   1.862   0.022  0.00  0.00     0.117 H 
ENDROOT
BRANCH   2  11
ATOM     11  N2  <0> d           2.263   4.607   0.004  0.00  0.00    -0.398 N 
ATOM     12  H4  <0> d           3.130   4.172  -0.006  0.00  0.00     0.156 HD
ATOM     13  H5  <0> d           2.207   5.576   0.010  0.00  0.00     0.156 HD
ENDBRANCH   2  11
TORSDOF 1
