REMARK  4 active torsions:
REMARK  status: ('A' for Active; 'I' for Inactive)
REMARK    1  A    between atoms: C1_1  and  C2_2 
REMARK    2  A    between atoms: C2_2  and  C3_3 
REMARK    3  A    between atoms: C2_2  and  C4_4 
REMARK    4  A    between atoms: N1_7  and  C7_9 
ROOT
ATOM      1  C4  <0> d          -1.025   2.235   3.285  0.00  0.00     0.061 A 
ATOM      2  C5  <0> d          -2.254   2.233   2.629  0.00  0.00    -0.019 A 
ATOM      3  C6  <0> d          -2.036   1.813   1.332  0.00  0.00     0.134 A 
ATOM      4  N1  <0> d          -0.698   1.558   1.213  0.00  0.00    -0.264 N 
ATOM      5  N2  <0> d          -0.100   1.835   2.449  0.00  0.00    -0.176 NA
ATOM      6  C8  <0> d          -3.024   1.670   0.306  0.00  0.00     0.119 C 
ATOM      7  N3  <0> d          -3.808   1.556  -0.508  0.00  0.00    -0.190 NA
ATOM      8  H8  <0> d          -3.205   2.513   3.057  0.00  0.00     0.091 H 
ENDROOT
BRANCH   4   9
ATOM      9  C7  <0> d          -0.013   1.086   0.008  0.00  0.00     0.004 C 
ATOM     10  H9  <0> d           0.002  -0.004   0.002  0.00  0.00     0.059 H 
ATOM     11  H10 <0> d           1.010   1.463   0.000  0.00  0.00     0.059 H 
ATOM     12  H11 <0> d          -0.540   1.447  -0.875  0.00  0.00     0.059 H 
ENDBRANCH   4   9
BRANCH   1  13
ATOM     13  C2  <0> d          -0.798   2.631   4.722  0.00  0.00    -0.017 C 
ATOM     14  H4  <0> d           0.101   2.141   5.095  0.00  0.00     0.048 H 
BRANCH  13  15
ATOM     15  C1  <0> d          -0.627   4.148   4.811  0.00  0.00    -0.068 C 
ATOM     16  H1  <0> d          -1.526   4.638   4.438  0.00  0.00     0.028 H 
ATOM     17  H2  <0> d          -0.463   4.435   5.850  0.00  0.00     0.028 H 
ATOM     18  H3  <0> d           0.229   4.454   4.210  0.00  0.00     0.028 H 
ENDBRANCH  13  15
BRANCH  13  19
ATOM     19  C3  <0> d          -2.000   2.202   5.565  0.00  0.00    -0.068 C 
ATOM     20  H5  <0> d          -2.122   1.121   5.501  0.00  0.00     0.028 H 
ATOM     21  H6  <0> d          -1.836   2.488   6.604  0.00  0.00     0.028 H 
ATOM     22  H7  <0> d          -2.899   2.691   5.191  0.00  0.00     0.028 H 
ENDBRANCH  13  19
ENDBRANCH   1  13
TORSDOF 4
