REMARK  0 active torsions:
REMARK  status: ('A' for Active; 'I' for Inactive)
ROOT
ATOM      1  C1  <0> d           1.191  -0.717  -0.013  0.00  0.00    -0.065 A 
ATOM      2  C2  <0> d           2.396  -0.036  -0.021  0.00  0.00    -0.062 A 
ATOM      3  C3  <0> d           2.357   1.358  -0.013  0.00  0.00     0.080 A 
ATOM      4  C4  <0> d           3.578   2.175  -0.021  0.00  0.00     0.260 A 
ATOM      5  O1  <0> d           4.682   1.662  -0.034  0.00  0.00    -0.267 OA
ATOM      6  N1  <0> d           3.427   3.520  -0.012  0.00  0.00    -0.317 N 
ATOM      7  H1  <0> d           4.210   4.092  -0.016  0.00  0.00     0.170 HD
ATOM      8  C5  <0> d           2.188   4.073   0.002  0.00  0.00     0.069 A 
ATOM      9  N2  <0> d           1.092   3.377   0.009  0.00  0.00    -0.223 NA
ATOM     10  C6  <0> d           1.109   2.021   0.002  0.00  0.00     0.166 A 
ATOM     11  N3  <0> d          -0.016   1.312   0.009  0.00  0.00    -0.241 NA
ATOM     12  C7  <0> d           0.002  -0.004   0.002  0.00  0.00     0.005 A 
ATOM     13  H2  <0> d           1.178  -1.797  -0.019  0.00  0.00     0.085 H 
ATOM     14  H3  <0> d           3.336  -0.567  -0.032  0.00  0.00     0.085 H 
ATOM     15  H4  <0> d           2.109   5.151   0.008  0.00  0.00     0.143 H 
ATOM     16  H5  <0> d          -0.934  -0.543   0.008  0.00  0.00     0.114 H 
ENDROOT
TORSDOF 0
