REMARK  4 active torsions:
REMARK  status: ('A' for Active; 'I' for Inactive)
REMARK    1  A    between atoms: C2_2  and  C3_3 
REMARK    2  A    between atoms: C3_3  and  O1_4 
REMARK    3  A    between atoms: O1_4  and  C4_5 
REMARK    4  A    between atoms: C7_8  and  O2_11 
ROOT
ATOM      1  C4  <0> d           1.175   2.087   0.002  0.00  0.00     0.069 A 
ATOM      2  C5  <0> d          -0.017   1.377   0.010  0.00  0.00    -0.048 A 
ATOM      3  C6  <0> d           0.002  -0.004   0.002  0.00  0.00    -0.048 A 
ATOM      4  C7  <0> d           1.212  -0.681  -0.013  0.00  0.00     0.065 A 
ATOM      5  C8  <0> d           2.404   0.029  -0.020  0.00  0.00    -0.048 A 
ATOM      6  C9  <0> d           2.385   1.410  -0.013  0.00  0.00    -0.048 A 
ATOM      7  H6  <0> d          -0.959   1.904   0.017  0.00  0.00     0.087 H 
ATOM      8  H7  <0> d          -0.926  -0.557   0.007  0.00  0.00     0.087 H 
ATOM      9  H8  <0> d           3.347  -0.499  -0.031  0.00  0.00     0.087 H 
ATOM     10  H9  <0> d           3.313   1.962  -0.018  0.00  0.00     0.087 H 
ENDROOT
BRANCH   1  11
ATOM     11  O1  <0> d           1.157   3.446   0.009  0.00  0.00    -0.348 OA
BRANCH  11  12
ATOM     12  C3  <0> d           2.421   4.113   0.001  0.00  0.00     0.040 C 
ATOM     13  H4  <0> d           2.990   3.823   0.884  0.00  0.00     0.081 H 
ATOM     14  H5  <0> d           2.973   3.832  -0.896  0.00  0.00     0.081 H 
BRANCH  12  15
ATOM     15  C2  <0> d           2.203   5.604   0.010  0.00  0.00    -0.089 C 
ATOM     16  C1  <0> d           2.910   6.364   0.810  0.00  0.00    -0.123 C 
ATOM     17  H1  <0> d           2.754   7.432   0.816  0.00  0.00     0.066 H 
ATOM     18  H2  <0> d           3.648   5.922   1.462  0.00  0.00     0.066 H 
ATOM     19  H3  <0> d           1.464   6.046  -0.642  0.00  0.00     0.078 H 
ENDBRANCH  12  15
ENDBRANCH  11  12
ENDBRANCH   1  11
BRANCH   4  20
ATOM     20  O2  <0> d           1.231  -2.041  -0.021  0.00  0.00    -0.361 OA
ATOM     21  H10 <0> d           1.228  -2.429  -0.906  0.00  0.00     0.217 HD
ENDBRANCH   4  20
TORSDOF 4
