REMARK  9 active torsions:
REMARK  status: ('A' for Active; 'I' for Inactive)
REMARK    1  A    between atoms: C1_1  and  C2_2 
REMARK    2  A    between atoms: C2_2  and  O1_3 
REMARK    3  A    between atoms: O1_3  and  C3_4 
REMARK    4  A    between atoms: C3_4  and  C4_5 
REMARK    5  A    between atoms: C3_4  and  O2_9 
REMARK    6  A    between atoms: C4_5  and  C5_6 
REMARK    7  A    between atoms: C5_6  and  C7_8 
REMARK    8  A    between atoms: O2_9  and  C8_10 
REMARK    9  A    between atoms: C8_10  and  C9_11 
ROOT
ATOM      1  C3  <0> d           0.666  -1.935   1.255  0.00  0.00     0.134 C 
ATOM      2  H6  <0> d           1.124  -2.406   0.386  0.00  0.00     0.129 H 
ENDROOT
BRANCH   1   3
ATOM      3  O1  <0> d           0.734  -0.514   1.118  0.00  0.00    -0.361 OA
BRANCH   3   4
ATOM      4  C2  <0> d           0.639  -0.055  -0.232  0.00  0.00     0.019 C 
ATOM      5  H4  <0> d          -0.270  -0.448  -0.686  0.00  0.00     0.073 H 
ATOM      6  H5  <0> d           1.506  -0.402  -0.795  0.00  0.00     0.073 H 
BRANCH   4   7
ATOM      7  C1  <0> d           0.599   1.474  -0.249  0.00  0.00    -0.056 C 
ATOM      8  H1  <0> d           1.509   1.867   0.205  0.00  0.00     0.030 H 
ATOM      9  H2  <0> d           0.527   1.825  -1.279  0.00  0.00     0.030 H 
ATOM     10  H3  <0> d          -0.268   1.821   0.314  0.00  0.00     0.030 H 
ENDBRANCH   4   7
ENDBRANCH   3   4
ENDBRANCH   1   3
BRANCH   1  11
ATOM     11  C4  <0> d           1.414  -2.361   2.520  0.00  0.00     0.000 C 
ATOM     12  H7  <0> d           1.013  -1.822   3.378  0.00  0.00     0.046 H 
ATOM     13  H8  <0> d           1.287  -3.433   2.672  0.00  0.00     0.046 H 
BRANCH  11  14
ATOM     14  C5  <0> d           2.880  -2.045   2.368  0.00  0.00    -0.088 C 
ATOM     15  C6  <0> d           3.360  -0.921   2.840  0.00  0.00    -0.119 C 
ATOM     16  H9  <0> d           2.705  -0.222   3.338  0.00  0.00     0.067 H 
ATOM     17  H10 <0> d           4.410  -0.695   2.731  0.00  0.00     0.067 H 
BRANCH  14  18
ATOM     18  C7  <0> d           3.793  -3.022   1.672  0.00  0.00    -0.055 C 
ATOM     19  H11 <0> d           3.820  -2.797   0.606  0.00  0.00     0.033 H 
ATOM     20  H12 <0> d           4.797  -2.938   2.087  0.00  0.00     0.033 H 
ATOM     21  H13 <0> d           3.421  -4.036   1.821  0.00  0.00     0.033 H 
ENDBRANCH  14  18
ENDBRANCH  11  14
ENDBRANCH   1  11
BRANCH   1  22
ATOM     22  O2  <0> d          -0.701  -2.339   1.351  0.00  0.00    -0.361 OA
BRANCH  22  23
ATOM     23  C8  <0> d          -1.411  -2.284   0.112  0.00  0.00     0.019 C 
ATOM     24  H14 <0> d          -1.504  -1.247  -0.208  0.00  0.00     0.073 H 
ATOM     25  H15 <0> d          -0.868  -2.851  -0.644  0.00  0.00     0.073 H 
BRANCH  23  26
ATOM     26  C9  <0> d          -2.805  -2.887   0.296  0.00  0.00    -0.056 C 
ATOM     27  H16 <0> d          -2.713  -3.925   0.617  0.00  0.00     0.030 H 
ATOM     28  H17 <0> d          -3.349  -2.321   1.052  0.00  0.00     0.030 H 
ATOM     29  H18 <0> d          -3.347  -2.846  -0.648  0.00  0.00     0.030 H 
ENDBRANCH  23  26
ENDBRANCH  22  23
ENDBRANCH   1  22
TORSDOF 9
