REMARK  1 active torsions:
REMARK  status: ('A' for Active; 'I' for Inactive)
REMARK    1  A    between atoms: C6_6  and  N2_11 
ROOT
ATOM      1  C1  <0> d          -0.017   1.388   0.010  0.00  0.00    -0.065 A 
ATOM      2  C2  <0> d           1.158   2.087   0.002  0.00  0.00    -0.069 A 
ATOM      3  C3  <0> d           2.363   1.361  -0.013  0.00  0.00    -0.007 A 
ATOM      4  C4  <0> d           3.607   2.014  -0.021  0.00  0.00    -0.069 A 
ATOM      5  C5  <0> d           4.754   1.286  -0.035  0.00  0.00    -0.057 A 
ATOM      6  C6  <0> d           4.714  -0.115  -0.043  0.00  0.00     0.028 A 
ATOM      7  C7  <0> d           3.510  -0.785  -0.035  0.00  0.00    -0.029 A 
ATOM      8  C8  <0> d           2.310  -0.056  -0.020  0.00  0.00     0.068 A 
ATOM      9  N1  <0> d           1.127  -0.678  -0.012  0.00  0.00    -0.260 NA
ATOM     10  C9  <0> d           0.002  -0.004   0.002  0.00  0.00     0.003 A 
ATOM     11  H1  <0> d          -0.959   1.915   0.026  0.00  0.00     0.085 H 
ATOM     12  H2  <0> d           1.161   3.167   0.008  0.00  0.00     0.085 H 
ATOM     13  H3  <0> d           3.651   3.094  -0.016  0.00  0.00     0.085 H 
ATOM     14  H4  <0> d           5.708   1.792  -0.042  0.00  0.00     0.086 H 
ATOM     15  H5  <0> d           3.490  -1.865  -0.041  0.00  0.00     0.090 H 
ATOM     16  H6  <0> d          -0.934  -0.543   0.008  0.00  0.00     0.114 H 
ENDROOT
BRANCH   6  17
ATOM     17  N2  <0> d           5.906  -0.838  -0.058  0.00  0.00    -0.399 N 
ATOM     18  H7  <0> d           6.756  -0.372  -0.064  0.00  0.00     0.156 HD
ATOM     19  H8  <0> d           5.884  -1.808  -0.063  0.00  0.00     0.156 HD
ENDBRANCH   6  17
TORSDOF 1
