REMARK  4 active torsions:
REMARK  status: ('A' for Active; 'I' for Inactive)
REMARK    1  A    between atoms: C1_1  and  O1_2 
REMARK    2  A    between atoms: O1_2  and  C2_3 
REMARK    3  A    between atoms: C2_3  and  C3_5 
REMARK    4  A    between atoms: C3_5  and  O3_10 
ROOT
ATOM      1  C3  <0> d          -0.018   1.503   0.010  0.00  0.00     0.145 C 
ATOM      2  C4  <0> d          -0.700   2.029  -1.270  0.00  0.00    -0.027 C 
ATOM      3  C5  <0> d           0.110   3.297  -1.637  0.00  0.00    -0.062 C 
ATOM      4  C6  <0> d           1.563   2.889  -1.287  0.00  0.00    -0.062 C 
ATOM      5  C7  <0> d           1.420   2.050  -0.001  0.00  0.00    -0.027 C 
ATOM      6  H4  <0> d          -0.634   1.290  -2.068  0.00  0.00     0.038 H 
ATOM      7  H5  <0> d          -1.740   2.285  -1.071  0.00  0.00     0.038 H 
ATOM      8  H6  <0> d          -0.208   4.147  -1.033  0.00  0.00     0.033 H 
ATOM      9  H7  <0> d           0.018   3.524  -2.699  0.00  0.00     0.033 H 
ATOM     10  H8  <0> d           2.173   3.772  -1.100  0.00  0.00     0.033 H 
ATOM     11  H9  <0> d           1.994   2.289  -2.088  0.00  0.00     0.033 H 
ATOM     12  H10 <0> d           1.588   2.677   0.875  0.00  0.00     0.038 H 
ATOM     13  H11 <0> d           2.133   1.225  -0.012  0.00  0.00     0.038 H 
ENDROOT
BRANCH   1  14
ATOM     14  C2  <0> d           0.002  -0.004   0.002  0.00  0.00     0.293 C 
ATOM     15  O2  <0> d           0.954  -0.593  -0.453  0.00  0.00    -0.262 OA
BRANCH  14  16
ATOM     16  O1  <0> d          -1.038  -0.692   0.500  0.00  0.00    -0.324 OA
BRANCH  16  17
ATOM     17  C1  <0> d          -0.949  -2.141   0.459  0.00  0.00     0.013 C 
ATOM     18  H1  <0> d          -0.849  -2.470  -0.576  0.00  0.00     0.067 H 
ATOM     19  H2  <0> d          -0.081  -2.468   1.030  0.00  0.00     0.067 H 
ATOM     20  H3  <0> d          -1.852  -2.572   0.891  0.00  0.00     0.067 H 
ENDBRANCH  16  17
ENDBRANCH  14  16
ENDBRANCH   1  14
BRANCH   1  21
ATOM     21  O3  <0> d          -0.713   1.976   1.166  0.00  0.00    -0.380 OA
ATOM     22  H12 <0> d          -1.630   1.674   1.224  0.00  0.00     0.211 HD
ENDBRANCH   1  21
TORSDOF 4
