REMARK  5 active torsions:
REMARK  status: ('A' for Active; 'I' for Inactive)
REMARK    1  A    between atoms: C1_1  and  C2_2 
REMARK    2  A    between atoms: C4_4  and  N3_10 
REMARK    3  A    between atoms: N1_5  and  C5_7 
REMARK    4  A    between atoms: C5_7  and  C6_8 
REMARK    5  A    between atoms: C5_7  and  C7_9 
ROOT
ATOM      1  C2  <0> d          -1.557   2.922   2.707  0.00  0.00     0.054 A 
ATOM      2  C3  <0> d          -1.775   1.605   3.119  0.00  0.00    -0.014 A 
ATOM      3  C4  <0> d          -1.241   0.780   2.177  0.00  0.00     0.119 A 
ATOM      4  N1  <0> d          -0.698   1.558   1.213  0.00  0.00    -0.250 N 
ATOM      5  N2  <0> d          -0.913   2.896   1.568  0.00  0.00    -0.175 NA
ATOM      6  H4  <0> d          -2.281   1.296   4.022  0.00  0.00     0.092 H 
ENDROOT
BRANCH   4   7
ATOM      7  C5  <0> d          -0.013   1.086   0.008  0.00  0.00     0.029 C 
ATOM      8  H5  <0> d           0.002  -0.004   0.002  0.00  0.00     0.074 H 
BRANCH   7   9
ATOM      9  C6  <0> d           1.423   1.615  -0.003  0.00  0.00    -0.056 C 
ATOM     10  H6  <0> d           1.933   1.264  -0.900  0.00  0.00     0.030 H 
ATOM     11  H7  <0> d           1.408   2.705   0.003  0.00  0.00     0.030 H 
ATOM     12  H8  <0> d           1.950   1.254   0.880  0.00  0.00     0.030 H 
ENDBRANCH   7   9
BRANCH   7  13
ATOM     13  C7  <0> d          -0.753   1.593  -1.232  0.00  0.00    -0.056 C 
ATOM     14  H9  <0> d          -0.242   1.241  -2.128  0.00  0.00     0.030 H 
ATOM     15  H10 <0> d          -1.775   1.215  -1.224  0.00  0.00     0.030 H 
ATOM     16  H11 <0> d          -0.767   2.683  -1.226  0.00  0.00     0.030 H 
ENDBRANCH   7  13
ENDBRANCH   4   7
BRANCH   3  17
ATOM     17  N3  <0> d          -1.248  -0.612   2.203  0.00  0.00    -0.384 N 
ATOM     18  H12 <0> d          -0.837  -1.113   1.481  0.00  0.00     0.157 HD
ATOM     19  H13 <0> d          -1.665  -1.081   2.943  0.00  0.00     0.157 HD
ENDBRANCH   3  17
BRANCH   1  20
ATOM     20  C1  <0> d          -1.989   4.162   3.448  0.00  0.00    -0.034 C 
ATOM     21  H1  <0> d          -2.987   4.451   3.121  0.00  0.00     0.035 H 
ATOM     22  H2  <0> d          -2.001   3.959   4.519  0.00  0.00     0.035 H 
ATOM     23  H3  <0> d          -1.289   4.972   3.240  0.00  0.00     0.035 H 
ENDBRANCH   1  20
TORSDOF 5
