REMARK  1 active torsions:
REMARK  status: ('A' for Active; 'I' for Inactive)
REMARK    1  A    between atoms: C5_5  and  N2_11 
ROOT
ATOM      1  C1  <0> d          -0.017   1.389   0.010  0.00  0.00    -0.065 A 
ATOM      2  C2  <0> d           1.158   2.086   0.002  0.00  0.00    -0.069 A 
ATOM      3  C3  <0> d           2.362   1.358  -0.013  0.00  0.00    -0.005 A 
ATOM      4  C4  <0> d           3.607   2.007  -0.021  0.00  0.00    -0.046 A 
ATOM      5  C5  <0> d           4.762   1.258  -0.036  0.00  0.00     0.026 A 
ATOM      6  C6  <0> d           4.703  -0.141  -0.043  0.00  0.00    -0.056 A 
ATOM      7  C7  <0> d           3.510  -0.792  -0.036  0.00  0.00    -0.052 A 
ATOM      8  C8  <0> d           2.310  -0.058  -0.020  0.00  0.00     0.066 A 
ATOM      9  N1  <0> d           1.126  -0.679  -0.012  0.00  0.00    -0.260 NA
ATOM     10  C9  <0> d           0.002  -0.004   0.002  0.00  0.00     0.003 A 
ATOM     11  H1  <0> d          -0.959   1.917   0.026  0.00  0.00     0.085 H 
ATOM     12  H2  <0> d           1.162   3.166   0.008  0.00  0.00     0.085 H 
ATOM     13  H3  <0> d           3.658   3.086  -0.016  0.00  0.00     0.088 H 
ATOM     14  H4  <0> d           5.620  -0.712  -0.055  0.00  0.00     0.087 H 
ATOM     15  H5  <0> d           3.483  -1.871  -0.043  0.00  0.00     0.087 H 
ATOM     16  H6  <0> d          -0.934  -0.542   0.008  0.00  0.00     0.114 H 
ENDROOT
BRANCH   5  17
ATOM     17  N2  <0> d           6.003   1.898  -0.043  0.00  0.00    -0.399 N 
ATOM     18  H7  <0> d           6.049   2.867  -0.039  0.00  0.00     0.156 HD
ATOM     19  H8  <0> d           6.819   1.375  -0.054  0.00  0.00     0.156 HD
ENDBRANCH   5  17
TORSDOF 1
