REMARK  2 active torsions:
REMARK  status: ('A' for Active; 'I' for Inactive)
REMARK    1  A    between atoms: C1_1  and  C2_2 
REMARK    2  A    between atoms: C4_4  and  C7_10 
ROOT
ATOM      1  C2  <0> d          -0.053   3.712   0.023  0.00  0.00    -0.055 A 
ATOM      2  C3  <0> d          -1.244   2.974   0.030  0.00  0.00    -0.056 A 
ATOM      3  C4  <0> d          -1.200   1.621   0.017  0.00  0.00     0.009 A 
ATOM      4  N1  <0> d          -0.011   0.966   0.007  0.00  0.00    -0.328 N 
ATOM      5  H1  <0> d           0.011  -0.134   0.006  0.00  0.00     0.169 HD
ATOM      6  C5  <0> d           1.150   1.647  -0.000  0.00  0.00     0.245 A 
ATOM      7  O1  <0> d           2.211   1.044  -0.013  0.00  0.00    -0.268 OA
ATOM      8  C6  <0> d           1.141   3.053   0.008  0.00  0.00    -0.012 A 
ATOM      9  H5  <0> d          -2.196   3.483   0.042  0.00  0.00     0.087 H 
ATOM     10  H6  <0> d           2.070   3.604   0.002  0.00  0.00     0.092 H 
ENDROOT
BRANCH   1  11
ATOM     11  C1  <0> d          -0.090   5.219   0.032  0.00  0.00    -0.051 C 
ATOM     12  H2  <0> d          -1.136   5.559   0.044  0.00  0.00     0.033 H 
ATOM     13  H3  <0> d           0.411   5.604  -0.868  0.00  0.00     0.033 H 
ATOM     14  H4  <0> d           0.427   5.593   0.928  0.00  0.00     0.033 H 
ENDBRANCH   1  11
BRANCH   3  15
ATOM     15  C7  <0> d          -2.485   0.833   0.018  0.00  0.00    -0.037 C 
ATOM     16  H7  <0> d          -2.256  -0.242   0.006  0.00  0.00     0.035 H 
ATOM     17  H8  <0> d          -3.075   1.092  -0.873  0.00  0.00     0.035 H 
ATOM     18  H9  <0> d          -3.062   1.075   0.923  0.00  0.00     0.035 H 
ENDBRANCH   3  15
TORSDOF 2
