REMARK  6 active torsions:
REMARK  status: ('A' for Active; 'I' for Inactive)
REMARK    1  A    between atoms: C1_1  and  C2_2 
REMARK    2  A    between atoms: C2_2  and  C3_3 
REMARK    3  A    between atoms: C3_3  and  C4_5 
REMARK    4  A    between atoms: C3_3  and  C5_6 
REMARK    5  A    between atoms: C5_6  and  C6_7 
REMARK    6  A    between atoms: C6_7  and  C7_8 
ROOT
ATOM      1  C3  <0> d           0.011   1.072   2.506  0.00  0.00    -0.058 C 
ATOM      2  H1  <0> d           1.057   1.375   2.454  0.00  0.00     0.039 H 
ENDROOT
BRANCH   1   3
ATOM      3  C2  <0> d          -0.729   1.579   1.267  0.00  0.00    -0.065 C 
ATOM      4  H5  <0> d          -0.744   2.669   1.273  0.00  0.00     0.033 H 
ATOM      5  H6  <0> d          -1.751   1.202   1.275  0.00  0.00     0.033 H 
BRANCH   3   6
ATOM      6  C1  <0> d          -0.013   1.086   0.008  0.00  0.00    -0.076 C 
ATOM      7  H2  <0> d           0.002  -0.004   0.002  0.00  0.00     0.027 H 
ATOM      8  H3  <0> d           1.010   1.463   0.000  0.00  0.00     0.027 H 
ATOM      9  H4  <0> d          -0.540   1.447  -0.875  0.00  0.00     0.027 H 
ENDBRANCH   3   6
ENDBRANCH   1   3
BRANCH   1  10
ATOM     10  C4  <0> d          -0.075  -0.454   2.563  0.00  0.00    -0.073 C 
ATOM     11  H7  <0> d           0.381  -0.878   1.669  0.00  0.00     0.028 H 
ATOM     12  H8  <0> d           0.452  -0.815   3.446  0.00  0.00     0.028 H 
ATOM     13  H9  <0> d          -1.121  -0.757   2.615  0.00  0.00     0.028 H 
ENDBRANCH   1  10
BRANCH   1  14
ATOM     14  C5  <0> d          -0.630   1.667   3.762  0.00  0.00    -0.053 C 
ATOM     15  H10 <0> d          -0.648   2.754   3.681  0.00  0.00     0.034 H 
ATOM     16  H11 <0> d          -1.649   1.293   3.861  0.00  0.00     0.034 H 
BRANCH  14  17
ATOM     17  C6  <0> d           0.184   1.261   4.992  0.00  0.00     0.016 C 
ATOM     18  H12 <0> d           0.203   0.174   5.073  0.00  0.00     0.049 H 
ATOM     19  H13 <0> d           1.203   1.635   4.892  0.00  0.00     0.049 H 
BRANCH  17  20
ATOM     20  C7  <0> d          -0.447   1.847   6.228  0.00  0.00     0.172 C 
ATOM     21  O1  <0> d          -1.446   2.519   6.135  0.00  0.00    -0.648 OA
ATOM     22  O2  <0> d           0.100   1.621   7.433  0.00  0.00    -0.648 OA
ENDBRANCH  17  20
ENDBRANCH  14  17
ENDBRANCH   1  14
TORSDOF 6
