REMARK  0 active torsions:
REMARK  status: ('A' for Active; 'I' for Inactive)
ROOT
ATOM      1  C1  <0> d          -1.502   4.310   0.037  0.00  0.00    -0.020 A 
ATOM      2  C2  <0> d          -0.817   5.487   0.037  0.00  0.00     0.010 A 
ATOM      3  N1  <0> d           0.517   5.494   0.024  0.00  0.00    -0.217 NA
ATOM      4  C3  <0> d           1.215   4.382   0.012  0.00  0.00     0.302 A 
ATOM      5  N2  <0> d           0.597   3.171   0.013  0.00  0.00    -0.173 N 
ATOM      6  C4  <0> d          -0.771   3.106   0.025  0.00  0.00     0.157 A 
ATOM      7  N3  <0> d          -1.108   1.826   0.017  0.00  0.00    -0.221 NA
ATOM      8  C5  <0> d          -0.013   1.076   0.008  0.00  0.00     0.108 A 
ATOM      9  N4  <0> d           1.049   1.846   0.002  0.00  0.00    -0.156 NA
ATOM     10  O1  <0> d           2.565   4.442   0.000  0.00  0.00    -0.147 OA
ATOM     11  H1  <0> d          -2.582   4.300   0.048  0.00  0.00     0.091 H 
ATOM     12  H2  <0> d          -1.358   6.422   0.046  0.00  0.00     0.115 H 
ATOM     13  H3  <0> d           0.002  -0.004   0.002  0.00  0.00     0.149 H 
ENDROOT
TORSDOF 0
