REMARK  5 active torsions:
REMARK  status: ('A' for Active; 'I' for Inactive)
REMARK    1  A    between atoms: C1_1  and  C2_2 
REMARK    2  A    between atoms: C2_2  and  C3_4 
REMARK    3  A    between atoms: C2_2  and  C9_10 
REMARK    4  A    between atoms: C9_10  and  C10_12 
REMARK    5  A    between atoms: C9_10  and  O1_13 
ROOT
ATOM      1  C2  <0> d           3.672   2.182  -0.024  0.00  0.00    -0.008 C 
ATOM      2  H1  <0> d           4.510   1.485  -0.036  0.00  0.00     0.050 H 
ENDROOT
BRANCH   1   3
ATOM      3  C1  <0> d           3.753   3.057   1.228  0.00  0.00    -0.067 C 
ATOM      4  H3  <0> d           4.690   3.615   1.222  0.00  0.00     0.028 H 
ATOM      5  H4  <0> d           2.916   3.754   1.240  0.00  0.00     0.028 H 
ATOM      6  H5  <0> d           3.713   2.425   2.116  0.00  0.00     0.028 H 
ENDBRANCH   1   3
BRANCH   1   7
ATOM      7  C3  <0> d           2.377   1.411  -0.015  0.00  0.00    -0.052 A 
ATOM      8  C8  <0> d           2.396   0.029  -0.022  0.00  0.00    -0.076 A 
ATOM      9  C7  <0> d           1.208  -0.679  -0.013  0.00  0.00    -0.082 A 
ATOM     10  H10 <0> d           3.338  -0.499  -0.034  0.00  0.00     0.084 H 
ATOM     11  C6  <0> d           0.002  -0.004   0.002  0.00  0.00    -0.083 A 
ATOM     12  H9  <0> d           1.223  -1.759  -0.019  0.00  0.00     0.083 H 
ATOM     13  C5  <0> d          -0.017   1.378   0.010  0.00  0.00    -0.082 A 
ATOM     14  H8  <0> d          -0.926  -0.557   0.008  0.00  0.00     0.083 H 
ATOM     15  C4  <0> d           1.171   2.086   0.002  0.00  0.00    -0.076 A 
ATOM     16  H7  <0> d          -0.959   1.905   0.017  0.00  0.00     0.083 H 
ATOM     17  H6  <0> d           1.156   3.165   0.008  0.00  0.00     0.084 H 
ENDBRANCH   1   7
BRANCH   1  18
ATOM     18  C9  <0> d           3.729   3.068  -1.270  0.00  0.00     0.039 C 
ATOM     19  H2  <0> d           2.891   3.765  -1.258  0.00  0.00     0.083 H 
BRANCH  18  20
ATOM     20  C10 <0> d           5.043   3.851  -1.279  0.00  0.00    -0.052 C 
ATOM     21  H11 <0> d           5.881   3.154  -1.291  0.00  0.00     0.030 H 
ATOM     22  H12 <0> d           5.083   4.483  -2.167  0.00  0.00     0.030 H 
ATOM     23  H13 <0> d           5.101   4.475  -0.387  0.00  0.00     0.030 H 
ENDBRANCH  18  20
BRANCH  18  24
ATOM     24  O1  <0> d           3.652   2.251  -2.440  0.00  0.00    -0.395 OA
ATOM     25  H14 <0> d           4.369   1.606  -2.516  0.00  0.00     0.210 HD
ENDBRANCH  18  24
ENDBRANCH   1  18
TORSDOF 5
