REMARK  5 active torsions:
REMARK  status: ('A' for Active; 'I' for Inactive)
REMARK    1  A    between atoms: C1_1  and  C2_2 
REMARK    2  A    between atoms: C2_2  and  C3_3 
REMARK    3  A    between atoms: C3_3  and  O2_5 
REMARK    4  A    between atoms: O2_5  and  C4_6 
REMARK    5  A    between atoms: C4_6  and  C5_7 
ROOT
ATOM      1  C5  <0> d           0.002  -0.004   0.002  0.00  0.00    -0.091 C 
ATOM      2  C6  <0> d           0.018  -1.178  -0.004  0.00  0.00    -0.152 C 
ATOM      3  H8  <0> d           0.032  -2.228  -0.010  0.00  0.00     0.166 H 
ENDROOT
BRANCH   1   4
ATOM      4  C4  <0> d          -0.018   1.468   0.010  0.00  0.00     0.082 C 
ATOM      5  H6  <0> d          -0.545   1.829  -0.873  0.00  0.00     0.094 H 
ATOM      6  H7  <0> d          -0.528   1.819   0.907  0.00  0.00     0.094 H 
BRANCH   4   7
ATOM      7  O2  <0> d           1.344   1.970  -0.000  0.00  0.00    -0.309 OA
BRANCH   7   8
ATOM      8  C3  <0> d           1.502   3.303   0.005  0.00  0.00     0.259 C 
ATOM      9  O1  <0> d           0.534   4.026   0.019  0.00  0.00    -0.265 OA
BRANCH   8  10
ATOM     10  C2  <0> d           2.887   3.898  -0.005  0.00  0.00     0.013 C 
ATOM     11  H4  <0> d           3.432   3.565   0.878  0.00  0.00     0.047 H 
ATOM     12  H5  <0> d           3.415   3.574  -0.901  0.00  0.00     0.047 H 
BRANCH  10  13
ATOM     13  C1  <0> d           2.786   5.425   0.005  0.00  0.00    -0.068 C 
ATOM     14  H1  <0> d           3.787   5.855  -0.003  0.00  0.00     0.028 H 
ATOM     15  H2  <0> d           2.241   5.758  -0.878  0.00  0.00     0.028 H 
ATOM     16  H3  <0> d           2.258   5.749   0.901  0.00  0.00     0.028 H 
ENDBRANCH  10  13
ENDBRANCH   8  10
ENDBRANCH   7   8
ENDBRANCH   4   7
ENDBRANCH   1   4
TORSDOF 5
