REMARK  2 active torsions:
REMARK  status: ('A' for Active; 'I' for Inactive)
REMARK    1  A    between atoms: C1_1  and  N1_2 
REMARK    2  A    between atoms: C4_5  and  C5_7 
ROOT
ATOM      1  N1  <0> d           3.403   2.315  -0.528  0.00  0.00    -0.264 N 
ATOM      2  C2  <0> d           3.048   3.096   0.535  0.00  0.00     0.134 A 
ATOM      3  C3  <0> d           1.752   2.757   0.871  0.00  0.00    -0.019 A 
ATOM      4  C4  <0> d           1.338   1.754  -0.001  0.00  0.00     0.062 A 
ATOM      5  N2  <0> d           2.313   1.491  -0.835  0.00  0.00    -0.176 NA
ATOM      6  C8  <0> d           3.863   4.084   1.176  0.00  0.00     0.119 C 
ATOM      7  N3  <0> d           4.510   4.867   1.685  0.00  0.00    -0.190 NA
ATOM      8  H4  <0> d           1.167   3.191   1.669  0.00  0.00     0.091 H 
ENDROOT
BRANCH   1   9
ATOM      9  C1  <0> d           4.693   2.335  -1.222  0.00  0.00     0.004 C 
ATOM     10  H1  <0> d           4.655   3.055  -2.039  0.00  0.00     0.059 H 
ATOM     11  H2  <0> d           5.478   2.622  -0.522  0.00  0.00     0.059 H 
ATOM     12  H3  <0> d           4.907   1.344  -1.621  0.00  0.00     0.059 H 
ENDBRANCH   1   9
BRANCH   4  13
ATOM     13  C5  <0> d          -0.013   1.086   0.008  0.00  0.00    -0.010 A 
ATOM     14  C7  <0> d          -1.150   1.781  -0.743  0.00  0.00    -0.056 A 
ATOM     15  C6  <0> d          -1.136   1.773   0.788  0.00  0.00    -0.056 A 
ATOM     16  H8  <0> d          -0.922   2.722  -1.243  0.00  0.00     0.034 H 
ATOM     17  H9  <0> d          -1.883   1.149  -1.243  0.00  0.00     0.034 H 
ATOM     18  H6  <0> d          -1.859   1.135   1.295  0.00  0.00     0.034 H 
ATOM     19  H7  <0> d          -0.897   2.708   1.294  0.00  0.00     0.034 H 
ATOM     20  H5  <0> d           0.002  -0.004   0.002  0.00  0.00     0.049 H 
ENDBRANCH   4  13
TORSDOF 2
