REMARK  4 active torsions:
REMARK  status: ('A' for Active; 'I' for Inactive)
REMARK    1  A    between atoms: C1_1  and  N1_2 
REMARK    2  A    between atoms: N1_2  and  C2_3 
REMARK    3  A    between atoms: N1_2  and  C3_4 
REMARK    4  A    between atoms: C6_7  and  N2_11 
ROOT
ATOM      1  C3  <0> d          -3.650   3.004   0.036  0.00  0.00     0.049 A 
ATOM      2  C4  <0> d          -2.457   3.713   0.034  0.00  0.00    -0.057 A 
ATOM      3  C5  <0> d          -1.252   3.038   0.030  0.00  0.00    -0.056 A 
ATOM      4  C6  <0> d          -1.233   1.649   0.017  0.00  0.00     0.028 A 
ATOM      5  C7  <0> d          -2.426   0.939   0.019  0.00  0.00    -0.019 A 
ATOM      6  C8  <0> d          -3.632   1.614   0.028  0.00  0.00     0.139 A 
ATOM      7  F1  <0> d          -4.793   0.923   0.029  0.00  0.00    -0.204 F 
ATOM      8  H7  <0> d          -2.470   4.793   0.040  0.00  0.00     0.086 H 
ATOM      9  H8  <0> d          -0.323   3.590   0.033  0.00  0.00     0.087 H 
ATOM     10  H9  <0> d          -2.411  -0.141   0.013  0.00  0.00     0.091 H 
ENDROOT
BRANCH   1  11
ATOM     11  N1  <0> d          -4.872   3.690   0.045  0.00  0.00    -0.289 NA
BRANCH  11  12
ATOM     12  C1  <0> d          -4.991   4.539   1.238  0.00  0.00    -0.029 C 
ATOM     13  H1  <0> d          -4.860   3.924   2.140  0.00  0.00     0.048 H 
ATOM     14  H2  <0> d          -5.985   5.009   1.256  0.00  0.00     0.048 H 
ATOM     15  H3  <0> d          -4.216   5.319   1.210  0.00  0.00     0.048 H 
ENDBRANCH  11  12
BRANCH  11  16
ATOM     16  C2  <0> d          -5.042   4.479  -1.182  0.00  0.00    -0.029 C 
ATOM     17  H4  <0> d          -4.949   3.820  -2.058  0.00  0.00     0.048 H 
ATOM     18  H5  <0> d          -4.268   5.259  -1.226  0.00  0.00     0.048 H 
ATOM     19  H6  <0> d          -6.037   4.949  -1.181  0.00  0.00     0.048 H 
ENDBRANCH  11  16
ENDBRANCH   1  11
BRANCH   4  20
ATOM     20  N2  <0> d          -0.011   0.966   0.007  0.00  0.00    -0.399 N 
ATOM     21  H10 <0> d           0.004  -0.134  -0.003  0.00  0.00     0.156 HD
ATOM     22  H11 <0> d           0.934   1.529   0.011  0.00  0.00     0.156 HD
ENDBRANCH   4  20
TORSDOF 4
