REMARK  9 active torsions:
REMARK  status: ('A' for Active; 'I' for Inactive)
REMARK    1  A    between atoms: C1_1  and  C2_2 
REMARK    2  A    between atoms: C2_2  and  C3_3 
REMARK    3  A    between atoms: C3_3  and  C4_4 
REMARK    4  A    between atoms: C4_4  and  C5_5 
REMARK    5  A    between atoms: C5_5  and  C6_7 
REMARK    6  A    between atoms: C5_5  and  O3_12 
REMARK    7  A    between atoms: C6_7  and  C7_9 
REMARK    8  A    between atoms: C6_7  and  O2_11 
REMARK    9  A    between atoms: C7_9  and  O1_10 
ROOT
ATOM      1  C4  <0> d          -0.735   2.019   1.269  0.00  0.00    -0.039 C 
ATOM      2  H10 <0> d          -1.781   1.717   1.234  0.00  0.00     0.036 H 
ATOM      3  H11 <0> d          -0.261   1.586   2.150  0.00  0.00     0.036 H 
ENDROOT
BRANCH   1   4
ATOM      4  C3  <0> d          -0.647   3.545   1.341  0.00  0.00    -0.063 C 
ATOM      5  H8  <0> d           0.400   3.847   1.376  0.00  0.00     0.033 H 
ATOM      6  H9  <0> d          -1.121   3.978   0.460  0.00  0.00     0.033 H 
BRANCH   4   7
ATOM      7  C2  <0> d          -1.363   4.038   2.600  0.00  0.00    -0.068 C 
ATOM      8  H6  <0> d          -2.410   3.736   2.565  0.00  0.00     0.032 H 
ATOM      9  H7  <0> d          -0.889   3.605   3.481  0.00  0.00     0.032 H 
BRANCH   7  10
ATOM     10  C1  <0> d          -1.275   5.564   2.672  0.00  0.00    -0.077 C 
ATOM     11  H3  <0> d          -1.749   5.997   1.791  0.00  0.00     0.027 H 
ATOM     12  H4  <0> d          -1.785   5.916   3.568  0.00  0.00     0.027 H 
ATOM     13  H5  <0> d          -0.229   5.867   2.707  0.00  0.00     0.027 H 
ENDBRANCH   7  10
ENDBRANCH   4   7
ENDBRANCH   1   4
BRANCH   1  14
ATOM     14  C5  <0> d          -0.019   1.526   0.010  0.00  0.00     0.062 C 
ATOM     15  H1  <0> d           1.004   1.903   0.003  0.00  0.00     0.086 H 
BRANCH  14  16
ATOM     16  C6  <0> d           0.002  -0.004   0.002  0.00  0.00     0.080 C 
ATOM     17  H2  <0> d          -1.020  -0.381   0.010  0.00  0.00     0.090 H 
BRANCH  16  18
ATOM     18  C7  <0> d           0.718  -0.497  -1.257  0.00  0.00     0.043 C 
ATOM     19  H12 <0> d           0.244  -0.064  -2.138  0.00  0.00     0.078 H 
ATOM     20  H13 <0> d           1.765  -0.195  -1.222  0.00  0.00     0.078 H 
BRANCH  18  21
ATOM     21  O1  <0> d           0.636  -1.923  -1.324  0.00  0.00    -0.398 OA
ATOM     22  H14 <0> d           1.070  -2.305  -2.099  0.00  0.00     0.209 HD
ENDBRANCH  18  21
ENDBRANCH  16  18
BRANCH  16  23
ATOM     23  O2  <0> d           0.693  -0.477   1.160  0.00  0.00    -0.391 OA
ATOM     24  H15 <0> d           1.611  -0.180   1.219  0.00  0.00     0.210 HD
ENDBRANCH  16  23
ENDBRANCH  14  16
BRANCH  14  25
ATOM     25  O3  <0> d          -0.710   1.999  -1.147  0.00  0.00    -0.393 OA
ATOM     26  H16 <0> d          -1.628   1.702  -1.206  0.00  0.00     0.210 HD
ENDBRANCH  14  25
ENDBRANCH   1  14
TORSDOF 9
