REMARK  1 active torsions:
REMARK  status: ('A' for Active; 'I' for Inactive)
REMARK    1  A    between atoms: C3_3  and  C6_7 
ROOT
ATOM      1  C1  <0> d          -0.013   1.076   0.008  0.00  0.00    -0.065 A 
ATOM      2  C2  <0> d          -1.218   1.762   0.017  0.00  0.00    -0.066 A 
ATOM      3  C3  <0> d          -1.188   3.147   0.029  0.00  0.00     0.065 A 
ATOM      4  C4  <0> d           0.033   3.795   0.022  0.00  0.00     0.016 A 
ATOM      5  N1  <0> d           1.159   3.110   0.008  0.00  0.00    -0.272 NA
ATOM      6  C5  <0> d           1.169   1.792   0.001  0.00  0.00     0.002 A 
ATOM      7  H1  <0> d           0.002  -0.004   0.002  0.00  0.00     0.085 H 
ATOM      8  H2  <0> d          -2.157   1.229   0.019  0.00  0.00     0.084 H 
ATOM      9  H3  <0> d           0.065   4.875   0.028  0.00  0.00     0.116 H 
ATOM     10  H4  <0> d           2.112   1.265  -0.011  0.00  0.00     0.114 H 
ENDROOT
BRANCH   3  11
ATOM     11  C6  <0> d          -2.471   3.938   0.045  0.00  0.00     0.418 C 
ATOM     12  F1  <0> d          -2.176   5.306   0.049  0.00  0.00    -0.166 F 
ATOM     13  F2  <0> d          -3.224   3.627  -1.092  0.00  0.00    -0.166 F 
ATOM     14  F3  <0> d          -3.204   3.615   1.192  0.00  0.00    -0.166 F 
ENDBRANCH   3  11
TORSDOF 1
