REMARK  0 active torsions:
REMARK  status: ('A' for Active; 'I' for Inactive)
ROOT
ATOM      1  C1  <0> d          -0.017   1.396   0.010  0.00  0.00    -0.060 A 
ATOM      2  C2  <0> d           1.151   2.105   0.002  0.00  0.00    -0.046 A 
ATOM      3  C3  <0> d           2.370   1.441  -0.013  0.00  0.00     0.105 A 
ATOM      4  C4  <0> d           2.407   0.036  -0.021  0.00  0.00     0.094 A 
ATOM      5  C5  <0> d           1.216  -0.686  -0.014  0.00  0.00    -0.032 A 
ATOM      6  C6  <0> d           0.002  -0.004   0.002  0.00  0.00     0.047 A 
ATOM      7  C7  <0> d          -1.229  -0.736   0.010  0.00  0.00     0.099 C 
ATOM      8  N1  <0> d          -2.205  -1.317   0.017  0.00  0.00    -0.191 NA
ATOM      9  N2  <0> d           3.722  -0.316  -0.035  0.00  0.00    -0.234 NA
ATOM     10  C8  <0> d           4.444   0.764  -0.036  0.00  0.00     0.104 A 
ATOM     11  O1  <0> d           3.657   1.851  -0.023  0.00  0.00    -0.302 OA
ATOM     12  H1  <0> d          -0.962   1.920   0.026  0.00  0.00     0.086 H 
ATOM     13  H2  <0> d           1.125   3.184   0.008  0.00  0.00     0.087 H 
ATOM     14  H3  <0> d           1.234  -1.765  -0.020  0.00  0.00     0.089 H 
ATOM     15  H4  <0> d           5.524   0.783  -0.046  0.00  0.00     0.155 H 
ENDROOT
TORSDOF 0
