REMARK  3 active torsions:
REMARK  status: ('A' for Active; 'I' for Inactive)
REMARK    1  A    between atoms: C1_1  and  C2_2 
REMARK    2  A    between atoms: C7_7  and  S1_8 
REMARK    3  A    between atoms: S1_8  and  C8_9 
ROOT
ATOM      1  C2  <0> d          -0.017   1.385   0.010  0.00  0.00    -0.045 A 
ATOM      2  C3  <0> d           1.171   2.090   0.002  0.00  0.00    -0.076 A 
ATOM      3  C4  <0> d           2.377   1.415  -0.013  0.00  0.00    -0.082 A 
ATOM      4  C5  <0> d           2.400   0.032  -0.021  0.00  0.00    -0.082 A 
ATOM      5  C6  <0> d           1.217  -0.679  -0.013  0.00  0.00    -0.066 A 
ATOM      6  C7  <0> d           0.002  -0.004   0.002  0.00  0.00     0.006 A 
ATOM      7  H4  <0> d           1.157   3.170   0.008  0.00  0.00     0.084 H 
ATOM      8  H5  <0> d           3.304   1.969  -0.019  0.00  0.00     0.083 H 
ATOM      9  H6  <0> d           3.344  -0.492  -0.033  0.00  0.00     0.083 H 
ATOM     10  H7  <0> d           1.235  -1.759  -0.019  0.00  0.00     0.085 H 
ENDROOT
BRANCH   6  11
ATOM     11  S1  <0> d          -1.510  -0.908   0.011  0.00  0.00    -0.134 SA
BRANCH  11  12
ATOM     12  C8  <0> d          -0.984  -2.644  -0.003  0.00  0.00    -0.030 C 
ATOM     13  H8  <0> d          -0.379  -2.847   0.880  0.00  0.00     0.042 H 
ATOM     14  H9  <0> d          -1.863  -3.290   0.001  0.00  0.00     0.042 H 
ATOM     15  H10 <0> d          -0.396  -2.838  -0.900  0.00  0.00     0.042 H 
ENDBRANCH  11  12
ENDBRANCH   6  11
BRANCH   1  16
ATOM     16  C1  <0> d          -1.331   2.122   0.020  0.00  0.00    -0.050 C 
ATOM     17  H1  <0> d          -1.643   2.294   1.050  0.00  0.00     0.033 H 
ATOM     18  H2  <0> d          -1.216   3.079  -0.489  0.00  0.00     0.033 H 
ATOM     19  H3  <0> d          -2.086   1.526  -0.494  0.00  0.00     0.033 H 
ENDBRANCH   1  16
TORSDOF 3
