REMARK  3 active torsions:
REMARK  status: ('A' for Active; 'I' for Inactive)
REMARK    1  A    between atoms: C2_2  and  O3_12 
REMARK    2  A    between atoms: N1_5  and  C5_8 
REMARK    3  A    between atoms: C5_8  and  C6_9 
REMARK       I    between atoms: C6_9  and  N2_11 
ROOT
ATOM      1  C1  <0> d          -0.018   1.509   0.010  0.00  0.00     0.035 C 
ATOM      2  C2  <0> d           1.475   1.908  -0.002  0.00  0.00     0.059 C 
ATOM      3  H1  <0> d           1.847   2.060   1.012  0.00  0.00     0.086 H 
ATOM      4  C3  <0> d           2.128   0.667  -0.649  0.00  0.00     0.022 C 
ATOM      5  N1  <0> d           1.217  -0.448  -0.365  0.00  0.00    -0.341 N 
ATOM      6  C4  <0> d           0.002  -0.004   0.002  0.00  0.00     0.222 C 
ATOM      7  O1  <0> d          -0.940  -0.713   0.286  0.00  0.00    -0.273 OA
ATOM      8  H2  <0> d          -0.505   1.879   0.913  0.00  0.00     0.051 H 
ATOM      9  H3  <0> d          -0.522   1.888  -0.879  0.00  0.00     0.051 H 
ATOM     10  H4  <0> d           2.226   0.810  -1.725  0.00  0.00     0.068 H 
ATOM     11  H5  <0> d           3.105   0.478  -0.203  0.00  0.00     0.068 H 
ENDROOT
BRANCH   5  12
ATOM     12  C5  <0> d           1.583  -1.863  -0.469  0.00  0.00     0.071 C 
ATOM     13  H6  <0> d           0.703  -2.447  -0.735  0.00  0.00     0.079 H 
ATOM     14  H7  <0> d           2.346  -1.985  -1.238  0.00  0.00     0.079 H 
BRANCH  12  15
ATOM     15  C6  <0> d           2.123  -2.340   0.855  0.00  0.00     0.233 C 
ATOM     16  O2  <0> d           2.194  -1.574   1.792  0.00  0.00    -0.272 OA
ATOM     17  N2  <0> d           2.526  -3.618   0.997  0.00  0.00    -0.369 N 
ATOM     18  H8  <0> d           2.469  -4.231   0.247  0.00  0.00     0.159 HD
ATOM     19  H9  <0> d           2.873  -3.925   1.849  0.00  0.00     0.159 HD
ENDBRANCH  12  15
ENDBRANCH   5  12
BRANCH   2  20
ATOM     20  O3  <0> d           1.687   3.073  -0.801  0.00  0.00    -0.393 OA
ATOM     21  H10 <0> d           1.217   3.858  -0.486  0.00  0.00     0.210 HD
ENDBRANCH   2  20
TORSDOF 3
