REMARK  3 active torsions:
REMARK  status: ('A' for Active; 'I' for Inactive)
REMARK    1  A    between atoms: C3_3  and  C4_5 
REMARK    2  A    between atoms: C7_9  and  C8_11 
REMARK    3  A    between atoms: C9_13  and  O1_14 
ROOT
ATOM      1  C1  <0> d           0.002  -0.004   0.002  0.00  0.00    -0.056 C 
ATOM      2  C2  <0> d          -0.019   1.537   0.011  0.00  0.00    -0.056 C 
ATOM      3  C3  <0> d           1.466   1.982  -0.001  0.00  0.00    -0.000 C 
ATOM      4  H1  <0> d           1.637   2.976  -0.442  0.00  0.00     0.048 H 
ATOM      5  C8  <0> d           1.498  -0.409  -0.014  0.00  0.00    -0.000 C 
ATOM      6  H4  <0> d           1.696  -1.393  -0.466  0.00  0.00     0.048 H 
ATOM      7  C9  <0> d           2.171   0.800  -0.727  0.00  0.00     0.048 C 
ATOM      8  H5  <0> d          -0.496  -0.404  -0.894  0.00  0.00     0.033 H 
ATOM      9  H6  <0> d          -0.479  -0.414   0.902  0.00  0.00     0.033 H 
ATOM     10  H7  <0> d          -0.551   1.901  -0.881  0.00  0.00     0.033 H 
ATOM     11  H8  <0> d          -0.534   1.891   0.915  0.00  0.00     0.033 H 
ATOM     12  H11 <0> d           2.151   0.805  -1.826  0.00  0.00     0.084 H 
ENDROOT
BRANCH   7  13
ATOM     13  O1  <0> d           3.581   0.818  -0.494  0.00  0.00    -0.395 OA
ATOM     14  H12 <0> d           4.222   0.043  -0.941  0.00  0.00     0.210 HD
ENDBRANCH   7  13
BRANCH   3  15
ATOM     15  C4  <0> d           1.952   1.907   1.468  0.00  0.00     0.061 C 
ATOM     16  H2  <0> d           1.776   2.837   2.030  0.00  0.00     0.090 H 
ATOM     17  O2  <0> d           1.268   0.773   2.062  0.00  0.00    -0.372 OA
ATOM     18  C7  <0> d           1.982  -0.337   1.456  0.00  0.00     0.061 C 
ATOM     19  C6  <0> d           3.423   0.147   1.429  0.00  0.00    -0.076 C 
ATOM     20  H3  <0> d           1.831  -1.276   2.008  0.00  0.00     0.090 H 
ATOM     21  C5  <0> d           3.405   1.463   1.436  0.00  0.00    -0.076 C 
ATOM     22  H10 <0> d           4.382  -0.390   1.406  0.00  0.00     0.080 H 
ATOM     23  H9  <0> d           4.350   2.026   1.419  0.00  0.00     0.080 H 
BRANCH  18  24
ENDBRANCH  18  24
ENDBRANCH   3  15
TORSDOF 3
