REMARK  1 active torsions:
REMARK  status: ('A' for Active; 'I' for Inactive)
REMARK    1  A    between atoms: N3_5  and  C3_6 
ROOT
ATOM      1  C3  <0> d          -1.156  -0.901   0.008  0.00  0.00     0.018 A 
ATOM      2  C4  <0> d          -0.895  -2.393  -0.206  0.00  0.00    -0.044 A 
ATOM      3  C5  <0> d          -1.288  -1.877   1.180  0.00  0.00    -0.044 A 
ATOM      4  H3  <0> d          -2.075  -0.486  -0.407  0.00  0.00     0.073 H 
ATOM      5  H4  <0> d          -1.642  -2.960  -0.762  0.00  0.00     0.036 H 
ATOM      6  H5  <0> d           0.139  -2.708  -0.351  0.00  0.00     0.036 H 
ATOM      7  H6  <0> d          -0.513  -1.851   1.946  0.00  0.00     0.036 H 
ATOM      8  H7  <0> d          -2.293  -2.103   1.535  0.00  0.00     0.036 H 
ENDROOT
BRANCH   1   9
ATOM      9  N3  <0> d           0.002  -0.004   0.002  0.00  0.00    -0.328 N 
ATOM     10  C1  <0> d          -0.016   1.351   0.009  0.00  0.00     0.089 A 
ATOM     11  N1  <0> d           1.224   1.756  -0.000  0.00  0.00    -0.144 NA
ATOM     12  H1  <0> d          -0.895   1.979   0.025  0.00  0.00     0.146 H 
ATOM     13  N2  <0> d           2.012   0.739  -0.013  0.00  0.00    -0.144 NA
ATOM     14  C2  <0> d           1.309  -0.361  -0.012  0.00  0.00     0.089 A 
ATOM     15  H2  <0> d           1.698  -1.368  -0.022  0.00  0.00     0.146 H 
ENDBRANCH   1   9
TORSDOF 1
