REMARK  4 active torsions:
REMARK  status: ('A' for Active; 'I' for Inactive)
REMARK    1  A    between atoms: C1_1  and  O1_2 
REMARK    2  A    between atoms: O1_2  and  C2_3 
REMARK    3  A    between atoms: C2_3  and  C3_5 
REMARK    4  A    between atoms: C4_6  and  N1_11 
ROOT
ATOM      1  C3  <0> d          -0.085  -0.079  -0.434  0.00  0.00     0.039 C 
ATOM      2  C4  <0> d          -1.161  -0.653   0.112  0.00  0.00     0.015 C 
ATOM      3  C5  <0> d          -1.179  -2.066   0.621  0.00  0.00    -0.026 C 
ATOM      4  C6  <0> d           0.005  -2.846   0.048  0.00  0.00    -0.060 C 
ATOM      5  C7  <0> d           1.283  -2.030   0.272  0.00  0.00    -0.061 C 
ATOM      6  C8  <0> d           1.226  -0.787  -0.621  0.00  0.00    -0.033 C 
ATOM      7  H4  <0> d          -1.111  -2.061   1.719  0.00  0.00     0.042 H 
ATOM      8  H5  <0> d          -2.116  -2.554   0.314  0.00  0.00     0.042 H 
ATOM      9  H6  <0> d           0.086  -3.817   0.559  0.00  0.00     0.033 H 
ATOM     10  H7  <0> d          -0.151  -3.011  -1.029  0.00  0.00     0.033 H 
ATOM     11  H8  <0> d           1.347  -1.732   1.328  0.00  0.00     0.033 H 
ATOM     12  H9  <0> d           2.159  -2.641   0.009  0.00  0.00     0.033 H 
ATOM     13  H10 <0> d           1.332  -1.091  -1.673  0.00  0.00     0.040 H 
ATOM     14  H11 <0> d           2.050  -0.110  -0.350  0.00  0.00     0.040 H 
ENDROOT
BRANCH   1  15
ATOM     15  C2  <0> d          -0.188   1.262  -0.864  0.00  0.00     0.290 C 
ATOM     16  O2  <0> d          -1.195   1.901  -0.625  0.00  0.00    -0.260 OA
BRANCH  15  17
ATOM     17  O1  <0> d           0.829   1.832  -1.544  0.00  0.00    -0.323 OA
BRANCH  17  18
ATOM     18  C1  <0> d           0.656   3.192  -1.948  0.00  0.00     0.013 C 
ATOM     19  H1  <0> d           1.553   3.531  -2.488  0.00  0.00     0.067 H 
ATOM     20  H2  <0> d           0.505   3.822  -1.059  0.00  0.00     0.067 H 
ATOM     21  H3  <0> d          -0.221   3.271  -2.607  0.00  0.00     0.067 H 
ENDBRANCH  17  18
ENDBRANCH  15  17
ENDBRANCH   1  15
BRANCH   2  22
ATOM     22  N1  <0> d          -2.306   0.084   0.213  0.00  0.00    -0.402 N 
ATOM     23  H12 <0> d          -3.209  -0.359   0.657  0.00  0.00     0.156 HD
ATOM     24  H13 <0> d          -2.326   1.122  -0.151  0.00  0.00     0.156 HD
ENDBRANCH   2  22
TORSDOF 4
