REMARK  3 active torsions:
REMARK  status: ('A' for Active; 'I' for Inactive)
REMARK    1  A    between atoms: C1_1  and  C2_2 
REMARK    2  A    between atoms: C2_2  and  C3_4 
REMARK    3  A    between atoms: C5_7  and  C7_12 
ROOT
ATOM      1  C3  <0> d          -0.000  -0.750  -1.307  0.00  0.00     0.090 C 
ATOM      2  H1  <0> d          -0.514  -0.176  -2.078  0.00  0.00     0.067 H 
ATOM      3  C4  <0> d          -0.644  -2.156  -1.142  0.00  0.00    -0.019 C 
ATOM      4  C5  <0> d           0.599  -2.959  -0.674  0.00  0.00     0.065 C 
ATOM      5  H2  <0> d           0.738  -2.855   0.402  0.00  0.00     0.090 H 
ATOM      6  O2  <0> d           1.695  -2.358  -1.382  0.00  0.00    -0.311 OA
ATOM      7  C6  <0> d           1.416  -1.089  -1.739  0.00  0.00     0.271 C 
ATOM      8  O3  <0> d           2.170  -0.339  -2.312  0.00  0.00    -0.264 OA
ATOM      9  H6  <0> d          -1.422  -2.149  -0.379  0.00  0.00     0.039 H 
ATOM     10  H7  <0> d          -1.025  -2.532  -2.091  0.00  0.00     0.039 H 
ENDROOT
BRANCH   1  11
ATOM     11  C2  <0> d           0.002  -0.004   0.002  0.00  0.00     0.136 C 
ATOM     12  O1  <0> d           0.020  -0.613   1.044  0.00  0.00    -0.297 OA
BRANCH  11  13
ATOM     13  C1  <0> d          -0.018   1.503   0.010  0.00  0.00    -0.020 C 
ATOM     14  H3  <0> d           1.004   1.880   0.003  0.00  0.00     0.037 H 
ATOM     15  H4  <0> d          -0.545   1.864  -0.873  0.00  0.00     0.037 H 
ATOM     16  H5  <0> d          -0.529   1.854   0.907  0.00  0.00     0.037 H 
ENDBRANCH  11  13
ENDBRANCH   1  11
BRANCH   4  17
ATOM     17  C7  <0> d           0.460  -4.412  -1.048  0.00  0.00    -0.084 C 
ATOM     18  C8  <0> d           1.394  -4.999  -1.755  0.00  0.00    -0.122 C 
ATOM     19  H9  <0> d           2.264  -4.441  -2.069  0.00  0.00     0.066 H 
ATOM     20  H10 <0> d           1.294  -6.040  -2.023  0.00  0.00     0.066 H 
ATOM     21  H8  <0> d          -0.410  -4.969  -0.734  0.00  0.00     0.079 H 
ENDBRANCH   4  17
TORSDOF 3
