REMARK  1 active torsions:
REMARK  status: ('A' for Active; 'I' for Inactive)
REMARK    1  A    between atoms: C1_1  and  C2_2 
ROOT
ATOM      1  C2  <0> d           3.450   2.392  -0.017  0.00  0.00    -0.060 A 
ATOM      2  C3  <0> d           3.103   3.730  -0.007  0.00  0.00    -0.077 A 
ATOM      3  C4  <0> d           1.769   4.095   0.007  0.00  0.00    -0.074 A 
ATOM      4  C5  <0> d           0.785   3.125   0.011  0.00  0.00    -0.030 A 
ATOM      5  C6  <0> d           1.122   1.781   0.001  0.00  0.00     0.034 A 
ATOM      6  C7  <0> d           2.471   1.421  -0.013  0.00  0.00    -0.051 A 
ATOM      7  N1  <0> d          -0.011   0.966   0.007  0.00  0.00    -0.389 N 
ATOM      8  C8  <0> d          -1.223   1.789   0.017  0.00  0.00    -0.004 A 
ATOM      9  C9  <0> d          -0.723   3.243   0.025  0.00  0.00    -0.024 A 
ATOM     10  H4  <0> d           3.871   4.489  -0.010  0.00  0.00     0.084 H 
ATOM     11  H5  <0> d           1.496   5.140   0.015  0.00  0.00     0.084 H 
ATOM     12  H6  <0> d           2.749   0.377  -0.021  0.00  0.00     0.087 H 
ATOM     13  H7  <0> d           0.002  -0.004   0.002  0.00  0.00     0.159 HD
ATOM     14  H8  <0> d          -1.818   1.597  -0.876  0.00  0.00     0.064 H 
ATOM     15  H9  <0> d          -1.810   1.588   0.913  0.00  0.00     0.064 H 
ATOM     16  H10 <0> d          -1.056   3.758   0.927  0.00  0.00     0.042 H 
ATOM     17  H11 <0> d          -1.072   3.767  -0.864  0.00  0.00     0.042 H 
ENDROOT
BRANCH   1  18
ATOM     18  C1  <0> d           4.903   1.993  -0.032  0.00  0.00    -0.051 C 
ATOM     19  H1  <0> d           5.244   1.902  -1.064  0.00  0.00     0.033 H 
ATOM     20  H2  <0> d           5.493   2.752   0.480  0.00  0.00     0.033 H 
ATOM     21  H3  <0> d           5.022   1.036   0.475  0.00  0.00     0.033 H 
ENDBRANCH   1  18
TORSDOF 1
