REMARK  0 active torsions:
REMARK  status: ('A' for Active; 'I' for Inactive)
ROOT
ATOM      1  C1  <0> d          -1.212   1.767   0.017  0.00  0.00    -0.063 A 
ATOM      2  C2  <0> d          -0.013   1.076   0.008  0.00  0.00    -0.047 A 
ATOM      3  C3  <0> d           1.176   1.804   0.001  0.00  0.00     0.093 A 
ATOM      4  C4  <0> d           1.119   3.187   0.005  0.00  0.00     0.067 A 
ATOM      5  N1  <0> d          -0.050   3.806   0.021  0.00  0.00    -0.263 NA
ATOM      6  C5  <0> d          -1.191   3.149   0.029  0.00  0.00     0.003 A 
ATOM      7  C6  <0> d           2.377   4.019  -0.009  0.00  0.00    -0.020 C 
ATOM      8  C7  <0> d           3.569   3.160   0.421  0.00  0.00    -0.040 C 
ATOM      9  C8  <0> d           3.531   1.849  -0.376  0.00  0.00     0.026 C 
ATOM     10  O1  <0> d           2.354   1.130  -0.004  0.00  0.00    -0.349 OA
ATOM     11  H1  <0> d          -2.152   1.234   0.019  0.00  0.00     0.085 H 
ATOM     12  H2  <0> d           0.002  -0.004   0.002  0.00  0.00     0.087 H 
ATOM     13  H3  <0> d          -2.121   3.697   0.042  0.00  0.00     0.114 H 
ATOM     14  H4  <0> d           2.552   4.402  -1.026  0.00  0.00     0.042 H 
ATOM     15  H5  <0> d           2.267   4.864   0.687  0.00  0.00     0.042 H 
ATOM     16  H6  <0> d           4.504   3.700   0.214  0.00  0.00     0.036 H 
ATOM     17  H7  <0> d           3.498   2.948   1.498  0.00  0.00     0.036 H 
ATOM     18  H8  <0> d           3.511   2.075  -1.452  0.00  0.00     0.075 H 
ATOM     19  H9  <0> d           4.426   1.253  -0.142  0.00  0.00     0.075 H 
ENDROOT
TORSDOF 0
