REMARK  1 active torsions:
REMARK  status: ('A' for Active; 'I' for Inactive)
REMARK    1  A    between atoms: C3_6  and  N3_7 
ROOT
ATOM      1  N3  <0> d          -1.112  -0.844   0.008  0.00  0.00    -0.276 N 
ATOM      2  C4  <0> d          -1.090  -2.320   0.006  0.00  0.00     0.027 C 
ATOM      3  C5  <0> d          -2.545  -2.670   0.398  0.00  0.00     0.046 C 
ATOM      4  O1  <0> d          -3.259  -1.486  -0.011  0.00  0.00    -0.302 OA
ATOM      5  C6  <0> d          -2.400  -0.453   0.023  0.00  0.00     0.368 C 
ATOM      6  O2  <0> d          -2.750   0.711   0.060  0.00  0.00    -0.238 OA
ATOM      7  H4  <0> d          -0.853  -2.703  -0.987  0.00  0.00     0.068 H 
ATOM      8  H5  <0> d          -0.387  -2.698   0.748  0.00  0.00     0.068 H 
ATOM      9  H6  <0> d          -2.896  -3.544  -0.149  0.00  0.00     0.077 H 
ATOM     10  H7  <0> d          -2.632  -2.824   1.473  0.00  0.00     0.077 H 
ENDROOT
BRANCH   1  11
ATOM     11  C3  <0> d           0.002  -0.004   0.002  0.00  0.00     0.129 A 
ATOM     12  C1  <0> d          -0.016   1.357   0.009  0.00  0.00    -0.020 A 
ATOM     13  C2  <0> d           1.308   1.803  -0.001  0.00  0.00     0.025 A 
ATOM     14  H2  <0> d          -0.898   1.981   0.025  0.00  0.00     0.091 H 
ATOM     15  N1  <0> d           2.094   0.757  -0.014  0.00  0.00    -0.186 NA
ATOM     16  H3  <0> d           1.628   2.834   0.001  0.00  0.00     0.117 H 
ATOM     17  N2  <0> d           1.297  -0.395  -0.012  0.00  0.00    -0.263 N 
ATOM     18  H1  <0> d           1.617  -1.310  -0.020  0.00  0.00     0.190 HD
ENDBRANCH   1  11
TORSDOF 1
