REMARK  2 active torsions:
REMARK  status: ('A' for Active; 'I' for Inactive)
REMARK    1  A    between atoms: C1_1  and  C2_2 
REMARK    2  A    between atoms: C6_7  and  C8_11 
ROOT
ATOM      1  C2  <0> d           1.287   1.833  -0.000  0.00  0.00     0.037 C 
ATOM      2  H1  <0> d           2.119   1.129   0.030  0.00  0.00     0.060 H 
ATOM      3  C3  <0> d          -0.013   1.076   0.008  0.00  0.00    -0.091 C 
ATOM      4  C4  <0> d          -1.172   1.710   0.017  0.00  0.00    -0.084 C 
ATOM      5  C5  <0> d          -1.276   3.162   0.042  0.00  0.00    -0.062 C 
ATOM      6  C6  <0> d          -0.516   3.989  -0.649  0.00  0.00     0.008 C 
ATOM      7  N1  <0> d           0.490   3.632  -1.507  0.00  0.00    -0.331 N 
ATOM      8  C7  <0> d           1.375   2.660  -1.255  0.00  0.00     0.229 C 
ATOM      9  O1  <0> d           2.263   2.441  -2.051  0.00  0.00    -0.272 OA
ATOM     10  H5  <0> d           0.002  -0.004   0.002  0.00  0.00     0.078 H 
ATOM     11  H6  <0> d          -2.081   1.126   0.009  0.00  0.00     0.083 H 
ATOM     12  H7  <0> d          -2.035   3.598   0.675  0.00  0.00     0.086 H 
ATOM     13  H8  <0> d           0.566   4.112  -2.347  0.00  0.00     0.168 HD
ENDROOT
BRANCH   1  14
ATOM     14  C1  <0> d           1.351   2.751   1.222  0.00  0.00    -0.061 C 
ATOM     15  H2  <0> d           1.286   2.152   2.130  0.00  0.00     0.029 H 
ATOM     16  H3  <0> d           2.293   3.300   1.216  0.00  0.00     0.029 H 
ATOM     17  H4  <0> d           0.520   3.456   1.191  0.00  0.00     0.029 H 
ENDBRANCH   1  14
BRANCH   6  18
ATOM     18  C8  <0> d          -0.780   5.463  -0.480  0.00  0.00    -0.037 C 
ATOM     19  H9  <0> d          -1.516   5.787  -1.216  0.00  0.00     0.035 H 
ATOM     20  H10 <0> d          -1.162   5.651   0.523  0.00  0.00     0.035 H 
ATOM     21  H11 <0> d           0.147   6.017  -0.626  0.00  0.00     0.035 H 
ENDBRANCH   6  18
TORSDOF 2
