REMARK  1 active torsions:
REMARK  status: ('A' for Active; 'I' for Inactive)
REMARK    1  A    between atoms: C2_2  and  N3_8 
ROOT
ATOM      1  C1  <0> d          -0.017   1.381   0.010  0.00  0.00     0.026 A 
ATOM      2  C2  <0> d           0.002  -0.004   0.002  0.00  0.00     0.127 A 
ATOM      3  N1  <0> d           1.179  -0.650  -0.013  0.00  0.00    -0.227 NA
ATOM      4  C3  <0> d           2.309   0.002  -0.020  0.00  0.00     0.069 A 
ATOM      5  N2  <0> d           2.350   1.349  -0.013  0.00  0.00    -0.318 N 
ATOM      6  C4  <0> d           1.207   2.065   0.002  0.00  0.00     0.249 A 
ATOM      7  O1  <0> d           1.237   3.285   0.007  0.00  0.00    -0.268 OA
ATOM      8  H1  <0> d          -0.952   1.921   0.017  0.00  0.00     0.098 H 
ATOM      9  H2  <0> d           3.236  -0.553  -0.031  0.00  0.00     0.143 H 
ATOM     10  H3  <0> d           3.206   1.806  -0.019  0.00  0.00     0.169 HD
ENDROOT
BRANCH   2  11
ATOM     11  N3  <0> d          -1.181  -0.715   0.010  0.00  0.00    -0.384 N 
ATOM     12  H4  <0> d          -2.029  -0.245   0.021  0.00  0.00     0.157 HD
ATOM     13  H5  <0> d          -1.163  -1.685   0.005  0.00  0.00     0.157 HD
ENDBRANCH   2  11
TORSDOF 1
