REMARK  2 active torsions:
REMARK  status: ('A' for Active; 'I' for Inactive)
REMARK    1  A    between atoms: C1_1  and  C2_2 
REMARK    2  A    between atoms: C6_6  and  N3_12 
ROOT
ATOM      1  C2  <0> d          -2.489   5.611   0.047  0.00  0.00     0.033 A 
ATOM      2  C3  <0> d          -1.110   5.468   0.038  0.00  0.00    -0.059 A 
ATOM      3  C4  <0> d          -0.559   4.201   0.028  0.00  0.00    -0.065 A 
ATOM      4  C5  <0> d          -1.427   3.107   0.032  0.00  0.00     0.037 A 
ATOM      5  C6  <0> d          -1.239   1.653   0.017  0.00  0.00     0.055 A 
ATOM      6  C7  <0> d          -2.467   1.101   0.020  0.00  0.00     0.005 A 
ATOM      7  N1  <0> d          -3.422   2.093   0.031  0.00  0.00    -0.348 N 
ATOM      8  H1  <0> d          -4.380   1.943   0.034  0.00  0.00     0.167 HD
ATOM      9  C8  <0> d          -2.818   3.327   0.035  0.00  0.00     0.140 A 
ATOM     10  N2  <0> d          -3.290   4.567   0.044  0.00  0.00    -0.235 NA
ATOM     11  H5  <0> d          -0.472   6.340   0.040  0.00  0.00     0.086 H 
ATOM     12  H6  <0> d           0.512   4.061   0.021  0.00  0.00     0.085 H 
ATOM     13  H7  <0> d          -2.672   0.041   0.015  0.00  0.00     0.114 H 
ENDROOT
BRANCH   1  14
ATOM     14  C1  <0> d          -3.086   6.995   0.058  0.00  0.00    -0.035 C 
ATOM     15  H2  <0> d          -3.224   7.322   1.088  0.00  0.00     0.035 H 
ATOM     16  H3  <0> d          -2.415   7.684  -0.455  0.00  0.00     0.035 H 
ATOM     17  H4  <0> d          -4.049   6.980  -0.451  0.00  0.00     0.035 H 
ENDBRANCH   1  14
BRANCH   5  18
ATOM     18  N3  <0> d          -0.011   0.966   0.007  0.00  0.00    -0.397 N 
ATOM     19  H8  <0> d           0.002  -0.004   0.002  0.00  0.00     0.156 HD
ATOM     20  H9  <0> d           0.822   1.462   0.002  0.00  0.00     0.156 HD
ENDBRANCH   5  18
TORSDOF 2
