REMARK  3 active torsions:
REMARK  status: ('A' for Active; 'I' for Inactive)
REMARK    1  A    between atoms: C1_1  and  S1_2 
REMARK    2  A    between atoms: S1_2  and  C2_4 
REMARK    3  A    between atoms: C3_6  and  N4_10 
ROOT
ATOM      1  C2  <0> d          -1.702  -0.454   0.016  0.00  0.00     0.255 A 
ATOM      2  N1  <0> d          -2.440  -0.651   1.109  0.00  0.00    -0.033 NA
ATOM      3  C3  <0> d          -3.668  -0.974   0.761  0.00  0.00     0.716 A 
ATOM      4  N2  <0> d          -3.727  -0.985  -0.587  0.00  0.00    -0.105 N 
ATOM      5  H1  <0> d          -4.503  -1.188  -1.133  0.00  0.00     0.208 HD
ATOM      6  N3  <0> d          -2.444  -0.641  -1.042  0.00  0.00    -0.129 NA
ENDROOT
BRANCH   1   7
ATOM      7  S1  <0> d           0.002  -0.004   0.002  0.00  0.00     0.086 S 
ATOM      8  O1  <0> d           0.493  -0.478   1.249  0.00  0.00    -0.250 OA
BRANCH   7   9
ATOM      9  C1  <0> d          -0.022   1.810   0.012  0.00  0.00    -0.001 C 
ATOM     10  H2  <0> d           1.000   2.187   0.004  0.00  0.00     0.046 H 
ATOM     11  H3  <0> d          -0.550   2.171  -0.871  0.00  0.00     0.046 H 
ATOM     12  H4  <0> d          -0.533   2.161   0.909  0.00  0.00     0.046 H 
ENDBRANCH   7   9
ENDBRANCH   1   7
BRANCH   3  13
ATOM     13  N4  <0> d          -4.712  -1.252   1.625  0.00  0.00    -0.231 N 
ATOM     14  H5  <0> d          -4.571  -1.218   2.584  0.00  0.00     0.174 HD
ATOM     15  H6  <0> d          -5.586  -1.482   1.271  0.00  0.00     0.174 HD
ENDBRANCH   3  13
TORSDOF 3
