REMARK  3 active torsions:
REMARK  status: ('A' for Active; 'I' for Inactive)
REMARK    1  A    between atoms: N1_6  and  C4_7 
REMARK    2  A    between atoms: C4_7  and  C5_8 
REMARK    3  A    between atoms: C5_8  and  C6_9 
ROOT
ATOM      1  C1  <0> d           1.167   2.332   0.003  0.00  0.00     0.020 A 
ATOM      2  C2  <0> d           0.576   3.755   0.016  0.00  0.00     0.045 A 
ATOM      3  O1  <0> d          -0.865   3.539   0.029  0.00  0.00    -0.302 OA
ATOM      4  C3  <0> d          -1.118   2.225   0.019  0.00  0.00     0.362 A 
ATOM      5  O2  <0> d          -2.244   1.767   0.021  0.00  0.00    -0.238 OA
ATOM      6  N1  <0> d          -0.018   1.461   0.010  0.00  0.00    -0.326 N 
ATOM      7  H1  <0> d           1.778   2.127   0.895  0.00  0.00     0.067 H 
ATOM      8  H2  <0> d           1.761   2.136  -0.901  0.00  0.00     0.067 H 
ATOM      9  H3  <0> d           0.922   4.288   0.914  0.00  0.00     0.077 H 
ATOM     10  H4  <0> d           0.906   4.298  -0.882  0.00  0.00     0.077 H 
ENDROOT
BRANCH   6  11
ATOM     11  C4  <0> d           0.002  -0.004   0.002  0.00  0.00     0.009 C 
ATOM     12  H5  <0> d          -0.896  -0.380  -0.510  0.00  0.00     0.065 H 
ATOM     13  H6  <0> d           0.900  -0.356  -0.527  0.00  0.00     0.065 H 
BRANCH  11  14
ATOM     14  C5  <0> d           0.023  -0.522   1.442  0.00  0.00     0.030 C 
ATOM     15  H7  <0> d           0.921  -0.146   1.954  0.00  0.00     0.051 H 
ATOM     16  H8  <0> d          -0.875  -0.170   1.971  0.00  0.00     0.051 H 
BRANCH  14  17
ATOM     17  C6  <0> d           0.043  -2.029   1.433  0.00  0.00     0.174 C 
ATOM     18  O3  <0> d           0.041  -2.627   0.384  0.00  0.00    -0.648 OA
ATOM     19  O4  <0> d           0.063  -2.706   2.592  0.00  0.00    -0.648 OA
ENDBRANCH  14  17
ENDBRANCH  11  14
ENDBRANCH   6  11
TORSDOF 3
