REMARK  2 active torsions:
REMARK  status: ('A' for Active; 'I' for Inactive)
REMARK    1  A    between atoms: C1_1  and  C2_2 
REMARK    2  A    between atoms: C2_2  and  C3_3 
ROOT
ATOM      1  C3  <0> d          -2.164   1.050   1.278  0.00  0.00    -0.048 C 
ATOM      2  H1  <0> d          -2.152  -0.036   1.182  0.00  0.00     0.040 H 
ATOM      3  C4  <0> d          -2.841   1.438   2.593  0.00  0.00    -0.061 C 
ATOM      4  C5  <0> d          -4.247   0.837   2.650  0.00  0.00    -0.059 C 
ATOM      5  C6  <0> d          -5.103   1.437   1.530  0.00  0.00    -0.010 C 
ATOM      6  C7  <0> d          -4.388   1.227   0.214  0.00  0.00     0.127 C 
ATOM      7  O1  <0> d          -4.958   0.729  -0.728  0.00  0.00    -0.298 OA
ATOM      8  C8  <0> d          -2.942   1.658   0.106  0.00  0.00    -0.006 C 
ATOM      9  H7  <0> d          -2.252   1.061   3.429  0.00  0.00     0.033 H 
ATOM     10  H8  <0> d          -2.909   2.524   2.659  0.00  0.00     0.033 H 
ATOM     11  H9  <0> d          -4.185  -0.244   2.522  0.00  0.00     0.033 H 
ATOM     12  H10 <0> d          -4.700   1.063   3.615  0.00  0.00     0.033 H 
ATOM     13  H11 <0> d          -5.994   0.983   1.513  0.00  0.00     0.044 H 
ATOM     14  H12 <0> d          -5.241   2.503   1.706  0.00  0.00     0.044 H 
ATOM     15  H13 <0> d          -2.878   2.655   0.145  0.00  0.00     0.044 H 
ATOM     16  H14 <0> d          -2.523   1.302  -0.835  0.00  0.00     0.044 H 
ENDROOT
BRANCH   1  17
ATOM     17  C2  <0> d          -0.729   1.579   1.267  0.00  0.00    -0.065 C 
ATOM     18  H5  <0> d          -0.202   1.218   2.150  0.00  0.00     0.033 H 
ATOM     19  H6  <0> d          -0.744   2.669   1.273  0.00  0.00     0.033 H 
BRANCH  17  20
ATOM     20  C1  <0> d          -0.013   1.086   0.008  0.00  0.00    -0.076 C 
ATOM     21  H2  <0> d           0.002  -0.004   0.002  0.00  0.00     0.027 H 
ATOM     22  H3  <0> d           1.010   1.463   0.000  0.00  0.00     0.027 H 
ATOM     23  H4  <0> d          -0.540   1.447  -0.875  0.00  0.00     0.027 H 
ENDBRANCH  17  20
ENDBRANCH   1  17
TORSDOF 2
