REMARK  3 active torsions:
REMARK  status: ('A' for Active; 'I' for Inactive)
REMARK    1  A    between atoms: C1_1  and  C2_2 
REMARK    2  A    between atoms: C2_2  and  C4_4 
REMARK    3  A    between atoms: C9_9  and  N1_10 
ROOT
ATOM      1  C4  <0> d           1.224  -0.692  -0.013  0.00  0.00    -0.005 A 
ATOM      2  C5  <0> d           1.230  -2.086  -0.020  0.00  0.00    -0.070 A 
ATOM      3  C6  <0> d           0.038  -2.780  -0.012  0.00  0.00    -0.082 A 
ATOM      4  C7  <0> d          -1.167  -2.099   0.003  0.00  0.00    -0.081 A 
ATOM      5  C8  <0> d          -1.188  -0.717   0.015  0.00  0.00    -0.057 A 
ATOM      6  C9  <0> d           0.002  -0.004   0.002  0.00  0.00     0.036 A 
ATOM      7  H6  <0> d           2.167  -2.623  -0.032  0.00  0.00     0.084 H 
ATOM      8  H7  <0> d           0.044  -3.860  -0.018  0.00  0.00     0.083 H 
ATOM      9  H8  <0> d          -2.096  -2.650   0.010  0.00  0.00     0.083 H 
ATOM     10  H9  <0> d          -2.132  -0.192   0.031  0.00  0.00     0.086 H 
ENDROOT
BRANCH   1  11
ATOM     11  C2  <0> d           2.497   0.057  -0.021  0.00  0.00    -0.059 C 
ATOM     12  C3  <0> d           2.907   0.655  -1.132  0.00  0.00    -0.115 C 
ATOM     13  H4  <0> d           3.838   1.202  -1.138  0.00  0.00     0.067 H 
ATOM     14  H5  <0> d           2.311   0.595  -2.030  0.00  0.00     0.067 H 
BRANCH  11  15
ATOM     15  C1  <0> d           3.330   0.141   1.232  0.00  0.00    -0.051 C 
ATOM     16  H1  <0> d           2.835  -0.407   2.034  0.00  0.00     0.033 H 
ATOM     17  H2  <0> d           4.311  -0.295   1.045  0.00  0.00     0.033 H 
ATOM     18  H3  <0> d           3.445   1.185   1.522  0.00  0.00     0.033 H 
ENDBRANCH  11  15
ENDBRANCH   1  11
BRANCH   6  19
ATOM     19  N1  <0> d          -0.017   1.390   0.010  0.00  0.00    -0.398 N 
ATOM     20  H10 <0> d           0.817   1.886   0.004  0.00  0.00     0.156 HD
ATOM     21  H11 <0> d          -0.863   1.863   0.016  0.00  0.00     0.156 HD
ENDBRANCH   6  19
TORSDOF 3
