REMARK  1 active torsions:
REMARK  status: ('A' for Active; 'I' for Inactive)
REMARK    1  A    between atoms: C1_1  and  C2_2 
ROOT
ATOM      1  C2  <0> d          -0.834   1.635  -1.187  0.00  0.00     0.039 C 
ATOM      2  H1  <0> d          -1.691   0.993  -1.391  0.00  0.00     0.082 H 
ATOM      3  C3  <0> d          -0.013   1.086   0.008  0.00  0.00    -0.036 C 
ATOM      4  C4  <0> d          -0.810   1.621   1.224  0.00  0.00    -0.011 C 
ATOM      5  C5  <0> d          -1.615   2.799   0.650  0.00  0.00     0.164 C 
ATOM      6  O1  <0> d          -1.266   2.936  -0.733  0.00  0.00    -0.350 OA
ATOM      7  C6  <0> d          -1.264   4.090   1.413  0.00  0.00    -0.011 C 
ATOM      8  C7  <0> d          -2.644   4.801   1.503  0.00  0.00    -0.040 C 
ATOM      9  C8  <0> d          -3.595   3.584   1.631  0.00  0.00     0.023 C 
ATOM     10  O2  <0> d          -3.016   2.565   0.797  0.00  0.00    -0.355 OA
ATOM     11  H5  <0> d           0.002  -0.004   0.002  0.00  0.00     0.036 H 
ATOM     12  H6  <0> d           1.001   1.487   0.001  0.00  0.00     0.036 H 
ATOM     13  H7  <0> d          -1.480   0.853   1.610  0.00  0.00     0.041 H 
ATOM     14  H8  <0> d          -0.131   1.965   2.004  0.00  0.00     0.041 H 
ATOM     15  H9  <0> d          -0.879   3.862   2.406  0.00  0.00     0.041 H 
ATOM     16  H10 <0> d          -0.550   4.692   0.850  0.00  0.00     0.041 H 
ATOM     17  H11 <0> d          -2.700   5.438   2.386  0.00  0.00     0.036 H 
ATOM     18  H12 <0> d          -2.852   5.370   0.597  0.00  0.00     0.036 H 
ATOM     19  H13 <0> d          -3.639   3.245   2.666  0.00  0.00     0.074 H 
ATOM     20  H14 <0> d          -4.592   3.844   1.276  0.00  0.00     0.074 H 
ENDROOT
BRANCH   1  21
ATOM     21  C1  <0> d           0.048   1.764  -2.431  0.00  0.00    -0.052 C 
ATOM     22  H2  <0> d           0.447   0.785  -2.697  0.00  0.00     0.030 H 
ATOM     23  H3  <0> d          -0.547   2.151  -3.259  0.00  0.00     0.030 H 
ATOM     24  H4  <0> d           0.870   2.448  -2.224  0.00  0.00     0.030 H 
ENDBRANCH   1  21
TORSDOF 1
