REMARK  4 active torsions:
REMARK  status: ('A' for Active; 'I' for Inactive)
REMARK    1  A    between atoms: C1_1  and  C2_2 
REMARK    2  A    between atoms: C2_2  and  C3_4 
REMARK    3  A    between atoms: C2_2  and  O1_10 
REMARK    4  A    between atoms: C3_4  and  C4_5 
ROOT
ATOM      1  C2  <0> d          -0.013   1.086   0.008  0.00  0.00     0.100 C 
ATOM      2  H1  <0> d           0.002  -0.004   0.002  0.00  0.00     0.091 H 
ENDROOT
BRANCH   1   3
ATOM      3  C1  <0> d          -0.729   1.579   1.267  0.00  0.00    -0.047 C 
ATOM      4  H2  <0> d          -0.744   2.669   1.273  0.00  0.00     0.031 H 
ATOM      5  H3  <0> d          -1.751   1.202   1.275  0.00  0.00     0.031 H 
ATOM      6  H4  <0> d          -0.202   1.218   2.150  0.00  0.00     0.031 H 
ENDBRANCH   1   3
BRANCH   1   7
ATOM      7  C3  <0> d           1.423   1.615  -0.003  0.00  0.00     0.326 C 
ATOM      8  F3  <0> d           1.407   3.009   0.120  0.00  0.00    -0.197 F 
ATOM      9  F4  <0> d           2.132   1.061   1.068  0.00  0.00    -0.197 F 
BRANCH   7  10
ATOM     10  C4  <0> d           2.100   1.227  -1.319  0.00  0.00     0.272 C 
ATOM     11  F1  <0> d           1.390   1.781  -2.390  0.00  0.00    -0.208 F 
ATOM     12  F2  <0> d           3.412   1.711  -1.329  0.00  0.00    -0.208 F 
ATOM     13  H5  <0> d           2.112   0.141  -1.414  0.00  0.00     0.155 H 
ENDBRANCH   7  10
ENDBRANCH   1   7
BRANCH   1  14
ATOM     14  O1  <0> d          -0.704   1.559  -1.150  0.00  0.00    -0.390 OA
ATOM     15  H6  <0> d          -0.756   2.523  -1.210  0.00  0.00     0.210 HD
ENDBRANCH   1  14
TORSDOF 4
