REMARK  7 active torsions:
REMARK  status: ('A' for Active; 'I' for Inactive)
REMARK    1  A    between atoms: C1_1  and  O1_2 
REMARK    2  A    between atoms: O1_2  and  C2_3 
REMARK    3  A    between atoms: C2_3  and  C3_4 
REMARK    4  A    between atoms: C3_4  and  O2_5 
REMARK    5  A    between atoms: O2_5  and  C4_6 
REMARK    6  A    between atoms: C4_6  and  C5_7 
REMARK    7  A    between atoms: C5_7  and  C6_8 
ROOT
ATOM      1  C6  <0> d          -0.018   1.468   0.010  0.00  0.00     0.017 C 
ATOM      2  C7  <0> d           0.002  -0.004   0.002  0.00  0.00     0.059 C 
ATOM      3  N1  <0> d           0.018  -1.140  -0.004  0.00  0.00    -0.197 NA
ATOM      4  H12 <0> d          -0.550   1.832  -0.881  0.00  0.00     0.055 H 
ATOM      5  H13 <0> d           1.014   1.849   0.002  0.00  0.00     0.055 H 
ENDROOT
BRANCH   1   6
ATOM      6  C5  <0> d          -0.734   1.961   1.269  0.00  0.00    -0.034 C 
ATOM      7  H10 <0> d          -0.202   1.597   2.160  0.00  0.00     0.037 H 
ATOM      8  H11 <0> d          -1.766   1.580   1.277  0.00  0.00     0.037 H 
BRANCH   6   9
ATOM      9  C4  <0> d          -0.755   3.491   1.277  0.00  0.00     0.020 C 
ATOM     10  H8  <0> d          -1.287   3.855   0.386  0.00  0.00     0.074 H 
ATOM     11  H9  <0> d           0.277   3.872   1.269  0.00  0.00     0.074 H 
BRANCH   9  12
ATOM     12  O2  <0> d          -1.424   3.952   2.453  0.00  0.00    -0.389 OA
BRANCH  12  13
ATOM     13  C3  <0> d          -1.498   5.375   2.559  0.00  0.00     0.039 C 
ATOM     14  H6  <0> d          -2.046   5.779   1.695  0.00  0.00     0.077 H 
ATOM     15  H7  <0> d          -0.482   5.795   2.578  0.00  0.00     0.077 H 
BRANCH  13  16
ATOM     16  C2  <0> d          -2.231   5.753   3.848  0.00  0.00     0.039 C 
ATOM     17  H4  <0> d          -3.213   5.259   3.870  0.00  0.00     0.077 H 
ATOM     18  H5  <0> d          -2.367   6.843   3.886  0.00  0.00     0.077 H 
BRANCH  16  19
ATOM     19  O1  <0> d          -1.460   5.329   4.975  0.00  0.00    -0.394 OA
BRANCH  19  20
ATOM     20  C1  <0> d          -2.058   5.636   6.236  0.00  0.00     0.004 C 
ATOM     21  H1  <0> d          -1.406   5.279   7.047  0.00  0.00     0.066 H 
ATOM     22  H2  <0> d          -3.037   5.139   6.308  0.00  0.00     0.066 H 
ATOM     23  H3  <0> d          -2.191   6.724   6.324  0.00  0.00     0.066 H 
ENDBRANCH  19  20
ENDBRANCH  16  19
ENDBRANCH  13  16
ENDBRANCH  12  13
ENDBRANCH   9  12
ENDBRANCH   6   9
ENDBRANCH   1   6
TORSDOF 7
