REMARK  6 active torsions:
REMARK  status: ('A' for Active; 'I' for Inactive)
REMARK    1  A    between atoms: C1_1  and  C2_2 
REMARK    2  A    between atoms: C2_2  and  C3_4 
REMARK    3  A    between atoms: C2_2  and  C5_7 
REMARK    4  A    between atoms: C3_4  and  C4_5 
REMARK    5  A    between atoms: C5_7  and  C6_9 
REMARK    6  A    between atoms: C5_7  and  C7_10 
ROOT
ATOM      1  C2  <0> d          -2.479   0.930   0.019  0.00  0.00    -0.036 C 
ATOM      2  H1  <0> d          -2.408   0.299   0.905  0.00  0.00     0.041 H 
ENDROOT
BRANCH   1   3
ATOM      3  C1  <0> d          -3.814   1.677   0.029  0.00  0.00    -0.072 C 
ATOM      4  H3  <0> d          -3.876   2.298   0.923  0.00  0.00     0.028 H 
ATOM      5  H4  <0> d          -3.885   2.307  -0.857  0.00  0.00     0.028 H 
ATOM      6  H5  <0> d          -4.633   0.957   0.029  0.00  0.00     0.028 H 
ENDBRANCH   1   3
BRANCH   1   7
ATOM      7  C3  <0> d          -2.392   0.058  -1.236  0.00  0.00     0.019 C 
ATOM      8  H6  <0> d          -2.551   0.676  -2.119  0.00  0.00     0.049 H 
ATOM      9  H7  <0> d          -1.406  -0.405  -1.289  0.00  0.00     0.049 H 
BRANCH   7  10
ATOM     10  C4  <0> d          -3.448  -1.015  -1.176  0.00  0.00     0.172 C 
ATOM     11  O1  <0> d          -4.194  -1.076  -0.228  0.00  0.00    -0.648 OA
ATOM     12  O3  <0> d          -3.561  -1.902  -2.177  0.00  0.00    -0.648 OA
ENDBRANCH   7  10
ENDBRANCH   1   7
BRANCH   1  13
ATOM     13  C5  <0> d          -1.329   1.940   0.019  0.00  0.00     0.031 C 
ATOM     14  H2  <0> d          -1.400   2.570  -0.867  0.00  0.00     0.056 H 
BRANCH  13  15
ATOM     15  C6  <0> d          -1.417   2.811   1.273  0.00  0.00    -0.063 C 
ATOM     16  H8  <0> d          -2.368   3.344   1.281  0.00  0.00     0.028 H 
ATOM     17  H9  <0> d          -1.346   2.181   2.160  0.00  0.00     0.028 H 
ATOM     18  H10 <0> d          -0.598   3.531   1.273  0.00  0.00     0.028 H 
ENDBRANCH  13  15
BRANCH  13  19
ATOM     19  C7  <0> d          -0.014   1.204   0.009  0.00  0.00     0.177 C 
ATOM     20  O2  <0> d           0.002  -0.004   0.002  0.00  0.00    -0.648 OA
ATOM     21  O4  <0> d           1.139   1.891   0.001  0.00  0.00    -0.648 OA
ENDBRANCH  13  19
ENDBRANCH   1  13
TORSDOF 6
