REMARK  6 active torsions:
REMARK  status: ('A' for Active; 'I' for Inactive)
REMARK    1  A    between atoms: C1_1  and  C2_2 
REMARK    2  A    between atoms: C2_2  and  C3_3 
REMARK    3  A    between atoms: C2_2  and  C4_4 
REMARK    4  A    between atoms: C2_2  and  O1_5 
REMARK    5  A    between atoms: O1_5  and  C5_6 
REMARK    6  A    between atoms: C5_6  and  C6_7 
ROOT
ATOM      1  C6  <0> d           0.002  -0.004   0.002  0.00  0.00    -0.091 C 
ATOM      2  C7  <0> d           0.018  -1.178  -0.004  0.00  0.00    -0.152 C 
ATOM      3  H12 <0> d           0.032  -2.228  -0.010  0.00  0.00     0.166 H 
ENDROOT
BRANCH   1   4
ATOM      4  C5  <0> d          -0.018   1.468   0.010  0.00  0.00     0.074 C 
ATOM      5  H10 <0> d          -0.545   1.829  -0.873  0.00  0.00     0.093 H 
ATOM      6  H11 <0> d          -0.528   1.819   0.907  0.00  0.00     0.093 H 
BRANCH   4   7
ATOM      7  O1  <0> d           1.323   1.962  -0.000  0.00  0.00    -0.370 OA
BRANCH   7   8
ATOM      8  C2  <0> d           1.416   3.388   0.007  0.00  0.00     0.051 C 
BRANCH   8   9
ATOM      9  C1  <0> d           0.742   3.938   1.265  0.00  0.00    -0.048 C 
ATOM     10  H1  <0> d           1.239   3.537   2.149  0.00  0.00     0.031 H 
ATOM     11  H2  <0> d           0.813   5.025   1.271  0.00  0.00     0.031 H 
ATOM     12  H3  <0> d          -0.307   3.642   1.274  0.00  0.00     0.031 H 
ENDBRANCH   8   9
BRANCH   8  13
ATOM     13  C3  <0> d           2.889   3.803  -0.005  0.00  0.00    -0.048 C 
ATOM     14  H4  <0> d           3.369   3.412  -0.902  0.00  0.00     0.031 H 
ATOM     15  H5  <0> d           2.960   4.891   0.000  0.00  0.00     0.031 H 
ATOM     16  H6  <0> d           3.386   3.402   0.878  0.00  0.00     0.031 H 
ENDBRANCH   8  13
BRANCH   8  17
ATOM     17  C4  <0> d           0.718   3.951  -1.233  0.00  0.00    -0.048 C 
ATOM     18  H7  <0> d          -0.331   3.656  -1.224  0.00  0.00     0.031 H 
ATOM     19  H8  <0> d           0.789   5.039  -1.228  0.00  0.00     0.031 H 
ATOM     20  H9  <0> d           1.198   3.560  -2.130  0.00  0.00     0.031 H 
ENDBRANCH   8  17
ENDBRANCH   7   8
ENDBRANCH   4   7
ENDBRANCH   1   4
TORSDOF 6
