REMARK  5 active torsions:
REMARK  status: ('A' for Active; 'I' for Inactive)
REMARK    1  A    between atoms: C1_1  and  C2_2 
REMARK    2  A    between atoms: C2_2  and  C3_4 
REMARK    3  A    between atoms: C2_2  and  O2_12 
REMARK    4  A    between atoms: C3_4  and  C4_5 
REMARK    5  A    between atoms: C4_5  and  C5_6 
ROOT
ATOM      1  C4  <0> d          -0.013   1.086   0.008  0.00  0.00    -0.039 C 
ATOM      2  H8  <0> d           0.002  -0.004   0.002  0.00  0.00     0.036 H 
ATOM      3  H9  <0> d           1.010   1.463   0.000  0.00  0.00     0.036 H 
ENDROOT
BRANCH   1   4
ATOM      4  C3  <0> d          -0.729   1.579   1.267  0.00  0.00    -0.039 C 
ATOM      5  H6  <0> d          -0.744   2.669   1.273  0.00  0.00     0.036 H 
ATOM      6  H7  <0> d          -1.751   1.202   1.275  0.00  0.00     0.036 H 
BRANCH   4   7
ATOM      7  C2  <0> d           0.011   1.072   2.506  0.00  0.00     0.032 C 
ATOM      8  H1  <0> d           1.057   1.375   2.454  0.00  0.00     0.082 H 
BRANCH   7   9
ATOM      9  C1  <0> d          -0.630   1.667   3.762  0.00  0.00    -0.052 C 
ATOM     10  H3  <0> d          -1.676   1.364   3.814  0.00  0.00     0.030 H 
ATOM     11  H4  <0> d          -0.103   1.306   4.645  0.00  0.00     0.030 H 
ATOM     12  H5  <0> d          -0.568   2.754   3.721  0.00  0.00     0.030 H 
ENDBRANCH   7   9
BRANCH   7  13
ATOM     13  O2  <0> d          -0.070  -0.353   2.560  0.00  0.00    -0.396 OA
ATOM     14  H16 <0> d           0.379  -0.745   3.322  0.00  0.00     0.210 HD
ENDBRANCH   7  13
ENDBRANCH   4   7
ENDBRANCH   1   4
BRANCH   1  15
ATOM     15  C5  <0> d          -0.753   1.593  -1.232  0.00  0.00     0.038 C 
ATOM     16  H2  <0> d          -0.865   2.676  -1.179  0.00  0.00     0.083 H 
ATOM     17  O1  <0> d          -2.045   0.969  -1.319  0.00  0.00    -0.386 OA
ATOM     18  C8  <0> d          -2.334   0.793  -2.722  0.00  0.00     0.020 C 
ATOM     19  C7  <0> d          -0.973   0.357  -3.321  0.00  0.00    -0.043 C 
ATOM     20  H14 <0> d          -2.665   1.732  -3.166  0.00  0.00     0.074 H 
ATOM     21  H15 <0> d          -3.084   0.015  -2.865  0.00  0.00     0.074 H 
ATOM     22  C6  <0> d           0.029   1.207  -2.502  0.00  0.00    -0.039 C 
ATOM     23  H12 <0> d          -0.917   0.603  -4.381  0.00  0.00     0.036 H 
ATOM     24  H13 <0> d          -0.801  -0.708  -3.160  0.00  0.00     0.036 H 
ATOM     25  H10 <0> d           0.316   2.100  -3.059  0.00  0.00     0.036 H 
ATOM     26  H11 <0> d           0.910   0.620  -2.245  0.00  0.00     0.036 H 
ENDBRANCH   1  15
TORSDOF 5
