REMARK  0 active torsions:
REMARK  status: ('A' for Active; 'I' for Inactive)
ROOT
ATOM      1  C1  <0> d           0.002  -0.004   0.002  0.00  0.00    -0.061 A 
ATOM      2  C2  <0> d          -0.016   1.361   0.009  0.00  0.00    -0.053 A 
ATOM      3  C3  <0> d           1.176   2.075   0.002  0.00  0.00     0.062 A 
ATOM      4  C4  <0> d           2.408   1.395  -0.013  0.00  0.00     0.086 A 
ATOM      5  C5  <0> d           2.423   0.001  -0.021  0.00  0.00    -0.033 A 
ATOM      6  C6  <0> d           1.220  -0.698  -0.014  0.00  0.00     0.047 A 
ATOM      7  C7  <0> d           1.225  -2.130  -0.022  0.00  0.00     0.099 C 
ATOM      8  N1  <0> d           1.230  -3.266  -0.029  0.00  0.00    -0.191 NA
ATOM      9  N2  <0> d           3.382   2.342  -0.017  0.00  0.00    -0.242 NA
ATOM     10  C8  <0> d           2.841   3.525  -0.005  0.00  0.00     0.065 A 
ATOM     11  N3  <0> d           1.484   3.419   0.007  0.00  0.00    -0.349 N 
ATOM     12  H1  <0> d           0.832   4.176   0.017  0.00  0.00     0.167 HD
ATOM     13  H2  <0> d          -0.928  -0.553   0.008  0.00  0.00     0.086 H 
ATOM     14  H3  <0> d          -0.960   1.887   0.017  0.00  0.00     0.087 H 
ATOM     15  H4  <0> d           3.362  -0.532  -0.033  0.00  0.00     0.089 H 
ATOM     16  H5  <0> d           3.389   4.455  -0.006  0.00  0.00     0.143 H 
ENDROOT
TORSDOF 0
