REMARK  2 active torsions:
REMARK  status: ('A' for Active; 'I' for Inactive)
REMARK    1  A    between atoms: C1_1  and  O1_2 
REMARK    2  A    between atoms: O1_2  and  C2_3 
ROOT
ATOM      1  C2  <0> d           1.196   2.071   0.002  0.00  0.00     0.183 A 
ATOM      2  C3  <0> d          -0.016   1.356   0.009  0.00  0.00    -0.025 A 
ATOM      3  C4  <0> d           0.002  -0.004   0.002  0.00  0.00    -0.012 A 
ATOM      4  C5  <0> d           1.241  -0.677  -0.013  0.00  0.00     0.261 A 
ATOM      5  O2  <0> d           1.278  -1.897  -0.020  0.00  0.00    -0.267 OA
ATOM      6  N1  <0> d           2.384   0.037  -0.021  0.00  0.00    -0.241 N 
ATOM      7  H1  <0> d           3.266  -0.434  -0.031  0.00  0.00     0.192 HD
ATOM      8  N2  <0> d           2.341   1.436  -0.013  0.00  0.00    -0.146 NA
ATOM      9  H5  <0> d          -0.958   1.885   0.017  0.00  0.00     0.090 H 
ATOM     10  H6  <0> d          -0.922  -0.562   0.007  0.00  0.00     0.092 H 
ENDROOT
BRANCH   1  11
ATOM     11  O1  <0> d           1.178   3.429   0.009  0.00  0.00    -0.338 OA
BRANCH  11  12
ATOM     12  C1  <0> d           2.442   4.094   0.001  0.00  0.00     0.012 C 
ATOM     13  H2  <0> d           2.994   3.814  -0.896  0.00  0.00     0.067 H 
ATOM     14  H3  <0> d           2.285   5.173   0.008  0.00  0.00     0.067 H 
ATOM     15  H4  <0> d           3.011   3.804   0.884  0.00  0.00     0.067 H 
ENDBRANCH  11  12
ENDBRANCH   1  11
TORSDOF 2
