REMARK  1 active torsions:
REMARK  status: ('A' for Active; 'I' for Inactive)
REMARK    1  A    between atoms: C3_3  and  C5_6 
ROOT
ATOM      1  C1  <0> d           0.040  -2.223   0.802  0.00  0.00    -0.075 A 
ATOM      2  C2  <0> d           0.029  -0.863   1.050  0.00  0.00    -0.061 A 
ATOM      3  C3  <0> d           0.002  -0.004   0.002  0.00  0.00     0.088 A 
ATOM      4  S1  <0> d           0.005  -1.121  -1.391  0.00  0.00    -0.098 SA
ATOM      5  C4  <0> d           0.035  -2.657  -0.482  0.00  0.00    -0.044 A 
ATOM      6  H1  <0> d           0.058  -2.929   1.619  0.00  0.00     0.084 H 
ATOM      7  H2  <0> d           0.039  -0.491   2.064  0.00  0.00     0.085 H 
ATOM      8  H3  <0> d           0.045  -3.670  -0.858  0.00  0.00     0.095 H 
ENDROOT
BRANCH   3   9
ATOM      9  C5  <0> d          -0.018   1.503   0.010  0.00  0.00     0.423 C 
ATOM     10  F1  <0> d           1.294   1.987   0.000  0.00  0.00    -0.166 F 
ATOM     11  F2  <0> d          -0.695   1.966  -1.123  0.00  0.00    -0.166 F 
ATOM     12  F3  <0> d          -0.673   1.954   1.161  0.00  0.00    -0.166 F 
ENDBRANCH   3   9
TORSDOF 1
