REMARK  8 active torsions:
REMARK  status: ('A' for Active; 'I' for Inactive)
REMARK    1  A    between atoms: C1_1  and  C2_2 
REMARK    2  A    between atoms: C2_2  and  C3_3 
REMARK    3  A    between atoms: C3_3  and  C4_4 
REMARK    4  A    between atoms: C4_4  and  C5_6 
REMARK    5  A    between atoms: C4_4  and  C6_7 
REMARK    6  A    between atoms: C6_7  and  O2_9 
REMARK    7  A    between atoms: O2_9  and  C7_10 
REMARK    8  A    between atoms: C7_10  and  C8_11 
ROOT
ATOM      1  C4  <0> d           0.657  -2.104  -1.120  0.00  0.00     0.027 C 
ATOM      2  H1  <0> d          -0.355  -2.507  -1.129  0.00  0.00     0.054 H 
ENDROOT
BRANCH   1   3
ATOM      3  C3  <0> d           1.385  -2.521  -2.400  0.00  0.00    -0.054 C 
ATOM      4  H7  <0> d           0.899  -2.060  -3.260  0.00  0.00     0.034 H 
ATOM      5  H8  <0> d           2.423  -2.193  -2.350  0.00  0.00     0.034 H 
BRANCH   3   6
ATOM      6  C2  <0> d           1.336  -4.043  -2.541  0.00  0.00    -0.068 C 
ATOM      7  H5  <0> d           1.822  -4.504  -1.681  0.00  0.00     0.032 H 
ATOM      8  H6  <0> d           0.298  -4.370  -2.590  0.00  0.00     0.032 H 
BRANCH   6   9
ATOM      9  C1  <0> d           2.063  -4.460  -3.821  0.00  0.00    -0.076 C 
ATOM     10  H2  <0> d           1.578  -4.000  -4.681  0.00  0.00     0.027 H 
ATOM     11  H3  <0> d           3.102  -4.133  -3.772  0.00  0.00     0.027 H 
ATOM     12  H4  <0> d           2.029  -5.545  -3.921  0.00  0.00     0.027 H 
ENDBRANCH   6   9
ENDBRANCH   3   6
ENDBRANCH   1   3
BRANCH   1  13
ATOM     13  C5  <0> d           1.412  -2.647   0.096  0.00  0.00    -0.064 C 
ATOM     14  H9  <0> d           2.424  -2.244   0.105  0.00  0.00     0.028 H 
ATOM     15  H10 <0> d           0.893  -2.350   1.007  0.00  0.00     0.028 H 
ATOM     16  H11 <0> d           1.454  -3.735   0.040  0.00  0.00     0.028 H 
ENDBRANCH   1  13
BRANCH   1  17
ATOM     17  C6  <0> d           0.598  -0.600  -1.043  0.00  0.00     0.262 C 
ATOM     18  O1  <0> d           1.088   0.070  -1.921  0.00  0.00    -0.265 OA
BRANCH  17  19
ATOM     19  O2  <0> d           0.002  -0.004   0.002  0.00  0.00    -0.322 OA
BRANCH  19  20
ATOM     20  C7  <0> d          -0.018   1.448   0.010  0.00  0.00     0.025 C 
ATOM     21  H12 <0> d           1.005   1.825   0.002  0.00  0.00     0.074 H 
ATOM     22  H13 <0> d          -0.545   1.809  -0.873  0.00  0.00     0.074 H 
BRANCH  20  23
ATOM     23  C8  <0> d          -0.734   1.941   1.269  0.00  0.00    -0.056 C 
ATOM     24  H14 <0> d          -1.756   1.564   1.276  0.00  0.00     0.030 H 
ATOM     25  H15 <0> d          -0.207   1.580   2.152  0.00  0.00     0.030 H 
ATOM     26  H16 <0> d          -0.749   3.031   1.275  0.00  0.00     0.030 H 
ENDBRANCH  20  23
ENDBRANCH  19  20
ENDBRANCH  17  19
ENDBRANCH   1  17
TORSDOF 8
