REMARK  1 active torsions:
REMARK  status: ('A' for Active; 'I' for Inactive)
REMARK    1  A    between atoms: C5_6  and  C6_7 
ROOT
ATOM      1  C1  <0> d          -3.587   2.205   0.034  0.00  0.00    -0.054 A 
ATOM      2  C2  <0> d          -4.881   1.728   0.032  0.00  0.00     0.003 A 
ATOM      3  N1  <0> d          -5.126   0.432   0.026  0.00  0.00    -0.273 NA
ATOM      4  C3  <0> d          -4.157  -0.464   0.017  0.00  0.00     0.003 A 
ATOM      5  C4  <0> d          -2.833  -0.075   0.014  0.00  0.00    -0.054 A 
ATOM      6  C5  <0> d          -2.527   1.291   0.019  0.00  0.00    -0.005 A 
ATOM      7  H2  <0> d          -3.394   3.267   0.043  0.00  0.00     0.087 H 
ATOM      8  H3  <0> d          -5.706   2.426   0.039  0.00  0.00     0.114 H 
ATOM      9  H4  <0> d          -4.403  -1.515   0.013  0.00  0.00     0.114 H 
ATOM     10  H5  <0> d          -2.045  -0.813   0.007  0.00  0.00     0.087 H 
ENDROOT
BRANCH   6  11
ATOM     11  C6  <0> d          -1.123   1.755   0.016  0.00  0.00     0.061 A 
ATOM     12  N3  <0> d          -0.011   0.966   0.007  0.00  0.00    -0.278 N 
ATOM     13  N2  <0> d           1.109   1.807   0.001  0.00  0.00    -0.187 NA
ATOM     14  H1  <0> d           0.003  -0.034   0.006  0.00  0.00     0.189 HD
ATOM     15  C8  <0> d           0.695   3.049   0.011  0.00  0.00     0.024 A 
ATOM     16  C7  <0> d          -0.699   3.054   0.024  0.00  0.00    -0.036 A 
ATOM     17  H7  <0> d           1.329   3.924   0.009  0.00  0.00     0.117 H 
ATOM     18  H6  <0> d          -1.332   3.929   0.034  0.00  0.00     0.089 H 
ENDBRANCH   6  11
TORSDOF 1
