REMARK  2 active torsions:
REMARK  status: ('A' for Active; 'I' for Inactive)
REMARK    1  A    between atoms: C4_5  and  C8_11 
REMARK    2  A    between atoms: C8_11  and  C9_12 
ROOT
ATOM      1  C1  <0> d           0.671   3.184   0.864  0.00  0.00    -0.052 C 
ATOM      2  C2  <0> d           1.219   1.990   0.001  0.00  0.00    -0.037 C 
ATOM      3  H1  <0> d           2.159   1.536   0.314  0.00  0.00     0.046 H 
ATOM      4  C3  <0> d           1.203   2.638  -1.420  0.00  0.00    -0.054 C 
ATOM      5  C4  <0> d          -0.065   3.526  -1.403  0.00  0.00    -0.038 C 
ATOM      6  H2  <0> d           0.199   4.573  -1.551  0.00  0.00     0.041 H 
ATOM      7  C5  <0> d          -0.654   3.302   0.026  0.00  0.00    -0.033 C 
ATOM      8  H3  <0> d          -1.385   4.035   0.367  0.00  0.00     0.046 H 
ATOM      9  C6  <0> d          -1.092   1.832   0.017  0.00  0.00    -0.102 C 
ATOM     10  C7  <0> d          -0.013   1.076   0.008  0.00  0.00    -0.102 C 
ATOM     11  H4  <0> d           0.486   2.900   1.900  0.00  0.00     0.035 H 
ATOM     12  H5  <0> d           1.294   4.075   0.788  0.00  0.00     0.035 H 
ATOM     13  H6  <0> d           2.095   3.246  -1.574  0.00  0.00     0.034 H 
ATOM     14  H7  <0> d           1.124   1.871  -2.190  0.00  0.00     0.034 H 
ATOM     15  H8  <0> d          -2.112   1.477   0.019  0.00  0.00     0.077 H 
ATOM     16  H9  <0> d           0.002  -0.004   0.002  0.00  0.00     0.076 H 
ENDROOT
BRANCH   5  17
ATOM     17  C8  <0> d          -1.058   3.067  -2.473  0.00  0.00     0.020 C 
ATOM     18  H10 <0> d          -1.259   2.003  -2.348  0.00  0.00     0.049 H 
ATOM     19  H11 <0> d          -1.987   3.627  -2.370  0.00  0.00     0.049 H 
BRANCH  17  20
ATOM     20  C9  <0> d          -0.472   3.311  -3.840  0.00  0.00     0.172 C 
ATOM     21  O1  <0> d           0.627   3.801  -3.947  0.00  0.00    -0.648 OA
ATOM     22  O2  <0> d          -1.171   2.982  -4.937  0.00  0.00    -0.648 OA
ENDBRANCH  17  20
ENDBRANCH   5  17
TORSDOF 2
