REMARK  3 active torsions:
REMARK  status: ('A' for Active; 'I' for Inactive)
REMARK    1  A    between atoms: C1_1  and  C2_2 
REMARK    2  A    between atoms: C4_4  and  N3_10 
REMARK    3  A    between atoms: N2_8  and  C6_9 
ROOT
ATOM      1  C2  <0> d           1.145   1.779   0.001  0.00  0.00     0.015 A 
ATOM      2  C3  <0> d          -0.013   1.076   0.008  0.00  0.00    -0.023 A 
ATOM      3  C4  <0> d          -1.237   1.775   0.018  0.00  0.00     0.108 A 
ATOM      4  N1  <0> d          -1.234   3.102   0.030  0.00  0.00    -0.182 NA
ATOM      5  C5  <0> d          -0.088   3.780   0.022  0.00  0.00     0.349 A 
ATOM      6  O1  <0> d          -0.112   4.999   0.029  0.00  0.00    -0.244 OA
ATOM      7  N2  <0> d           1.097   3.141   0.008  0.00  0.00    -0.306 N 
ATOM      8  H4  <0> d           0.002  -0.004   0.002  0.00  0.00     0.091 H 
ENDROOT
BRANCH   1   9
ATOM      9  C1  <0> d           2.471   1.064  -0.015  0.00  0.00    -0.037 C 
ATOM     10  H1  <0> d           2.303  -0.013  -0.018  0.00  0.00     0.035 H 
ATOM     11  H2  <0> d           3.026   1.347  -0.909  0.00  0.00     0.035 H 
ATOM     12  H3  <0> d           3.043   1.339   0.871  0.00  0.00     0.035 H 
ENDBRANCH   1   9
BRANCH   7  13
ATOM     13  C6  <0> d           2.341   3.914   0.001  0.00  0.00    -0.010 C 
ATOM     14  H5  <0> d           2.641   4.111  -1.029  0.00  0.00     0.057 H 
ATOM     15  H6  <0> d           2.185   4.859   0.521  0.00  0.00     0.057 H 
ATOM     16  H7  <0> d           3.124   3.347   0.505  0.00  0.00     0.057 H 
ENDBRANCH   7  13
BRANCH   3  17
ATOM     17  N3  <0> d          -2.427   1.086   0.020  0.00  0.00    -0.287 NA
ATOM     18  H8  <0> d          -2.483   0.515  -0.799  0.00  0.00     0.125 HD
ATOM     19  H9  <0> d          -3.268   1.570   0.026  0.00  0.00     0.125 HD
ENDBRANCH   3  17
TORSDOF 3
