REMARK  2 active torsions:
REMARK  status: ('A' for Active; 'I' for Inactive)
REMARK    1  A    between atoms: C2_2  and  C4_7 
REMARK    2  A    between atoms: C3_4  and  N2_6 
ROOT
ATOM      1  C1  <0> d          -0.017   1.384   0.010  0.00  0.00     0.028 A 
ATOM      2  C2  <0> d           0.002  -0.004   0.002  0.00  0.00     0.102 A 
ATOM      3  S1  <0> d           1.763  -0.308  -0.016  0.00  0.00    -0.044 SA
ATOM      4  C3  <0> d           2.280   1.349  -0.013  0.00  0.00     0.164 A 
ATOM      5  N1  <0> d           1.131   2.009   0.002  0.00  0.00    -0.235 NA
ATOM      6  H1  <0> d          -0.949   1.930   0.017  0.00  0.00     0.117 H 
ENDROOT
BRANCH   2   7
ATOM      7  C4  <0> d          -1.076  -0.924   0.007  0.00  0.00     0.218 C 
ATOM      8  O1  <0> d          -2.223  -0.518   0.021  0.00  0.00    -0.643 OA
ATOM      9  O2  <0> d          -0.830  -2.251  -0.002  0.00  0.00    -0.643 OA
ENDBRANCH   2   7
BRANCH   4  10
ATOM     10  N2  <0> d           3.563   1.852  -0.022  0.00  0.00    -0.378 N 
ATOM     11  H2  <0> d           3.728   2.939  -0.018  0.00  0.00     0.158 HD
ATOM     12  H3  <0> d           4.423   1.165  -0.035  0.00  0.00     0.158 HD
ENDBRANCH   4  10
TORSDOF 2
