REMARK  3 active torsions:
REMARK  status: ('A' for Active; 'I' for Inactive)
REMARK    1  A    between atoms: N1_4  and  C5_6 
REMARK    2  A    between atoms: C5_6  and  C6_7 
REMARK    3  A    between atoms: C6_7  and  C7_8 
ROOT
ATOM      1  C1  <0> d          -0.169   5.548   1.635  0.00  0.00    -0.067 A 
ATOM      2  C2  <0> d          -1.396   5.535   0.942  0.00  0.00    -0.067 A 
ATOM      3  C3  <0> d          -1.730   4.245   0.737  0.00  0.00    -0.021 A 
ATOM      4  N1  <0> d          -0.754   3.461   1.277  0.00  0.00    -0.366 N 
ATOM      5  C4  <0> d           0.197   4.265   1.832  0.00  0.00    -0.021 A 
ATOM      6  H1  <0> d           0.376   6.425   1.954  0.00  0.00     0.085 H 
ATOM      7  H2  <0> d          -1.964   6.400   0.633  0.00  0.00     0.085 H 
ATOM      8  H3  <0> d          -2.617   3.894   0.231  0.00  0.00     0.111 H 
ATOM      9  H4  <0> d           1.090   3.932   2.339  0.00  0.00     0.111 H 
ENDROOT
BRANCH   4  10
ATOM     10  C5  <0> d          -0.735   1.996   1.269  0.00  0.00     0.008 C 
ATOM     11  H5  <0> d          -1.757   1.619   1.277  0.00  0.00     0.065 H 
ATOM     12  H6  <0> d          -0.207   1.635   2.152  0.00  0.00     0.065 H 
BRANCH  10  13
ATOM     13  C6  <0> d          -0.018   1.503   0.010  0.00  0.00     0.031 C 
ATOM     14  H7  <0> d           1.004   1.880   0.003  0.00  0.00     0.051 H 
ATOM     15  H8  <0> d          -0.545   1.864  -0.873  0.00  0.00     0.051 H 
BRANCH  13  16
ATOM     16  C7  <0> d           0.002  -0.004   0.002  0.00  0.00     0.174 C 
ATOM     17  O1  <0> d          -0.504  -0.620   0.910  0.00  0.00    -0.648 OA
ATOM     18  O2  <0> d           0.583  -0.662  -1.014  0.00  0.00    -0.648 OA
ENDBRANCH  13  16
ENDBRANCH  10  13
ENDBRANCH   4  10
TORSDOF 3
