REMARK  7 active torsions:
REMARK  status: ('A' for Active; 'I' for Inactive)
REMARK    1  A    between atoms: C1_1  and  O1_2 
REMARK    2  A    between atoms: O1_2  and  C2_3 
REMARK    3  A    between atoms: C2_3  and  C3_5 
REMARK    4  A    between atoms: C3_5  and  C4_6 
REMARK    5  A    between atoms: C4_6  and  C5_7 
REMARK    6  A    between atoms: C5_7  and  O4_9 
REMARK    7  A    between atoms: O4_9  and  C6_10 
ROOT
ATOM      1  C3  <0> d           0.679  -2.115   1.088  0.00  0.00     0.024 C 
ATOM      2  H4  <0> d          -0.334  -2.519   1.113  0.00  0.00     0.048 H 
ATOM      3  H5  <0> d           1.199  -2.493   0.208  0.00  0.00     0.048 H 
ENDROOT
BRANCH   1   4
ATOM      4  C2  <0> d           0.618  -0.611   1.029  0.00  0.00     0.258 C 
ATOM      5  O2  <0> d           1.124   0.049   1.905  0.00  0.00    -0.265 OA
BRANCH   4   6
ATOM      6  O1  <0> d           0.002  -0.004   0.002  0.00  0.00    -0.326 OA
BRANCH   6   7
ATOM      7  C1  <0> d          -0.017   1.425   0.010  0.00  0.00     0.013 C 
ATOM      8  H1  <0> d           1.005   1.802   0.002  0.00  0.00     0.067 H 
ATOM      9  H2  <0> d          -0.544   1.786  -0.873  0.00  0.00     0.067 H 
ATOM     10  H3  <0> d          -0.527   1.776   0.907  0.00  0.00     0.067 H 
ENDBRANCH   6   7
ENDBRANCH   4   6
ENDBRANCH   1   4
BRANCH   1  11
ATOM     11  C4  <0> d           1.430  -2.546   2.350  0.00  0.00     0.024 C 
ATOM     12  H6  <0> d           2.442  -2.142   2.325  0.00  0.00     0.048 H 
ATOM     13  H7  <0> d           0.910  -2.168   3.229  0.00  0.00     0.048 H 
BRANCH  11  14
ATOM     14  C5  <0> d           1.491  -4.051   2.409  0.00  0.00     0.258 C 
ATOM     15  O3  <0> d           0.985  -4.711   1.533  0.00  0.00    -0.265 OA
BRANCH  14  16
ATOM     16  O4  <0> d           2.107  -4.657   3.436  0.00  0.00    -0.326 OA
BRANCH  16  17
ATOM     17  C6  <0> d           2.126  -6.086   3.428  0.00  0.00     0.013 C 
ATOM     18  H8  <0> d           1.103  -6.463   3.436  0.00  0.00     0.067 H 
ATOM     19  H9  <0> d           2.636  -6.438   2.531  0.00  0.00     0.067 H 
ATOM     20  H10 <0> d           2.653  -6.447   4.311  0.00  0.00     0.067 H 
ENDBRANCH  16  17
ENDBRANCH  14  16
ENDBRANCH  11  14
ENDBRANCH   1  11
TORSDOF 7
