REMARK  7 active torsions:
REMARK  status: ('A' for Active; 'I' for Inactive)
REMARK    1  A    between atoms: C1_1  and  C2_2 
REMARK    2  A    between atoms: C2_2  and  C3_3 
REMARK    3  A    between atoms: C3_3  and  C4_4 
REMARK    4  A    between atoms: C4_4  and  C5_6 
REMARK    5  A    between atoms: C4_4  and  C6_7 
REMARK    6  A    between atoms: C6_7  and  C7_9 
REMARK    7  A    between atoms: C6_7  and  O1_10 
ROOT
ATOM      1  C4  <0> d           0.002  -0.004   0.002  0.00  0.00    -0.033 C 
ATOM      2  H1  <0> d          -1.020  -0.381   0.010  0.00  0.00     0.043 H 
ENDROOT
BRANCH   1   3
ATOM      3  C3  <0> d           0.718  -0.497  -1.257  0.00  0.00    -0.060 C 
ATOM      4  H8  <0> d           1.710  -0.049  -1.310  0.00  0.00     0.033 H 
ATOM      5  H9  <0> d           0.812  -1.583  -1.220  0.00  0.00     0.033 H 
BRANCH   3   6
ATOM      6  C2  <0> d          -0.089  -0.097  -2.493  0.00  0.00    -0.068 C 
ATOM      7  H6  <0> d          -1.081  -0.545  -2.440  0.00  0.00     0.032 H 
ATOM      8  H7  <0> d          -0.183   0.989  -2.530  0.00  0.00     0.032 H 
BRANCH   6   9
ATOM      9  C1  <0> d           0.627  -0.590  -3.752  0.00  0.00    -0.077 C 
ATOM     10  H3  <0> d           0.052  -0.305  -4.633  0.00  0.00     0.027 H 
ATOM     11  H4  <0> d           1.619  -0.142  -3.805  0.00  0.00     0.027 H 
ATOM     12  H5  <0> d           0.720  -1.676  -3.715  0.00  0.00     0.027 H 
ENDBRANCH   6   9
ENDBRANCH   3   6
ENDBRANCH   1   3
BRANCH   1  13
ATOM     13  C5  <0> d          -0.019   1.526   0.010  0.00  0.00    -0.071 C 
ATOM     14  H10 <0> d           1.004   1.903   0.003  0.00  0.00     0.028 H 
ATOM     15  H11 <0> d          -0.546   1.887  -0.873  0.00  0.00     0.028 H 
ATOM     16  H12 <0> d          -0.529   1.877   0.907  0.00  0.00     0.028 H 
ENDBRANCH   1  13
BRANCH   1  17
ATOM     17  C6  <0> d           0.742  -0.511   1.242  0.00  0.00     0.035 C 
ATOM     18  H2  <0> d           0.835  -1.596   1.191  0.00  0.00     0.082 H 
BRANCH  17  19
ATOM     19  C7  <0> d          -0.042  -0.124   2.497  0.00  0.00    -0.052 C 
ATOM     20  H13 <0> d          -1.034  -0.572   2.458  0.00  0.00     0.030 H 
ATOM     21  H14 <0> d           0.486  -0.485   3.380  0.00  0.00     0.030 H 
ATOM     22  H15 <0> d          -0.134   0.961   2.548  0.00  0.00     0.030 H 
ENDBRANCH  17  19
BRANCH  17  23
ATOM     23  O1  <0> d           2.044   0.076   1.292  0.00  0.00    -0.396 OA
ATOM     24  H16 <0> d           2.038   1.042   1.339  0.00  0.00     0.210 HD
ENDBRANCH  17  23
ENDBRANCH   1  17
TORSDOF 7
