REMARK  1 active torsions:
REMARK  status: ('A' for Active; 'I' for Inactive)
REMARK    1  A    between atoms: C5_6  and  C6_8 
ROOT
ATOM      1  C1  <0> d           2.395   1.325  -0.450  0.00  0.00    -0.035 C 
ATOM      2  C2  <0> d           1.164   2.112   0.002  0.00  0.00     0.015 C 
ATOM      3  N1  <0> d          -0.015   1.257   0.009  0.00  0.00    -0.306 NA
ATOM      4  C3  <0> d           0.002  -0.004   0.002  0.00  0.00    -0.023 C 
ATOM      5  C4  <0> d           1.250  -0.837  -0.028  0.00  0.00    -0.022 C 
ATOM      6  C5  <0> d           2.459   0.021   0.357  0.00  0.00     0.036 C 
ATOM      7  H1  <0> d           2.459   0.230   1.437  0.00  0.00     0.057 H 
ATOM      8  H2  <0> d           3.306   1.913  -0.269  0.00  0.00     0.036 H 
ATOM      9  H3  <0> d           2.318   1.089  -1.522  0.00  0.00     0.036 H 
ATOM     10  H4  <0> d           1.330   2.500   1.018  0.00  0.00     0.067 H 
ATOM     11  H5  <0> d           0.992   2.952  -0.687  0.00  0.00     0.067 H 
ATOM     12  H6  <0> d          -0.943  -0.567   0.018  0.00  0.00     0.107 H 
ATOM     13  H7  <0> d           1.154  -1.668   0.687  0.00  0.00     0.042 H 
ATOM     14  H8  <0> d           1.399  -1.240  -1.040  0.00  0.00     0.042 H 
ENDROOT
BRANCH   6  15
ATOM     15  C6  <0> d           3.732  -0.717   0.031  0.00  0.00     0.177 C 
ATOM     16  O1  <0> d           4.524  -0.241  -0.748  0.00  0.00    -0.648 OA
ATOM     17  O2  <0> d           3.985  -1.904   0.605  0.00  0.00    -0.648 OA
ENDBRANCH   6  15
TORSDOF 1
