REMARK  6 active torsions:
REMARK  status: ('A' for Active; 'I' for Inactive)
REMARK    1  A    between atoms: C1_1  and  C2_2 
REMARK    2  A    between atoms: C2_2  and  O1_3 
REMARK    3  A    between atoms: O1_3  and  C3_4 
REMARK    4  A    between atoms: C3_4  and  C4_6 
REMARK    5  A    between atoms: C4_6  and  C5_7 
REMARK    6  A    between atoms: C4_6  and  C6_8 
ROOT
ATOM      1  C4  <0> d          -0.018   1.468   0.010  0.00  0.00     0.129 C 
ATOM      2  C7  <0> d           0.002  -0.004   0.002  0.00  0.00     0.079 C 
ATOM      3  N1  <0> d           0.018  -1.140  -0.004  0.00  0.00    -0.196 NA
ENDROOT
BRANCH   1   4
ATOM      4  C3  <0> d           1.396   1.989  -0.001  0.00  0.00     0.281 C 
ATOM      5  O2  <0> d           2.325   1.217  -0.014  0.00  0.00    -0.263 OA
BRANCH   4   6
ATOM      6  O1  <0> d           1.623   3.312   0.004  0.00  0.00    -0.320 OA
BRANCH   6   7
ATOM      7  C2  <0> d           3.010   3.743  -0.007  0.00  0.00     0.025 C 
ATOM      8  H4  <0> d           3.518   3.355   0.876  0.00  0.00     0.074 H 
ATOM      9  H5  <0> d           3.501   3.365  -0.903  0.00  0.00     0.074 H 
BRANCH   7  10
ATOM     10  C1  <0> d           3.069   5.272   0.001  0.00  0.00    -0.056 C 
ATOM     11  H1  <0> d           4.110   5.595  -0.007  0.00  0.00     0.030 H 
ATOM     12  H2  <0> d           2.561   5.660  -0.882  0.00  0.00     0.030 H 
ATOM     13  H3  <0> d           2.578   5.650   0.898  0.00  0.00     0.030 H 
ENDBRANCH   7  10
ENDBRANCH   6   7
ENDBRANCH   4   6
ENDBRANCH   1   4
BRANCH   1  14
ATOM     14  C5  <0> d          -0.758   1.975  -1.229  0.00  0.00    -0.048 C 
ATOM     15  H6  <0> d          -1.780   1.597  -1.222  0.00  0.00     0.030 H 
ATOM     16  H7  <0> d          -0.773   3.064  -1.223  0.00  0.00     0.030 H 
ATOM     17  H8  <0> d          -0.248   1.623  -2.126  0.00  0.00     0.030 H 
ENDBRANCH   1  14
BRANCH   1  18
ATOM     18  C6  <0> d          -0.734   1.961   1.269  0.00  0.00    -0.048 C 
ATOM     19  H9  <0> d          -0.207   1.600   2.152  0.00  0.00     0.030 H 
ATOM     20  H10 <0> d          -0.749   3.051   1.275  0.00  0.00     0.030 H 
ATOM     21  H11 <0> d          -1.757   1.584   1.277  0.00  0.00     0.030 H 
ENDBRANCH   1  18
TORSDOF 6
