REMARK  2 active torsions:
REMARK  status: ('A' for Active; 'I' for Inactive)
REMARK    1  A    between atoms: C4_4  and  C7_7 
REMARK    2  A    between atoms: C8_8  and  C9_9 
ROOT
ATOM      1  C9  <0> d           5.887  -1.898  -0.065  0.00  0.00     0.001 C 
ATOM      2  C10 <0> d           6.913  -2.468  -0.079  0.00  0.00     0.027 C 
ATOM      3  C11 <0> d           8.117  -3.137  -0.094  0.00  0.00     0.153 C 
ATOM      4  N1  <0> d           9.110  -3.688  -0.107  0.00  0.00    -0.182 NA
ENDROOT
BRANCH   1   5
ATOM      5  C8  <0> d           4.683  -1.230  -0.050  0.00  0.00    -0.009 C 
ATOM      6  C7  <0> d           3.657  -0.660  -0.037  0.00  0.00    -0.053 C 
BRANCH   6   7
ATOM      7  C4  <0> d           2.405   0.035  -0.021  0.00  0.00     0.018 A 
ATOM      8  C3  <0> d           2.377   1.434  -0.013  0.00  0.00    -0.065 A 
ATOM      9  C2  <0> d           1.168   2.096   0.002  0.00  0.00    -0.082 A 
ATOM     10  H3  <0> d           3.301   1.994  -0.019  0.00  0.00     0.085 H 
ATOM     11  C1  <0> d          -0.017   1.380   0.010  0.00  0.00    -0.083 A 
ATOM     12  H2  <0> d           1.145   3.175   0.008  0.00  0.00     0.083 H 
ATOM     13  C6  <0> d           0.002  -0.004   0.002  0.00  0.00    -0.082 A 
ATOM     14  H1  <0> d          -0.961   1.904   0.026  0.00  0.00     0.083 H 
ATOM     15  C5  <0> d           1.203  -0.681  -0.013  0.00  0.00    -0.065 A 
ATOM     16  H5  <0> d          -0.927  -0.555   0.008  0.00  0.00     0.083 H 
ATOM     17  H4  <0> d           1.216  -1.761  -0.019  0.00  0.00     0.085 H 
ENDBRANCH   6   7
ENDBRANCH   1   5
TORSDOF 2
