REMARK  1 active torsions:
REMARK  status: ('A' for Active; 'I' for Inactive)
REMARK    1  A    between atoms: C1_1  and  C2_2 
ROOT
ATOM      1  C2  <0> d          -1.889   5.398   0.048  0.00  0.00     0.010 A 
ATOM      2  H1  <0> d          -2.233   5.907   0.948  0.00  0.00     0.072 H 
ATOM      3  C3  <0> d          -0.353   5.321   0.033  0.00  0.00    -0.021 A 
ATOM      4  C4  <0> d          -0.048   3.840   0.022  0.00  0.00    -0.030 A 
ATOM      5  C5  <0> d           1.157   3.163   0.007  0.00  0.00    -0.075 A 
ATOM      6  C6  <0> d           1.177   1.781   0.000  0.00  0.00    -0.082 A 
ATOM      7  C7  <0> d          -0.013   1.076   0.008  0.00  0.00    -0.081 A 
ATOM      8  C8  <0> d          -1.217   1.746   0.017  0.00  0.00    -0.057 A 
ATOM      9  C9  <0> d          -1.245   3.143   0.030  0.00  0.00     0.034 A 
ATOM     10  N1  <0> d          -2.343   4.005   0.045  0.00  0.00    -0.385 N 
ATOM     11  H5  <0> d           0.060   5.788   0.927  0.00  0.00     0.043 H 
ATOM     12  H6  <0> d           0.043   5.798  -0.864  0.00  0.00     0.043 H 
ATOM     13  H7  <0> d           2.085   3.716   0.001  0.00  0.00     0.084 H 
ATOM     14  H8  <0> d           2.119   1.253  -0.011  0.00  0.00     0.083 H 
ATOM     15  H9  <0> d           0.002  -0.004   0.002  0.00  0.00     0.083 H 
ATOM     16  H10 <0> d          -2.142   1.189   0.019  0.00  0.00     0.086 H 
ATOM     17  H11 <0> d          -3.271   3.723   0.052  0.00  0.00     0.160 HD
ENDROOT
BRANCH   1  18
ATOM     18  C1  <0> d          -2.396   6.124  -1.199  0.00  0.00    -0.057 C 
ATOM     19  H2  <0> d          -2.075   5.584  -2.090  0.00  0.00     0.030 H 
ATOM     20  H3  <0> d          -3.485   6.171  -1.175  0.00  0.00     0.030 H 
ATOM     21  H4  <0> d          -1.989   7.135  -1.222  0.00  0.00     0.030 H 
ENDBRANCH   1  18
TORSDOF 1
