REMARK  1 active torsions:
REMARK  status: ('A' for Active; 'I' for Inactive)
REMARK    1  A    between atoms: C2_2  and  C4_7 
ROOT
ATOM      1  C1  <0> d           1.369  -0.692  -0.015  0.00  0.00    -0.001 A 
ATOM      2  C2  <0> d           0.002  -0.004   0.002  0.00  0.00     0.083 A 
ATOM      3  H1  <0> d          -0.798  -0.488   0.562  0.00  0.00     0.064 H 
ATOM      4  C3  <0> d           0.494  -0.697  -1.270  0.00  0.00     0.193 A 
ATOM      5  F1  <0> d          -0.117  -1.903  -1.627  0.00  0.00    -0.225 F 
ATOM      6 Cl1  <0> d           1.005   0.352  -2.645  0.00  0.00    -0.082 Cl
ATOM      7  H2  <0> d           2.253  -0.055  -0.020  0.00  0.00     0.041 H 
ATOM      8  H3  <0> d           1.467  -1.629   0.534  0.00  0.00     0.041 H 
ENDROOT
BRANCH   2   9
ATOM      9  C4  <0> d          -0.018   1.503   0.010  0.00  0.00     0.181 C 
ATOM     10  O1  <0> d           1.020   2.121   0.004  0.00  0.00    -0.648 OA
ATOM     11  O2  <0> d          -1.190   2.158   0.019  0.00  0.00    -0.648 OA
ENDBRANCH   2   9
TORSDOF 1
