REMARK  4 active torsions:
REMARK  status: ('A' for Active; 'I' for Inactive)
REMARK    1  A    between atoms: C2_2  and  C3_3 
REMARK    2  A    between atoms: C3_3  and  C4_5 
REMARK    3  A    between atoms: C3_3  and  O2_7 
REMARK    4  A    between atoms: C4_5  and  O1_6 
ROOT
ATOM      1  C3  <0> d           1.145   3.085   0.008  0.00  0.00     0.071 C 
ATOM      2  H1  <0> d           0.516   3.397  -0.827  0.00  0.00     0.092 H 
ENDROOT
BRANCH   1   3
ATOM      3  C2  <0> d           2.506   3.717  -0.126  0.00  0.00    -0.083 C 
ATOM      4  C1  <0> d           2.767   4.504  -1.140  0.00  0.00    -0.122 C 
ATOM      5  H2  <0> d           3.743   4.957  -1.236  0.00  0.00     0.066 H 
ATOM      6  H3  <0> d           2.006   4.700  -1.881  0.00  0.00     0.066 H 
ATOM      7  H4  <0> d           3.268   3.521   0.615  0.00  0.00     0.079 H 
ENDBRANCH   1   3
BRANCH   1   8
ATOM      8  C4  <0> d           1.286   1.562  -0.002  0.00  0.00     0.043 C 
ATOM      9  H5  <0> d           1.840   1.243   0.881  0.00  0.00     0.078 H 
ATOM     10  H6  <0> d           1.823   1.252  -0.899  0.00  0.00     0.078 H 
BRANCH   8  11
ATOM     11  O1  <0> d          -0.011   0.963   0.007  0.00  0.00    -0.398 OA
ATOM     12  H7  <0> d           0.002  -0.004   0.002  0.00  0.00     0.209 HD
ENDBRANCH   8  11
ENDBRANCH   1   8
BRANCH   1  13
ATOM     13  O2  <0> d           0.546   3.500   1.237  0.00  0.00    -0.390 OA
ATOM     14  H8  <0> d           1.052   3.256   2.023  0.00  0.00     0.210 HD
ENDBRANCH   1  13
TORSDOF 4
