REMARK  2 active torsions:
REMARK  status: ('A' for Active; 'I' for Inactive)
REMARK    1  A    between atoms: C1_1  and  N1_2 
REMARK    2  A    between atoms: N1_2  and  C2_3 
ROOT
ATOM      1  C2  <0> d          -0.048   3.853   0.022  0.00  0.00     0.029 A 
ATOM      2  C3  <0> d           1.160   3.164   0.007  0.00  0.00    -0.058 A 
ATOM      3  C4  <0> d           1.173   1.782   0.000  0.00  0.00    -0.079 A 
ATOM      4  C5  <0> d          -0.013   1.076   0.008  0.00  0.00    -0.063 A 
ATOM      5  C6  <0> d          -1.231   1.758   0.017  0.00  0.00     0.046 A 
ATOM      6  C7  <0> d          -1.244   3.153   0.030  0.00  0.00    -0.037 A 
ATOM      7  C8  <0> d          -2.463   1.027   0.020  0.00  0.00     0.099 C 
ATOM      8  N2  <0> d          -3.440   0.448   0.022  0.00  0.00    -0.191 NA
ATOM      9  H5  <0> d           2.091   3.711   0.001  0.00  0.00     0.086 H 
ATOM     10  H6  <0> d           2.115   1.253  -0.011  0.00  0.00     0.083 H 
ATOM     11  H7  <0> d           0.002  -0.004   0.002  0.00  0.00     0.085 H 
ATOM     12  H8  <0> d          -2.184   3.686   0.042  0.00  0.00     0.089 H 
ENDROOT
BRANCH   1  13
ATOM     13  N1  <0> d          -0.056   5.250   0.030  0.00  0.00    -0.394 N 
ATOM     14  H4  <0> d          -1.011   5.794   0.042  0.00  0.00     0.159 HD
BRANCH  13  15
ATOM     15  C1  <0> d           1.209   5.989   0.022  0.00  0.00    -0.021 C 
ATOM     16  H1  <0> d           1.002   7.069   0.030  0.00  0.00     0.056 H 
ATOM     17  H2  <0> d           1.779   5.731  -0.883  0.00  0.00     0.056 H 
ATOM     18  H3  <0> d           1.796   5.722   0.914  0.00  0.00     0.056 H 
ENDBRANCH  13  15
ENDBRANCH   1  13
TORSDOF 2
