REMARK  6 active torsions:
REMARK  status: ('A' for Active; 'I' for Inactive)
REMARK    1  A    between atoms: C1_1  and  C2_2 
REMARK    2  A    between atoms: C2_2  and  C3_3 
REMARK    3  A    between atoms: C3_3  and  C4_4 
REMARK    4  A    between atoms: C4_4  and  C5_5 
REMARK    5  A    between atoms: C5_5  and  C6_7 
REMARK    6  A    between atoms: C6_7  and  C7_8 
ROOT
ATOM      1  C5  <0> d          -0.729   1.579   1.267  0.00  0.00     0.030 C 
ATOM      2  H1  <0> d          -0.822   2.665   1.230  0.00  0.00     0.062 H 
ATOM      3  C8  <0> d          -2.069   0.974   1.338  0.00  0.00     0.064 C 
ATOM      4  N1  <0> d          -3.103   0.506   1.394  0.00  0.00    -0.197 NA
ENDROOT
BRANCH   1   5
ATOM      5  C4  <0> d           0.079   1.179   2.503  0.00  0.00    -0.050 C 
ATOM      6  H9  <0> d           0.097   0.092   2.589  0.00  0.00     0.035 H 
ATOM      7  H10 <0> d           1.098   1.553   2.408  0.00  0.00     0.035 H 
BRANCH   5   8
ATOM      8  C3  <0> d          -0.570   1.778   3.752  0.00  0.00    -0.064 C 
ATOM      9  H7  <0> d          -0.588   2.864   3.667  0.00  0.00     0.033 H 
ATOM     10  H8  <0> d          -1.590   1.404   3.847  0.00  0.00     0.033 H 
BRANCH   8  11
ATOM     11  C2  <0> d           0.237   1.377   4.989  0.00  0.00    -0.069 C 
ATOM     12  H5  <0> d           0.255   0.291   5.074  0.00  0.00     0.032 H 
ATOM     13  H6  <0> d           1.257   1.751   4.894  0.00  0.00     0.032 H 
BRANCH  11  14
ATOM     14  C1  <0> d          -0.412   1.977   6.238  0.00  0.00    -0.077 C 
ATOM     15  H2  <0> d          -0.430   3.063   6.152  0.00  0.00     0.027 H 
ATOM     16  H3  <0> d          -1.431   1.603   6.333  0.00  0.00     0.027 H 
ATOM     17  H4  <0> d           0.164   1.691   7.119  0.00  0.00     0.027 H 
ENDBRANCH  11  14
ENDBRANCH   8  11
ENDBRANCH   5   8
ENDBRANCH   1   5
BRANCH   1  18
ATOM     18  C6  <0> d          -0.013   1.086   0.008  0.00  0.00    -0.053 C 
ATOM     19  H11 <0> d           0.002  -0.004   0.002  0.00  0.00     0.034 H 
ATOM     20  H12 <0> d           1.010   1.463   0.000  0.00  0.00     0.034 H 
BRANCH  18  21
ATOM     21  C7  <0> d          -0.753   1.593  -1.232  0.00  0.00    -0.075 C 
ATOM     22  H13 <0> d          -0.767   2.683  -1.226  0.00  0.00     0.027 H 
ATOM     23  H14 <0> d          -0.242   1.241  -2.128  0.00  0.00     0.027 H 
ATOM     24  H15 <0> d          -1.775   1.215  -1.224  0.00  0.00     0.027 H 
ENDBRANCH  18  21
ENDBRANCH   1  18
TORSDOF 6
