REMARK  0 active torsions:
REMARK  status: ('A' for Active; 'I' for Inactive)
ROOT
ATOM      1  C1  <0> d           1.194  -0.662  -0.013  0.00  0.00    -0.079 A 
ATOM      2  C2  <0> d           0.002  -0.004   0.002  0.00  0.00    -0.071 A 
ATOM      3  C3  <0> d          -0.017   1.400   0.010  0.00  0.00    -0.004 A 
ATOM      4  C4  <0> d          -1.229   2.116   0.019  0.00  0.00    -0.069 A 
ATOM      5  C5  <0> d          -1.170   3.481   0.031  0.00  0.00    -0.065 A 
ATOM      6  C6  <0> d           0.066   4.124   0.022  0.00  0.00     0.003 A 
ATOM      7  N1  <0> d           1.192   3.453   0.009  0.00  0.00    -0.257 NA
ATOM      8  C7  <0> d           1.205   2.117   0.002  0.00  0.00     0.105 A 
ATOM      9  C8  <0> d           2.418   1.402  -0.014  0.00  0.00     0.145 A 
ATOM     10  C9  <0> d           2.398   0.039  -0.021  0.00  0.00    -0.043 A 
ATOM     11  F1  <0> d           3.595   2.064  -0.022  0.00  0.00    -0.204 F 
ATOM     12  H1  <0> d           1.207  -1.742  -0.019  0.00  0.00     0.083 H 
ATOM     13  H2  <0> d          -0.924  -0.559   0.008  0.00  0.00     0.084 H 
ATOM     14  H3  <0> d          -2.178   1.601   0.021  0.00  0.00     0.085 H 
ATOM     15  H4  <0> d          -2.081   4.061   0.043  0.00  0.00     0.085 H 
ATOM     16  H5  <0> d           0.097   5.204   0.028  0.00  0.00     0.114 H 
ATOM     17  H6  <0> d           3.330  -0.506  -0.033  0.00  0.00     0.088 H 
ENDROOT
TORSDOF 0
