REMARK  5 active torsions:
REMARK  status: ('A' for Active; 'I' for Inactive)
REMARK    1  A    between atoms: C1_1  and  C2_2 
REMARK    2  A    between atoms: C2_2  and  O1_3 
REMARK    3  A    between atoms: O1_3  and  C3_4 
REMARK    4  A    between atoms: C3_4  and  C4_6 
REMARK    5  A    between atoms: C5_8  and  C6_11 
ROOT
ATOM      1  C3  <0> d           0.776  -1.798  -1.335  0.00  0.00     0.339 C 
ATOM      2  O2  <0> d           0.312  -2.549  -0.500  0.00  0.00    -0.255 OA
ENDROOT
BRANCH   1   3
ATOM      3  O1  <0> d           0.671  -0.465  -1.174  0.00  0.00    -0.315 OA
BRANCH   3   4
ATOM      4  C2  <0> d           0.002  -0.004   0.002  0.00  0.00     0.026 C 
ATOM      5  H4  <0> d           0.529  -0.365   0.885  0.00  0.00     0.074 H 
ATOM      6  H5  <0> d          -1.020  -0.381   0.010  0.00  0.00     0.074 H 
BRANCH   4   7
ATOM      7  C1  <0> d          -0.019   1.526   0.010  0.00  0.00    -0.056 C 
ATOM      8  H1  <0> d           1.004   1.903   0.003  0.00  0.00     0.030 H 
ATOM      9  H2  <0> d          -0.546   1.887  -0.873  0.00  0.00     0.030 H 
ATOM     10  H3  <0> d          -0.529   1.877   0.907  0.00  0.00     0.030 H 
ENDBRANCH   4   7
ENDBRANCH   3   4
ENDBRANCH   1   3
BRANCH   1  11
ATOM     11  C4  <0> d           1.457  -2.349  -2.530  0.00  0.00     0.272 A 
ATOM     12  O3  <0> d           2.010  -1.632  -3.524  0.00  0.00    -0.185 OA
ATOM     13  N2  <0> d           2.541  -2.576  -4.442  0.00  0.00    -0.111 NA
ATOM     14  C5  <0> d           2.274  -3.757  -3.960  0.00  0.00     0.152 A 
ATOM     15  N1  <0> d           1.620  -3.620  -2.806  0.00  0.00    -0.200 NA
BRANCH  14  16
ATOM     16  C6  <0> d           2.646  -5.068  -4.603  0.00  0.00    -0.017 C 
ATOM     17  H6  <0> d           1.841  -5.389  -5.265  0.00  0.00     0.038 H 
ATOM     18  H7  <0> d           3.562  -4.943  -5.180  0.00  0.00     0.038 H 
ATOM     19  H8  <0> d           2.803  -5.821  -3.830  0.00  0.00     0.038 H 
ENDBRANCH  14  16
ENDBRANCH   1  11
TORSDOF 5
