REMARK  3 active torsions:
REMARK  status: ('A' for Active; 'I' for Inactive)
REMARK    1  A    between atoms: C1_1  and  N1_2 
REMARK    2  A    between atoms: C3_4  and  N3_11 
REMARK    3  A    between atoms: N2_7  and  C6_10 
ROOT
ATOM      1  N1  <0> d          -1.114  -2.080   0.001  0.00  0.00    -0.312 N 
ATOM      2  C2  <0> d          -1.154  -0.706   0.015  0.00  0.00     0.014 A 
ATOM      3  C3  <0> d           0.002  -0.004   0.002  0.00  0.00     0.110 A 
ATOM      4  C4  <0> d           1.236  -0.708  -0.013  0.00  0.00     0.278 A 
ATOM      5  O1  <0> d           2.291  -0.100  -0.020  0.00  0.00    -0.265 OA
ATOM      6  N2  <0> d           1.228  -2.056  -0.021  0.00  0.00    -0.269 N 
ATOM      7  C5  <0> d           0.064  -2.730  -0.013  0.00  0.00     0.330 A 
ATOM      8  O2  <0> d           0.075  -3.946  -0.020  0.00  0.00    -0.246 OA
ATOM      9  H4  <0> d          -2.103  -0.191   0.032  0.00  0.00     0.115 H 
ENDROOT
BRANCH   1  10
ATOM     10  C1  <0> d          -2.365  -2.843   0.009  0.00  0.00    -0.010 C 
ATOM     11  H1  <0> d          -2.665  -3.037   1.039  0.00  0.00     0.057 H 
ATOM     12  H2  <0> d          -3.143  -2.269  -0.494  0.00  0.00     0.057 H 
ATOM     13  H3  <0> d          -2.216  -3.789  -0.511  0.00  0.00     0.057 H 
ENDBRANCH   1  10
BRANCH   6  14
ATOM     14  C6  <0> d           2.495  -2.792  -0.037  0.00  0.00    -0.007 C 
ATOM     15  H5  <0> d           3.325  -2.086  -0.042  0.00  0.00     0.057 H 
ATOM     16  H6  <0> d           2.560  -3.424   0.849  0.00  0.00     0.057 H 
ATOM     17  H7  <0> d           2.542  -3.414  -0.931  0.00  0.00     0.057 H 
ENDBRANCH   6  14
BRANCH   3  18
ATOM     18  N3  <0> d          -0.017   1.403   0.010  0.00  0.00    -0.394 N 
ATOM     19  H8  <0> d           0.816   1.899   0.004  0.00  0.00     0.156 HD
ATOM     20  H9  <0> d          -0.864   1.876   0.016  0.00  0.00     0.156 HD
ENDBRANCH   3  18
TORSDOF 3
