REMARK  5 active torsions:
REMARK  status: ('A' for Active; 'I' for Inactive)
REMARK    1  A    between atoms: C1_1  and  C2_2 
REMARK    2  A    between atoms: C5_6  and  C9_11 
REMARK    3  A    between atoms: C5_6  and  C10_12 
REMARK    4  A    between atoms: C6_7  and  C8_10 
REMARK    5  A    between atoms: C10_12  and  O1_13 
ROOT
ATOM      1  C2  <0> d          -0.013   1.086   0.008  0.00  0.00    -0.057 C 
ATOM      2  H1  <0> d           0.002  -0.004   0.002  0.00  0.00     0.039 H 
ATOM      3  C3  <0> d           1.423   1.615  -0.003  0.00  0.00    -0.061 C 
ATOM      4  C4  <0> d           2.163   1.109   1.237  0.00  0.00    -0.056 C 
ATOM      5  C5  <0> d           1.446   1.602   2.495  0.00  0.00    -0.019 C 
ATOM      6  C6  <0> d           0.011   1.072   2.506  0.00  0.00    -0.048 C 
ATOM      7  H2  <0> d          -0.499   1.424   3.403  0.00  0.00     0.040 H 
ATOM      8  C7  <0> d          -0.729   1.579   1.267  0.00  0.00    -0.058 C 
ATOM      9  H6  <0> d           1.933   1.264  -0.900  0.00  0.00     0.033 H 
ATOM     10  H7  <0> d           1.408   2.705   0.003  0.00  0.00     0.033 H 
ATOM     11  H8  <0> d           2.178   0.019   1.231  0.00  0.00     0.034 H 
ATOM     12  H9  <0> d           3.185   1.486   1.229  0.00  0.00     0.034 H 
ATOM     13  H10 <0> d          -0.744   2.669   1.273  0.00  0.00     0.034 H 
ATOM     14  H11 <0> d          -1.751   1.202   1.275  0.00  0.00     0.034 H 
ENDROOT
BRANCH   5  15
ATOM     15  C9  <0> d           1.426   3.132   2.504  0.00  0.00    -0.067 C 
ATOM     16  H15 <0> d           0.899   3.493   1.621  0.00  0.00     0.028 H 
ATOM     17  H16 <0> d           0.916   3.483   3.401  0.00  0.00     0.028 H 
ATOM     18  H17 <0> d           2.448   3.509   2.496  0.00  0.00     0.028 H 
ENDBRANCH   5  15
BRANCH   5  19
ATOM     19  C10 <0> d           2.187   1.095   3.735  0.00  0.00     0.024 C 
ATOM     20  H18 <0> d           1.676   1.447   4.632  0.00  0.00     0.075 H 
ATOM     21  H19 <0> d           2.201   0.005   3.729  0.00  0.00     0.075 H 
BRANCH  19  22
ATOM     22  O1  <0> d           3.527   1.590   3.725  0.00  0.00    -0.400 OA
ATOM     23  H20 <0> d           4.056   1.307   4.483  0.00  0.00     0.209 HD
ENDBRANCH  19  22
ENDBRANCH   5  19
BRANCH   6  24
ATOM     24  C8  <0> d           0.032  -0.457   2.498  0.00  0.00    -0.072 C 
ATOM     25  H12 <0> d           0.559  -0.819   3.381  0.00  0.00     0.028 H 
ATOM     26  H13 <0> d          -0.991  -0.835   2.506  0.00  0.00     0.028 H 
ATOM     27  H14 <0> d           0.542  -0.809   1.601  0.00  0.00     0.028 H 
ENDBRANCH   6  24
BRANCH   1  28
ATOM     28  C1  <0> d          -0.753   1.593  -1.232  0.00  0.00    -0.073 C 
ATOM     29  H3  <0> d          -0.242   1.241  -2.128  0.00  0.00     0.028 H 
ATOM     30  H4  <0> d          -1.775   1.215  -1.224  0.00  0.00     0.028 H 
ATOM     31  H5  <0> d          -0.767   2.683  -1.226  0.00  0.00     0.028 H 
ENDBRANCH   1  28
TORSDOF 5
