REMARK  1 active torsions:
REMARK  status: ('A' for Active; 'I' for Inactive)
REMARK    1  A    between atoms: C4_4  and  C7_7 
ROOT
ATOM      1  C7  <0> d          -1.382   3.833  -2.347  0.00  0.00     0.035 C 
ATOM      2  C8  <0> d          -0.153   4.235  -3.049  0.00  0.00     0.063 C 
ATOM      3  N1  <0> d           0.796   4.546  -3.592  0.00  0.00    -0.197 NA
ATOM      4  H10 <0> d          -1.983   3.199  -2.999  0.00  0.00     0.061 H 
ATOM      5  H11 <0> d          -1.953   4.721  -2.077  0.00  0.00     0.061 H 
ENDROOT
BRANCH   1   6
ATOM      6  C4  <0> d          -1.020   3.070  -1.099  0.00  0.00    -0.071 C 
ATOM      7  C3  <0> d          -0.761   1.597  -1.225  0.00  0.00    -0.044 C 
ATOM      8  C2  <0> d          -0.013   1.086   0.008  0.00  0.00    -0.061 C 
ATOM      9  H5  <0> d          -0.160   1.411  -2.115  0.00  0.00     0.039 H 
ATOM     10  H6  <0> d          -1.712   1.071  -1.314  0.00  0.00     0.039 H 
ATOM     11  C1  <0> d          -0.739   1.585   1.264  0.00  0.00    -0.062 C 
ATOM     12  H3  <0> d           0.002  -0.004   0.002  0.00  0.00     0.033 H 
ATOM     13  H4  <0> d           1.009   1.466   0.000  0.00  0.00     0.033 H 
ATOM     14  C6  <0> d          -0.595   3.106   1.335  0.00  0.00    -0.050 C 
ATOM     15  H1  <0> d          -1.796   1.323   1.204  0.00  0.00     0.033 H 
ATOM     16  H2  <0> d          -0.295   1.130   2.149  0.00  0.00     0.033 H 
ATOM     17  C5  <0> d          -0.952   3.725   0.015  0.00  0.00    -0.100 C 
ATOM     18  H8  <0> d           0.436   3.356   1.584  0.00  0.00     0.038 H 
ATOM     19  H9  <0> d          -1.258   3.495   2.108  0.00  0.00     0.038 H 
ATOM     20  H7  <0> d          -1.166   4.784  -0.006  0.00  0.00     0.077 H 
ENDBRANCH   1   6
TORSDOF 1
