REMARK  3 active torsions:
REMARK  status: ('A' for Active; 'I' for Inactive)
REMARK    1  A    between atoms: C1_1  and  C2_2 
REMARK    2  A    between atoms: C2_2  and  C3_3 
REMARK    3  A    between atoms: C3_3  and  C4_4 
ROOT
ATOM      1  C3  <0> d           0.742  -0.511   1.242  0.00  0.00    -0.002 C 
ATOM      2  H6  <0> d           1.765  -0.134   1.234  0.00  0.00     0.045 H 
ATOM      3  H7  <0> d           0.232  -0.159   2.138  0.00  0.00     0.045 H 
ENDROOT
BRANCH   1   4
ATOM      4  C2  <0> d           0.002  -0.004   0.002  0.00  0.00    -0.061 C 
ATOM      5  H4  <0> d          -1.020  -0.381   0.010  0.00  0.00     0.033 H 
ATOM      6  H5  <0> d           0.512  -0.356  -0.895  0.00  0.00     0.033 H 
BRANCH   4   7
ATOM      7  C1  <0> d          -0.019   1.526   0.010  0.00  0.00    -0.076 C 
ATOM      8  H1  <0> d           1.004   1.903   0.003  0.00  0.00     0.027 H 
ATOM      9  H2  <0> d          -0.546   1.887  -0.873  0.00  0.00     0.027 H 
ATOM     10  H3  <0> d          -0.529   1.877   0.907  0.00  0.00     0.027 H 
ENDBRANCH   4   7
ENDBRANCH   1   4
BRANCH   1  11
ATOM     11  C4  <0> d           0.762  -2.018   1.233  0.00  0.00     0.168 A 
ATOM     12  O1  <0> d          -0.159  -2.828   1.779  0.00  0.00    -0.286 OA
ATOM     13  C5  <0> d           0.251  -4.085   1.538  0.00  0.00     0.126 A 
ATOM     14  N2  <0> d           1.374  -4.010   0.882  0.00  0.00    -0.136 NA
ATOM     15  H8  <0> d          -0.256  -4.991   1.836  0.00  0.00     0.158 H 
ATOM     16  N1  <0> d           1.680  -2.773   0.700  0.00  0.00    -0.128 NA
ENDBRANCH   1  11
TORSDOF 3
