REMARK  6 active torsions:
REMARK  status: ('A' for Active; 'I' for Inactive)
REMARK    1  A    between atoms: C1_1  and  O1_2 
REMARK    2  A    between atoms: O1_2  and  C2_3 
REMARK    3  A    between atoms: C2_3  and  C3_5 
REMARK    4  A    between atoms: C3_5  and  C4_6 
REMARK    5  A    between atoms: C4_6  and  S1_7 
REMARK    6  A    between atoms: S1_7  and  O4_9 
ROOT
ATOM      1  C3  <0> d           2.326   1.751  -1.361  0.00  0.00     0.028 C 
ATOM      2  H4  <0> d           1.747   2.246  -2.155  0.00  0.00     0.049 H 
ATOM      3  H5  <0> d           2.335   0.665  -1.535  0.00  0.00     0.049 H 
ENDROOT
BRANCH   1   4
ATOM      4  C2  <0> d           3.740   2.273  -1.371  0.00  0.00     0.259 C 
ATOM      5  O2  <0> d           4.189   2.823  -0.394  0.00  0.00    -0.265 OA
BRANCH   4   6
ATOM      6  O1  <0> d           4.501   2.126  -2.467  0.00  0.00    -0.326 OA
BRANCH   6   7
ATOM      7  C1  <0> d           5.853   2.653  -2.406  0.00  0.00     0.013 C 
ATOM      8  H1  <0> d           6.362   2.467  -3.363  0.00  0.00     0.067 H 
ATOM      9  H2  <0> d           6.404   2.155  -1.595  0.00  0.00     0.067 H 
ATOM     10  H3  <0> d           5.816   3.736  -2.214  0.00  0.00     0.067 H 
ENDBRANCH   6   7
ENDBRANCH   4   6
ENDBRANCH   1   4
BRANCH   1  11
ATOM     11  C4  <0> d           1.685   2.045  -0.003  0.00  0.00     0.036 C 
ATOM     12  H6  <0> d           2.264   1.550   0.791  0.00  0.00     0.056 H 
ATOM     13  H7  <0> d           1.676   3.131   0.172  0.00  0.00     0.056 H 
BRANCH  11  14
ATOM     14  S1  <0> d          -0.017   1.417   0.010  0.00  0.00     0.150 S 
ATOM     15  O3  <0> d           0.002  -0.004   0.002  0.00  0.00    -0.229 OA
BRANCH  14  16
ATOM     16  O4  <0> d          -0.530   1.770   1.399  0.00  0.00    -0.306 OA
ATOM     17  H8  <0> d          -1.556   1.503   1.691  0.00  0.00     0.230 HD
ENDBRANCH  14  16
ENDBRANCH  11  14
ENDBRANCH   1  11
TORSDOF 6
