REMARK  2 active torsions:
REMARK  status: ('A' for Active; 'I' for Inactive)
REMARK    1  A    between atoms: C1_1  and  N1_2 
REMARK    2  A    between atoms: C4_6  and  C5_7 
ROOT
ATOM      1  N1  <0> d          -0.017   1.363   0.009  0.00  0.00    -0.339 N 
ATOM      2  C2  <0> d           1.272   1.779  -0.001  0.00  0.00    -0.002 A 
ATOM      3  C3  <0> d           2.051   0.669  -0.014  0.00  0.00     0.020 A 
ATOM      4  N2  <0> d           1.258  -0.400  -0.012  0.00  0.00    -0.236 NA
ATOM      5  C4  <0> d           0.002  -0.004   0.002  0.00  0.00     0.207 A 
ATOM      6  H4  <0> d           1.615   2.803   0.001  0.00  0.00     0.113 H 
ATOM      7  H5  <0> d           3.131   0.655  -0.025  0.00  0.00     0.117 H 
ENDROOT
BRANCH   1   8
ATOM      8  C1  <0> d          -1.207   2.217   0.020  0.00  0.00    -0.013 C 
ATOM      9  H1  <0> d          -1.497   2.423   1.050  0.00  0.00     0.057 H 
ATOM     10  H2  <0> d          -0.986   3.155  -0.490  0.00  0.00     0.057 H 
ATOM     11  H3  <0> d          -2.023   1.708  -0.492  0.00  0.00     0.057 H 
ENDBRANCH   1   8
BRANCH   5  12
ATOM     12  C5  <0> d          -1.179  -0.883   0.008  0.00  0.00     0.247 C 
ATOM     13  O1  <0> d          -2.295  -0.401   0.021  0.00  0.00    -0.642 OA
ATOM     14  O2  <0> d          -1.023  -2.222  -0.001  0.00  0.00    -0.642 OA
ENDBRANCH   5  12
TORSDOF 2
