REMARK  2 active torsions:
REMARK  status: ('A' for Active; 'I' for Inactive)
REMARK    1  A    between atoms: C1_1  and  N1_2 
REMARK    2  A    between atoms: C4_5  and  C5_7 
ROOT
ATOM      1  N1  <0> d          -0.711   3.144   0.025  0.00  0.00    -0.285 N 
ATOM      2  C2  <0> d          -1.117   1.857   0.017  0.00  0.00     0.000 A 
ATOM      3  C3  <0> d          -0.013   1.076   0.008  0.00  0.00    -0.032 A 
ATOM      4  C4  <0> d           1.107   1.914   0.002  0.00  0.00     0.162 A 
ATOM      5  N2  <0> d           0.690   3.154   0.012  0.00  0.00    -0.169 NA
ATOM      6  H4  <0> d          -2.141   1.512   0.019  0.00  0.00     0.114 H 
ATOM      7  H5  <0> d           0.002  -0.004   0.002  0.00  0.00     0.089 H 
ENDROOT
BRANCH   1   8
ATOM      8  C1  <0> d          -1.581   4.322   0.039  0.00  0.00     0.002 C 
ATOM      9  H1  <0> d          -1.807   4.620  -0.985  0.00  0.00     0.059 H 
ATOM     10  H2  <0> d          -2.509   4.083   0.560  0.00  0.00     0.059 H 
ATOM     11  H3  <0> d          -1.077   5.141   0.553  0.00  0.00     0.059 H 
ENDBRANCH   1   8
BRANCH   4  12
ATOM     12  C5  <0> d           2.546   1.466  -0.013  0.00  0.00     0.436 C 
ATOM     13  F1  <0> d           2.979   1.334  -1.337  0.00  0.00    -0.165 F 
ATOM     14  F2  <0> d           3.337   2.415   0.643  0.00  0.00    -0.165 F 
ATOM     15  F3  <0> d           2.658   0.234   0.639  0.00  0.00    -0.165 F 
ENDBRANCH   4  12
TORSDOF 2
