REMARK  1 active torsions:
REMARK  status: ('A' for Active; 'I' for Inactive)
REMARK    1  A    between atoms: C1_1  and  C2_2 
ROOT
ATOM      1  C2  <0> d           1.373  -0.297  -0.647  0.00  0.00     0.009 C 
ATOM      2  H1  <0> d           1.820  -1.185  -0.201  0.00  0.00     0.071 H 
ATOM      3  C3  <0> d           0.002  -0.004   0.002  0.00  0.00    -0.039 C 
ATOM      4  C4  <0> d          -0.019   1.542   0.011  0.00  0.00     0.011 C 
ATOM      5  C5  <0> d           1.442   1.933  -0.001  0.00  0.00     0.217 C 
ATOM      6  O1  <0> d           1.869   3.033   0.278  0.00  0.00    -0.274 OA
ATOM      7  N1  <0> d           2.199   0.884  -0.367  0.00  0.00    -0.357 N 
ATOM      8  H5  <0> d          -0.042  -0.400   1.016  0.00  0.00     0.036 H 
ATOM      9  H6  <0> d          -0.811  -0.402  -0.606  0.00  0.00     0.036 H 
ATOM     10  H7  <0> d          -0.523   1.922  -0.878  0.00  0.00     0.047 H 
ATOM     11  H8  <0> d          -0.505   1.912   0.913  0.00  0.00     0.047 H 
ATOM     12  H9  <0> d           3.166   0.904  -0.438  0.00  0.00     0.162 HD
ENDROOT
BRANCH   1  13
ATOM     13  C1  <0> d           1.214  -0.487  -2.157  0.00  0.00    -0.057 C 
ATOM     14  H2  <0> d           0.799   0.421  -2.595  0.00  0.00     0.030 H 
ATOM     15  H3  <0> d           2.188  -0.692  -2.602  0.00  0.00     0.030 H 
ATOM     16  H4  <0> d           0.543  -1.323  -2.349  0.00  0.00     0.030 H 
ENDBRANCH   1  13
TORSDOF 1
