REMARK  0 active torsions:
REMARK  status: ('A' for Active; 'I' for Inactive)
ROOT
ATOM      1  C1  <0> d           1.422   2.026  -0.001  0.00  0.00    -0.021 C 
ATOM      2  C2  <0> d           1.501   2.812   1.326  0.00  0.00     0.030 C 
ATOM      3  O1  <0> d           0.392   2.311   2.130  0.00  0.00    -0.320 OA
ATOM      4  C3  <0> d          -0.618   1.981   1.303  0.00  0.00     0.276 C 
ATOM      5  O2  <0> d          -1.796   2.077   1.549  0.00  0.00    -0.264 OA
ATOM      6  C4  <0> d          -0.018   1.468   0.010  0.00  0.00     0.116 C 
ATOM      7  H1  <0> d          -0.578   1.844  -0.846  0.00  0.00     0.078 H 
ATOM      8  C5  <0> d           0.002  -0.004   0.002  0.00  0.00     0.074 C 
ATOM      9  N1  <0> d           0.018  -1.140  -0.004  0.00  0.00    -0.196 NA
ATOM     10  H2  <0> d           2.150   1.214  -0.011  0.00  0.00     0.038 H 
ATOM     11  H3  <0> d           1.572   2.690  -0.852  0.00  0.00     0.038 H 
ATOM     12  H4  <0> d           2.450   2.616   1.826  0.00  0.00     0.075 H 
ATOM     13  H5  <0> d           1.385   3.880   1.140  0.00  0.00     0.075 H 
ENDROOT
TORSDOF 0
