REMARK  5 active torsions:
REMARK  status: ('A' for Active; 'I' for Inactive)
REMARK    1  A    between atoms: C1_1  and  C2_2 
REMARK    2  A    between atoms: C2_2  and  C3_4 
REMARK    3  A    between atoms: C2_2  and  N1_8 
REMARK    4  A    between atoms: C3_4  and  O2_6 
REMARK    5  A    between atoms: O2_6  and  C4_7 
ROOT
ATOM      1  C2  <0> d          -1.201   2.202   0.020  0.00  0.00     0.115 C 
ATOM      2  H1  <0> d          -0.944   3.167   0.458  0.00  0.00     0.091 H 
ENDROOT
BRANCH   1   3
ATOM      3  C1  <0> d          -1.694   2.408  -1.413  0.00  0.00    -0.047 C 
ATOM      4  H2  <0> d          -0.908   2.878  -2.004  0.00  0.00     0.031 H 
ATOM      5  H3  <0> d          -1.950   1.444  -1.852  0.00  0.00     0.031 H 
ATOM      6  H4  <0> d          -2.575   3.050  -1.406  0.00  0.00     0.031 H 
ENDBRANCH   1   3
BRANCH   1   7
ATOM      7  C3  <0> d          -2.288   1.552   0.837  0.00  0.00     0.283 C 
ATOM      8  O1  <0> d          -2.093   0.479   1.357  0.00  0.00    -0.263 OA
BRANCH   7   9
ATOM      9  O2  <0> d          -3.472   2.166   0.987  0.00  0.00    -0.325 OA
BRANCH   9  10
ATOM     10  C4  <0> d          -4.472   1.481   1.786  0.00  0.00     0.013 C 
ATOM     11  H5  <0> d          -4.698   0.514   1.337  0.00  0.00     0.067 H 
ATOM     12  H6  <0> d          -4.090   1.332   2.796  0.00  0.00     0.067 H 
ATOM     13  H7  <0> d          -5.380   2.084   1.827  0.00  0.00     0.067 H 
ENDBRANCH   9  10
ENDBRANCH   7   9
ENDBRANCH   1   7
BRANCH   1  14
ATOM     14  N1  <0> d          -0.016   1.340   0.009  0.00  0.00    -0.248 N 
ATOM     15  N3  <0> d           1.326   1.754  -0.001  0.00  0.00    -0.164 NA
ATOM     16  C6  <0> d           2.055   0.669  -0.014  0.00  0.00     0.107 A 
ATOM     17  N2  <0> d           1.251  -0.393  -0.012  0.00  0.00    -0.234 NA
ATOM     18  H9  <0> d           3.135   0.639  -0.024  0.00  0.00     0.149 H 
ATOM     19  C5  <0> d           0.002  -0.004   0.002  0.00  0.00     0.085 A 
ATOM     20  H8  <0> d          -0.863  -0.650   0.006  0.00  0.00     0.146 H 
ENDBRANCH   1  14
TORSDOF 5
