REMARK  1 active torsions:
REMARK  status: ('A' for Active; 'I' for Inactive)
REMARK    1  A    between atoms: C1_1  and  C2_2 
ROOT
ATOM      1  C2  <0> d          -1.156   3.412   0.032  0.00  0.00     0.072 A 
ATOM      2  N1  <0> d          -1.167   2.103   0.019  0.00  0.00    -0.235 NA
ATOM      3  C3  <0> d          -0.017   1.428   0.010  0.00  0.00     0.144 A 
ATOM      4  C4  <0> d           1.146   2.155   0.003  0.00  0.00    -0.005 A 
ATOM      5  S1  <0> d           0.539   3.780   0.017  0.00  0.00    -0.084 SA
ATOM      6  C5  <0> d           0.002  -0.004   0.002  0.00  0.00     0.120 C 
ATOM      7  N2  <0> d           0.018  -1.140  -0.004  0.00  0.00    -0.190 NA
ATOM      8  H4  <0> d           2.168   1.807  -0.009  0.00  0.00     0.099 H 
ENDROOT
BRANCH   1   9
ATOM      9  C1  <0> d          -2.325   4.362   0.047  0.00  0.00    -0.029 C 
ATOM     10  H1  <0> d          -1.958   5.389   0.050  0.00  0.00     0.036 H 
ATOM     11  H2  <0> d          -2.939   4.198  -0.838  0.00  0.00     0.036 H 
ATOM     12  H3  <0> d          -2.923   4.188   0.942  0.00  0.00     0.036 H 
ENDBRANCH   1   9
TORSDOF 1
