REMARK  1 active torsions:
REMARK  status: ('A' for Active; 'I' for Inactive)
REMARK    1  A    between atoms: C1_1  and  C2_2 
ROOT
ATOM      1  C2  <0> d           0.990   5.889   0.026  0.00  0.00     0.031 A 
ATOM      2  C3  <0> d           2.243   5.279   0.011  0.00  0.00    -0.059 A 
ATOM      3  C4  <0> d           2.337   3.916   0.001  0.00  0.00    -0.069 A 
ATOM      4  C5  <0> d           1.145   3.168   0.008  0.00  0.00    -0.007 A 
ATOM      5  C6  <0> d           1.162   1.764   0.000  0.00  0.00    -0.071 A 
ATOM      6  C7  <0> d          -0.013   1.076   0.008  0.00  0.00    -0.082 A 
ATOM      7  C8  <0> d          -1.234   1.747   0.017  0.00  0.00    -0.081 A 
ATOM      8  C9  <0> d          -1.288   3.107   0.031  0.00  0.00    -0.054 A 
ATOM      9  C10 <0> d          -0.096   3.852   0.024  0.00  0.00     0.067 A 
ATOM     10  N1  <0> d          -0.118   5.189   0.032  0.00  0.00    -0.253 NA
ATOM     11  H4  <0> d           3.138   5.882   0.007  0.00  0.00     0.086 H 
ATOM     12  H5  <0> d           3.299   3.426  -0.011  0.00  0.00     0.085 H 
ATOM     13  H6  <0> d           2.103   1.232  -0.011  0.00  0.00     0.084 H 
ATOM     14  H7  <0> d           0.002  -0.004   0.002  0.00  0.00     0.083 H 
ATOM     15  H8  <0> d          -2.152   1.179   0.019  0.00  0.00     0.083 H 
ATOM     16  H9  <0> d          -2.243   3.611   0.042  0.00  0.00     0.087 H 
ENDROOT
BRANCH   1  17
ATOM     17  C1  <0> d           0.907   7.393   0.036  0.00  0.00    -0.035 C 
ATOM     18  H1  <0> d           0.896   7.750   1.066  0.00  0.00     0.035 H 
ATOM     19  H2  <0> d           1.771   7.808  -0.483  0.00  0.00     0.035 H 
ATOM     20  H3  <0> d          -0.006   7.710  -0.468  0.00  0.00     0.035 H 
ENDBRANCH   1  17
TORSDOF 1
