REMARK  4 active torsions:
REMARK  status: ('A' for Active; 'I' for Inactive)
REMARK    1  A    between atoms: C1_1  and  C2_2 
REMARK    2  A    between atoms: C3_3  and  N3_12 
REMARK    3  A    between atoms: C4_5  and  O2_10 
REMARK    4  A    between atoms: O2_10  and  C6_11 
ROOT
ATOM      1  C2  <0> d          -1.238   3.026   0.030  0.00  0.00     0.052 A 
ATOM      2  C3  <0> d          -1.216   1.640   0.017  0.00  0.00     0.137 A 
ATOM      3  N1  <0> d          -2.368   0.957   0.018  0.00  0.00    -0.191 NA
ATOM      4  C4  <0> d          -3.526   1.578   0.027  0.00  0.00     0.250 A 
ATOM      5  N2  <0> d          -3.603   2.934   0.035  0.00  0.00    -0.287 N 
ATOM      6  H1  <0> d          -4.469   3.369   0.042  0.00  0.00     0.172 HD
ATOM      7  C5  <0> d          -2.476   3.677   0.034  0.00  0.00     0.258 A 
ATOM      8  O1  <0> d          -2.537   4.897   0.041  0.00  0.00    -0.267 OA
ENDROOT
BRANCH   4   9
ATOM      9  O2  <0> d          -4.663   0.852   0.029  0.00  0.00    -0.325 OA
BRANCH   9  10
ATOM     10  C6  <0> d          -4.523  -0.593   0.020  0.00  0.00     0.013 C 
ATOM     11  H5  <0> d          -3.981  -0.900  -0.874  0.00  0.00     0.067 H 
ATOM     12  H6  <0> d          -3.972  -0.910   0.906  0.00  0.00     0.067 H 
ATOM     13  H7  <0> d          -5.511  -1.054   0.022  0.00  0.00     0.067 H 
ENDBRANCH   9  10
ENDBRANCH   4   9
BRANCH   2  14
ATOM     14  N3  <0> d          -0.011   0.966   0.007  0.00  0.00    -0.383 N 
ATOM     15  H8  <0> d           0.002  -0.004   0.002  0.00  0.00     0.157 HD
ATOM     16  H9  <0> d           0.822   1.462   0.002  0.00  0.00     0.157 HD
ENDBRANCH   2  14
BRANCH   1  17
ATOM     17  C1  <0> d           0.046   3.816   0.035  0.00  0.00    -0.042 C 
ATOM     18  H2  <0> d           0.353   4.016  -0.992  0.00  0.00     0.034 H 
ATOM     19  H3  <0> d          -0.110   4.759   0.558  0.00  0.00     0.034 H 
ATOM     20  H4  <0> d           0.823   3.243   0.541  0.00  0.00     0.034 H 
ENDBRANCH   1  17
TORSDOF 4
