REMARK  4 active torsions:
REMARK  status: ('A' for Active; 'I' for Inactive)
REMARK    1  A    between atoms: C1_1  and  C2_2 
REMARK    2  A    between atoms: C2_2  and  O1_3 
REMARK    3  A    between atoms: O1_3  and  C3_4 
REMARK    4  A    between atoms: C3_4  and  C4_6 
ROOT
ATOM      1  C3  <0> d           2.547   1.347  -0.015  0.00  0.00     0.300 C 
ATOM      2  O2  <0> d           2.786   0.154  -0.023  0.00  0.00    -0.259 OA
ENDROOT
BRANCH   1   3
ATOM      3  O1  <0> d           3.561   2.237  -0.020  0.00  0.00    -0.317 OA
BRANCH   3   4
ATOM      4  C2  <0> d           4.910   1.701  -0.035  0.00  0.00     0.026 C 
ATOM      5  H4  <0> d           5.066   1.085   0.850  0.00  0.00     0.074 H 
ATOM      6  H5  <0> d           5.049   1.094  -0.929  0.00  0.00     0.074 H 
BRANCH   4   7
ATOM      7  C1  <0> d           5.917   2.853  -0.039  0.00  0.00    -0.056 C 
ATOM      8  H1  <0> d           5.761   3.469  -0.924  0.00  0.00     0.030 H 
ATOM      9  H2  <0> d           5.777   3.460   0.856  0.00  0.00     0.030 H 
ATOM     10  H3  <0> d           6.929   2.450  -0.050  0.00  0.00     0.030 H 
ENDBRANCH   4   7
ENDBRANCH   3   4
ENDBRANCH   1   3
BRANCH   1  11
ATOM     11  C4  <0> d           1.161   1.816   0.001  0.00  0.00     0.080 A 
ATOM     12  S1  <0> d           0.539   3.488   0.016  0.00  0.00    -0.096 SA
ATOM     13  C7  <0> d          -1.158   3.135   0.030  0.00  0.00    -0.044 A 
ATOM     14  C6  <0> d          -1.192   1.776   0.017  0.00  0.00    -0.075 A 
ATOM     15  H8  <0> d          -1.987   3.827   0.041  0.00  0.00     0.095 H 
ATOM     16  C5  <0> d          -0.013   1.076   0.008  0.00  0.00    -0.060 A 
ATOM     17  H7  <0> d          -2.138   1.253   0.019  0.00  0.00     0.084 H 
ATOM     18  H6  <0> d           0.002  -0.004   0.002  0.00  0.00     0.085 H 
ENDBRANCH   1  11
TORSDOF 4
