REMARK  5 active torsions:
REMARK  status: ('A' for Active; 'I' for Inactive)
REMARK    1  A    between atoms: C1_1  and  C2_2 
REMARK    2  A    between atoms: C5_5  and  C8_9 
REMARK    3  A    between atoms: C8_9  and  C9_10 
REMARK    4  A    between atoms: C8_9  and  C10_11 
REMARK    5  A    between atoms: C8_9  and  O1_12 
ROOT
ATOM      1  C2  <0> d           0.002  -0.004   0.002  0.00  0.00    -0.087 C 
ATOM      2  C3  <0> d           0.005  -0.605  -1.145  0.00  0.00    -0.101 C 
ATOM      3  C4  <0> d           0.034  -2.096  -1.313  0.00  0.00    -0.044 C 
ATOM      4  C5  <0> d          -0.364  -2.781  -0.004  0.00  0.00    -0.022 C 
ATOM      5  H1  <0> d          -1.425  -2.623   0.185  0.00  0.00     0.044 H 
ATOM      6  C6  <0> d           0.460  -2.168   1.135  0.00  0.00    -0.055 C 
ATOM      7  C7  <0> d           0.024  -0.715   1.324  0.00  0.00    -0.045 C 
ATOM      8  H5  <0> d          -0.016   0.005  -2.036  0.00  0.00     0.077 H 
ATOM      9  H6  <0> d          -0.664  -2.384  -2.098  0.00  0.00     0.039 H 
ATOM     10  H7  <0> d           1.040  -2.408  -1.593  0.00  0.00     0.039 H 
ATOM     11  H8  <0> d           0.286  -2.726   2.055  0.00  0.00     0.034 H 
ATOM     12  H9  <0> d           1.519  -2.199   0.879  0.00  0.00     0.034 H 
ATOM     13  H10 <0> d           0.721  -0.210   1.993  0.00  0.00     0.039 H 
ATOM     14  H11 <0> d          -0.974  -0.695   1.761  0.00  0.00     0.039 H 
ENDROOT
BRANCH   4  15
ATOM     15  C8  <0> d          -0.077  -4.281  -0.101  0.00  0.00     0.054 C 
BRANCH  15  16
ATOM     16  C9  <0> d          -0.786  -4.857  -1.329  0.00  0.00    -0.048 C 
ATOM     17  H12 <0> d          -0.421  -4.358  -2.227  0.00  0.00     0.031 H 
ATOM     18  H13 <0> d          -0.582  -5.926  -1.399  0.00  0.00     0.031 H 
ATOM     19  H14 <0> d          -1.861  -4.697  -1.236  0.00  0.00     0.031 H 
ENDBRANCH  15  16
BRANCH  15  20
ATOM     20  C10 <0> d           1.431  -4.505  -0.232  0.00  0.00    -0.048 C 
ATOM     21  H15 <0> d           1.935  -4.095   0.643  0.00  0.00     0.031 H 
ATOM     22  H16 <0> d           1.635  -5.574  -0.301  0.00  0.00     0.031 H 
ATOM     23  H17 <0> d           1.796  -4.006  -1.129  0.00  0.00     0.031 H 
ENDBRANCH  15  20
BRANCH  15  24
ATOM     24  O1  <0> d          -0.556  -4.935   1.075  0.00  0.00    -0.390 OA
ATOM     25  H18 <0> d          -1.507  -4.835   1.222  0.00  0.00     0.210 HD
ENDBRANCH  15  24
ENDBRANCH   4  15
BRANCH   1  26
ATOM     26  C1  <0> d          -0.018   1.503   0.010  0.00  0.00    -0.055 C 
ATOM     27  H2  <0> d           1.004   1.880   0.003  0.00  0.00     0.033 H 
ATOM     28  H3  <0> d          -0.545   1.864  -0.873  0.00  0.00     0.033 H 
ATOM     29  H4  <0> d          -0.529   1.854   0.907  0.00  0.00     0.033 H 
ENDBRANCH   1  26
TORSDOF 5
