REMARK  3 active torsions:
REMARK  status: ('A' for Active; 'I' for Inactive)
REMARK    1  A    between atoms: C2_2  and  C3_3 
REMARK    2  A    between atoms: C3_3  and  N1_4 
REMARK    3  A    between atoms: C4_6  and  N5_9 
ROOT
ATOM      1  N1  <0> d          -2.146   1.365  -1.112  0.00  0.00    -0.150 N 
ATOM      2  N2  <0> d          -3.061   0.299  -1.110  0.00  0.00     0.041 NA
ATOM      3  C4  <0> d          -3.566   0.255  -2.325  0.00  0.00     0.758 A 
ATOM      4  N3  <0> d          -2.998   1.232  -3.032  0.00  0.00     0.065 NA
ATOM      5  N4  <0> d          -2.166   1.879  -2.294  0.00  0.00    -0.031 NA
ENDROOT
BRANCH   1   6
ATOM      6  C3  <0> d          -1.328   1.812   0.018  0.00  0.00     0.051 C 
ATOM      7  H4  <0> d          -1.857   1.603   0.960  0.00  0.00     0.076 H 
ATOM      8  H5  <0> d          -1.144   2.893  -0.067  0.00  0.00     0.076 H 
BRANCH   6   9
ATOM      9  C2  <0> d          -0.013   1.076   0.008  0.00  0.00    -0.091 C 
ATOM     10  C1  <0> d           1.113   1.746   0.001  0.00  0.00    -0.123 C 
ATOM     11  H1  <0> d           2.073   1.209  -0.007  0.00  0.00     0.066 H 
ATOM     12  H2  <0> d           1.098   2.846   0.002  0.00  0.00     0.066 H 
ATOM     13  H3  <0> d           0.002  -0.024   0.007  0.00  0.00     0.078 H 
ENDBRANCH   6   9
ENDBRANCH   1   6
BRANCH   3  14
ATOM     14  N5  <0> d          -4.523  -0.651  -2.789  0.00  0.00    -0.228 N 
ATOM     15  H6  <0> d          -4.875  -0.594  -3.830  0.00  0.00     0.174 HD
ATOM     16  H7  <0> d          -4.925  -1.420  -2.114  0.00  0.00     0.174 HD
ENDBRANCH   3  14
TORSDOF 3
