REMARK  5 active torsions:
REMARK  status: ('A' for Active; 'I' for Inactive)
REMARK    1  A    between atoms: C1_1  and  C2_2 
REMARK    2  A    between atoms: C2_2  and  O1_3 
REMARK    3  A    between atoms: O1_3  and  C3_4 
REMARK    4  A    between atoms: C5_6  and  C9_11 
REMARK    5  A    between atoms: C8_9  and  O2_10 
ROOT
ATOM      1  C3  <0> d          -0.148   1.182   2.380  0.00  0.00     0.102 A 
ATOM      2  C4  <0> d           0.993   0.398   2.422  0.00  0.00    -0.042 A 
ATOM      3  C5  <0> d           1.534   0.028   3.639  0.00  0.00    -0.059 A 
ATOM      4  C6  <0> d           0.938   0.438   4.817  0.00  0.00    -0.074 A 
ATOM      5  C7  <0> d          -0.201   1.221   4.783  0.00  0.00    -0.048 A 
ATOM      6  C8  <0> d          -0.745   1.600   3.566  0.00  0.00     0.099 A 
ATOM      7  H6  <0> d           1.461   0.076   1.503  0.00  0.00     0.088 H 
ATOM      8  H7  <0> d           1.363   0.147   5.766  0.00  0.00     0.084 H 
ATOM      9  H8  <0> d          -0.665   1.540   5.705  0.00  0.00     0.087 H 
ENDROOT
BRANCH   1  10
ATOM     10  O1  <0> d          -0.682   1.547   1.184  0.00  0.00    -0.349 OA
BRANCH  10  11
ATOM     11  C2  <0> d          -0.013   1.086   0.008  0.00  0.00     0.023 C 
ATOM     12  H4  <0> d           0.002  -0.004   0.002  0.00  0.00     0.074 H 
ATOM     13  H5  <0> d           1.010   1.463   0.000  0.00  0.00     0.074 H 
BRANCH  11  14
ATOM     14  C1  <0> d          -0.753   1.593  -1.232  0.00  0.00    -0.056 C 
ATOM     15  H1  <0> d          -0.767   2.683  -1.226  0.00  0.00     0.030 H 
ATOM     16  H2  <0> d          -0.242   1.241  -2.128  0.00  0.00     0.030 H 
ATOM     17  H3  <0> d          -1.775   1.215  -1.224  0.00  0.00     0.030 H 
ENDBRANCH  11  14
ENDBRANCH  10  11
ENDBRANCH   1  10
BRANCH   6  18
ATOM     18  O2  <0> d          -1.862   2.374   3.531  0.00  0.00    -0.358 OA
ATOM     19  H9  <0> d          -2.689   1.872   3.523  0.00  0.00     0.217 HD
ENDBRANCH   6  18
BRANCH   3  20
ATOM     20  C9  <0> d           2.776  -0.825   3.682  0.00  0.00    -0.051 C 
ATOM     21  H10 <0> d           3.657  -0.183   3.692  0.00  0.00     0.033 H 
ATOM     22  H11 <0> d           2.764  -1.439   4.583  0.00  0.00     0.033 H 
ATOM     23  H12 <0> d           2.805  -1.469   2.804  0.00  0.00     0.033 H 
ENDBRANCH   3  20
TORSDOF 5
