REMARK  1 active torsions:
REMARK  status: ('A' for Active; 'I' for Inactive)
REMARK    1  A    between atoms: C1_1  and  C2_2 
ROOT
ATOM      1  C2  <0> d           0.002  -0.004   0.002  0.00  0.00    -0.041 C 
ATOM      2  H1  <0> d          -1.021  -0.379   0.010  0.00  0.00     0.045 H 
ATOM      3  C3  <0> d           0.713  -0.495  -1.261  0.00  0.00    -0.059 C 
ATOM      4  C4  <0> d           0.953  -2.004  -1.127  0.00  0.00    -0.061 C 
ATOM      5  C5  <0> d           1.973  -2.234  -0.010  0.00  0.00    -0.050 C 
ATOM      6  C6  <0> d           1.573  -1.471   1.219  0.00  0.00    -0.106 C 
ATOM      7  C7  <0> d           0.723  -0.498   1.222  0.00  0.00    -0.102 C 
ATOM      8  H5  <0> d           0.088  -0.299  -2.133  0.00  0.00     0.033 H 
ATOM      9  H6  <0> d           1.667   0.021  -1.368  0.00  0.00     0.033 H 
ATOM     10  H7  <0> d           0.017  -2.503  -0.878  0.00  0.00     0.033 H 
ATOM     11  H8  <0> d           1.344  -2.397  -2.066  0.00  0.00     0.033 H 
ATOM     12  H9  <0> d           2.019  -3.298   0.224  0.00  0.00     0.038 H 
ATOM     13  H10 <0> d           2.955  -1.896  -0.341  0.00  0.00     0.038 H 
ATOM     14  H11 <0> d           2.027  -1.752   2.159  0.00  0.00     0.076 H 
ATOM     15  H12 <0> d           0.516  -0.012   2.164  0.00  0.00     0.076 H 
ENDROOT
BRANCH   1  16
ATOM     16  C1  <0> d          -0.019   1.526   0.010  0.00  0.00    -0.070 C 
ATOM     17  H2  <0> d           1.004   1.903   0.003  0.00  0.00     0.028 H 
ATOM     18  H3  <0> d          -0.546   1.887  -0.873  0.00  0.00     0.028 H 
ATOM     19  H4  <0> d          -0.529   1.877   0.907  0.00  0.00     0.028 H 
ENDBRANCH   1  16
TORSDOF 1
