REMARK  2 active torsions:
REMARK  status: ('A' for Active; 'I' for Inactive)
REMARK    1  A    between atoms: C1_1  and  C2_2 
REMARK    2  A    between atoms: C7_7  and  C8_8 
ROOT
ATOM      1  C2  <0> d           1.177   1.782   0.000  0.00  0.00    -0.056 A 
ATOM      2  C3  <0> d          -0.013   1.076   0.008  0.00  0.00    -0.075 A 
ATOM      3  C4  <0> d          -1.217   1.748   0.017  0.00  0.00    -0.062 A 
ATOM      4  C5  <0> d          -1.234   3.144   0.030  0.00  0.00     0.045 A 
ATOM      5  C6  <0> d          -0.030   3.850   0.023  0.00  0.00    -0.057 A 
ATOM      6  C7  <0> d           1.168   3.166   0.007  0.00  0.00    -0.055 A 
ATOM      7  C9  <0> d          -2.481   3.848   0.046  0.00  0.00     0.099 C 
ATOM      8  N1  <0> d          -3.470   4.406   0.058  0.00  0.00    -0.191 NA
ATOM      9  H4  <0> d           0.002  -0.004   0.002  0.00  0.00     0.084 H 
ATOM     10  H5  <0> d          -2.145   1.195   0.019  0.00  0.00     0.085 H 
ATOM     11  H6  <0> d          -0.036   4.930   0.028  0.00  0.00     0.086 H 
ENDROOT
BRANCH   6  12
ATOM     12  C8  <0> d           2.469   3.927  -0.001  0.00  0.00    -0.051 C 
ATOM     13  H7  <0> d           2.772   4.115  -1.030  0.00  0.00     0.033 H 
ATOM     14  H8  <0> d           2.338   4.876   0.519  0.00  0.00     0.033 H 
ATOM     15  H9  <0> d           3.236   3.339   0.503  0.00  0.00     0.033 H 
ENDBRANCH   6  12
BRANCH   1  16
ATOM     16  C1  <0> d           2.490   1.042  -0.016  0.00  0.00    -0.051 C 
ATOM     17  H1  <0> d           2.796   0.868  -1.048  0.00  0.00     0.033 H 
ATOM     18  H2  <0> d           3.248   1.635   0.494  0.00  0.00     0.033 H 
ATOM     19  H3  <0> d           2.373   0.085   0.494  0.00  0.00     0.033 H 
ENDBRANCH   1  16
TORSDOF 2
