REMARK  3 active torsions:
REMARK  status: ('A' for Active; 'I' for Inactive)
REMARK    1  A    between atoms: C1_1  and  C2_2 
REMARK    2  A    between atoms: C4_5  and  O2_10 
REMARK    3  A    between atoms: O2_10  and  C7_11 
ROOT
ATOM      1  C2  <0> d           0.002  -0.004   0.002  0.00  0.00    -0.035 C 
ATOM      2  H1  <0> d          -1.020  -0.381   0.010  0.00  0.00     0.045 H 
ATOM      3  C3  <0> d           0.720  -0.498  -1.259  0.00  0.00    -0.013 C 
ATOM      4  C4  <0> d           2.223  -0.240  -1.086  0.00  0.00     0.136 C 
ATOM      5  H2  <0> d           2.395   0.820  -0.902  0.00  0.00     0.129 H 
ATOM      6  O1  <0> d           2.683  -1.004   0.033  0.00  0.00    -0.333 OA
ATOM      7  C5  <0> d           1.959  -0.945   1.172  0.00  0.00     0.012 C 
ATOM      8  C6  <0> d           0.730  -0.503   1.221  0.00  0.00    -0.078 C 
ATOM      9  H6  <0> d           0.542  -1.566  -1.388  0.00  0.00     0.041 H 
ATOM     10  H7  <0> d           0.351   0.045  -2.129  0.00  0.00     0.041 H 
ATOM     11  H8  <0> d           2.419  -1.280   2.090  0.00  0.00     0.122 H 
ATOM     12  H9  <0> d           0.218  -0.494   2.171  0.00  0.00     0.080 H 
ENDROOT
BRANCH   4  13
ATOM     13  O2  <0> d           2.920  -0.645  -2.266  0.00  0.00    -0.366 OA
BRANCH  13  14
ATOM     14  C7  <0> d           4.316  -0.341  -2.249  0.00  0.00     0.007 C 
ATOM     15  H10 <0> d           4.452   0.736  -2.148  0.00  0.00     0.066 H 
ATOM     16  H11 <0> d           4.788  -0.847  -1.407  0.00  0.00     0.066 H 
ATOM     17  H12 <0> d           4.773  -0.679  -3.179  0.00  0.00     0.066 H 
ENDBRANCH  13  14
ENDBRANCH   4  13
BRANCH   1  18
ATOM     18  C1  <0> d          -0.019   1.526   0.010  0.00  0.00    -0.069 C 
ATOM     19  H3  <0> d           1.004   1.903   0.003  0.00  0.00     0.028 H 
ATOM     20  H4  <0> d          -0.546   1.887  -0.873  0.00  0.00     0.028 H 
ATOM     21  H5  <0> d          -0.529   1.877   0.907  0.00  0.00     0.028 H 
ENDBRANCH   1  18
TORSDOF 3
