REMARK  0 active torsions:
REMARK  status: ('A' for Active; 'I' for Inactive)
ROOT
ATOM      1  C1  <0> d          -1.223   1.742   0.017  0.00  0.00    -0.045 A 
ATOM      2  C2  <0> d          -0.013   1.076   0.008  0.00  0.00     0.003 A 
ATOM      3  N1  <0> d           1.125   1.743   0.001  0.00  0.00    -0.273 NA
ATOM      4  C3  <0> d           1.157   3.062   0.007  0.00  0.00     0.003 A 
ATOM      5  C4  <0> d          -0.013   3.797   0.023  0.00  0.00    -0.045 A 
ATOM      6  C5  <0> d          -1.230   3.130   0.031  0.00  0.00     0.036 A 
ATOM      7 Cl1  <0> d          -2.726   4.011   0.049  0.00  0.00    -0.084 Cl
ATOM      8  H1  <0> d          -2.151   1.190   0.019  0.00  0.00     0.088 H 
ATOM      9  H2  <0> d           0.002  -0.004   0.002  0.00  0.00     0.114 H 
ATOM     10  H3  <0> d           2.108   3.573   0.001  0.00  0.00     0.114 H 
ATOM     11  H4  <0> d           0.020   4.876   0.028  0.00  0.00     0.088 H 
ENDROOT
TORSDOF 0
