REMARK  4 active torsions:
REMARK  status: ('A' for Active; 'I' for Inactive)
REMARK    1  A    between atoms: C5_6  and  C6_7 
REMARK    2  A    between atoms: C5_6  and  C7_9 
REMARK    3  A    between atoms: C6_7  and  O2_8 
REMARK    4  A    between atoms: C7_9  and  O3_10 
ROOT
ATOM      1  C1  <0> d          -0.019   1.528   0.010  0.00  0.00    -0.034 C 
ATOM      2  C2  <0> d           1.420   2.050  -0.001  0.00  0.00     0.020 C 
ATOM      3  O1  <0> d           2.124   1.527   1.128  0.00  0.00    -0.391 OA
ATOM      4  C3  <0> d           2.216   0.101   1.149  0.00  0.00     0.020 C 
ATOM      5  C4  <0> d           0.809  -0.499   1.206  0.00  0.00    -0.034 C 
ATOM      6  C5  <0> d           0.002  -0.004   0.002  0.00  0.00     0.006 C 
ATOM      7  H1  <0> d          -0.527   1.880   0.908  0.00  0.00     0.037 H 
ATOM      8  H2  <0> d          -0.544   1.890  -0.873  0.00  0.00     0.037 H 
ATOM      9  H3  <0> d           1.916   1.731  -0.917  0.00  0.00     0.074 H 
ATOM     10  H4  <0> d           1.412   3.139   0.049  0.00  0.00     0.074 H 
ATOM     11  H5  <0> d           2.722  -0.243   0.247  0.00  0.00     0.074 H 
ATOM     12  H6  <0> d           2.782  -0.214   2.026  0.00  0.00     0.074 H 
ATOM     13  H7  <0> d           0.876  -1.587   1.177  0.00  0.00     0.037 H 
ATOM     14  H8  <0> d           0.318  -0.188   2.127  0.00  0.00     0.037 H 
ENDROOT
BRANCH   6  15
ATOM     15  C6  <0> d          -1.430  -0.536   0.092  0.00  0.00     0.026 C 
ATOM     16  H9  <0> d          -1.890  -0.184   1.015  0.00  0.00     0.075 H 
ATOM     17  H10 <0> d          -2.005  -0.176  -0.761  0.00  0.00     0.075 H 
BRANCH  15  18
ATOM     18  O2  <0> d          -1.409  -1.965   0.084  0.00  0.00    -0.400 OA
ATOM     19  H11 <0> d          -2.284  -2.371   0.139  0.00  0.00     0.209 HD
ENDBRANCH  15  18
ENDBRANCH   6  15
BRANCH   6  20
ATOM     20  C7  <0> d           0.654  -0.500  -1.290  0.00  0.00     0.026 C 
ATOM     21  H12 <0> d           0.083  -0.140  -2.146  0.00  0.00     0.075 H 
ATOM     22  H13 <0> d           1.675  -0.123  -1.350  0.00  0.00     0.075 H 
BRANCH  20  23
ATOM     23  O3  <0> d           0.672  -1.929  -1.297  0.00  0.00    -0.400 OA
ATOM     24  H14 <0> d           1.073  -2.313  -2.088  0.00  0.00     0.209 HD
ENDBRANCH  20  23
ENDBRANCH   6  20
TORSDOF 4
