REMARK  3 active torsions:
REMARK  status: ('A' for Active; 'I' for Inactive)
REMARK    1  A    between atoms: C1_1  and  C2_2 
REMARK    2  A    between atoms: C4_5  and  C8_11 
REMARK    3  A    between atoms: C6_8  and  O1_10 
ROOT
ATOM      1  C2  <0> d          -0.729   1.579   1.267  0.00  0.00    -0.055 C 
ATOM      2  H1  <0> d          -1.751   1.202   1.275  0.00  0.00     0.039 H 
ATOM      3  C3  <0> d           0.011   1.072   2.506  0.00  0.00    -0.059 C 
ATOM      4  C4  <0> d          -0.705   1.566   3.765  0.00  0.00    -0.055 C 
ATOM      5  H2  <0> d          -0.178   1.205   4.648  0.00  0.00     0.039 H 
ATOM      6  C5  <0> d          -0.726   3.096   3.774  0.00  0.00    -0.038 C 
ATOM      7  C6  <0> d          -1.466   3.603   2.534  0.00  0.00     0.036 C 
ATOM      8  C7  <0> d          -0.750   3.109   1.275  0.00  0.00    -0.038 C 
ATOM      9  H6  <0> d           0.026  -0.018   2.500  0.00  0.00     0.034 H 
ATOM     10  H7  <0> d           1.034   1.450   2.499  0.00  0.00     0.034 H 
ATOM     11  H8  <0> d          -1.236   3.447   4.670  0.00  0.00     0.037 H 
ATOM     12  H9  <0> d           0.297   3.473   3.766  0.00  0.00     0.037 H 
ATOM     13  H10 <0> d          -2.488   3.225   2.542  0.00  0.00     0.082 H 
ATOM     14  H11 <0> d           0.273   3.486   1.268  0.00  0.00     0.037 H 
ATOM     15  H12 <0> d          -1.277   3.470   0.392  0.00  0.00     0.037 H 
ENDROOT
BRANCH   1  16
ATOM     16  C1  <0> d          -0.013   1.086   0.008  0.00  0.00    -0.073 C 
ATOM     17  H3  <0> d           0.002  -0.004   0.002  0.00  0.00     0.028 H 
ATOM     18  H4  <0> d           1.010   1.463   0.000  0.00  0.00     0.028 H 
ATOM     19  H5  <0> d          -0.540   1.447  -0.875  0.00  0.00     0.028 H 
ENDBRANCH   1  16
BRANCH   7  20
ATOM     20  O1  <0> d          -1.485   5.031   2.542  0.00  0.00    -0.396 OA
ATOM     21  H13 <0> d          -1.939   5.423   1.783  0.00  0.00     0.210 HD
ENDBRANCH   7  20
BRANCH   4  22
ATOM     22  C8  <0> d          -2.140   1.036   3.776  0.00  0.00    -0.073 C 
ATOM     23  H14 <0> d          -2.126  -0.054   3.770  0.00  0.00     0.028 H 
ATOM     24  H15 <0> d          -2.651   1.388   4.673  0.00  0.00     0.028 H 
ATOM     25  H16 <0> d          -2.668   1.397   2.893  0.00  0.00     0.028 H 
ENDBRANCH   4  22
TORSDOF 3
