REMARK  3 active torsions:
REMARK  status: ('A' for Active; 'I' for Inactive)
REMARK    1  A    between atoms: C1_1  and  C2_2 
REMARK    2  A    between atoms: C2_2  and  C7_10 
REMARK    3  A    between atoms: C4_6  and  C5_8 
ROOT
ATOM      1  C2  <0> d           1.385   1.747  -0.002  0.00  0.00     0.137 A 
ATOM      2  C3  <0> d           2.174   0.452  -0.016  0.00  0.00     0.295 A 
ATOM      3  O1  <0> d           3.376   0.321  -0.028  0.00  0.00    -0.262 OA
ATOM      4  O2  <0> d           1.243  -0.520  -0.013  0.00  0.00    -0.258 OA
ATOM      5  C4  <0> d           0.002  -0.004   0.002  0.00  0.00     0.168 A 
ATOM      6  N1  <0> d          -0.015   1.293   0.009  0.00  0.00    -0.246 NA
ENDROOT
BRANCH   1   7
ATOM      7  C1  <0> d           1.676   2.570  -1.259  0.00  0.00    -0.042 C 
ATOM      8  H1  <0> d           1.030   3.448  -1.276  0.00  0.00     0.031 H 
ATOM      9  H2  <0> d           2.719   2.885  -1.254  0.00  0.00     0.031 H 
ATOM     10  H3  <0> d           1.485   1.962  -2.143  0.00  0.00     0.031 H 
ENDBRANCH   1   7
BRANCH   1  11
ATOM     11  C7  <0> d           1.700   2.556   1.258  0.00  0.00    -0.042 C 
ATOM     12  H7  <0> d           1.526   1.939   2.139  0.00  0.00     0.031 H 
ATOM     13  H8  <0> d           2.743   2.872   1.236  0.00  0.00     0.031 H 
ATOM     14  H9  <0> d           1.055   3.434   1.297  0.00  0.00     0.031 H 
ENDBRANCH   1  11
BRANCH   5  15
ATOM     15  C5  <0> d          -1.217  -0.830   0.010  0.00  0.00    -0.041 C 
ATOM     16  C6  <0> d          -1.122  -2.155   0.002  0.00  0.00    -0.117 C 
ATOM     17  H5  <0> d          -0.151  -2.627  -0.011  0.00  0.00     0.066 H 
ATOM     18  H6  <0> d          -2.017  -2.761   0.007  0.00  0.00     0.066 H 
ATOM     19  H4  <0> d          -2.189  -0.358   0.022  0.00  0.00     0.088 H 
ENDBRANCH   5  15
TORSDOF 3
