REMARK  3 active torsions:
REMARK  status: ('A' for Active; 'I' for Inactive)
REMARK    1  A    between atoms: C1_1  and  C2_2 
REMARK    2  A    between atoms: C2_2  and  C3_3 
REMARK    3  A    between atoms: C2_2  and  C4_4 
ROOT
ATOM      1  C2  <0> d           0.002  -0.004   0.002  0.00  0.00     0.024 C 
ATOM      2  H4  <0> d           0.529  -0.365   0.885  0.00  0.00     0.055 H 
ENDROOT
BRANCH   1   3
ATOM      3  C1  <0> d          -1.433  -0.534   0.013  0.00  0.00    -0.064 C 
ATOM      4  H1  <0> d          -1.960  -0.173  -0.870  0.00  0.00     0.028 H 
ATOM      5  H2  <0> d          -1.419  -1.623   0.007  0.00  0.00     0.028 H 
ATOM      6  H3  <0> d          -1.944  -0.182   0.910  0.00  0.00     0.028 H 
ENDBRANCH   1   3
BRANCH   1   7
ATOM      7  C3  <0> d           0.718  -0.497  -1.257  0.00  0.00    -0.064 C 
ATOM      8  H5  <0> d           0.733  -1.587  -1.263  0.00  0.00     0.028 H 
ATOM      9  H6  <0> d           0.191  -0.136  -2.140  0.00  0.00     0.028 H 
ATOM     10  H7  <0> d           1.741  -0.120  -1.264  0.00  0.00     0.028 H 
ENDBRANCH   1   7
BRANCH   1  11
ATOM     11  C4  <0> d          -0.018   1.503   0.010  0.00  0.00     0.176 C 
ATOM     12  O1  <0> d          -1.073   2.093   0.018  0.00  0.00    -0.648 OA
ATOM     13  O2  <0> d           1.135   2.190   0.003  0.00  0.00    -0.648 OA
ENDBRANCH   1  11
TORSDOF 3
