REMARK  3 active torsions:
REMARK  status: ('A' for Active; 'I' for Inactive)
REMARK    1  A    between atoms: C1_1  and  C2_2 
REMARK    2  A    between atoms: C2_2  and  O2_4 
REMARK    3  A    between atoms: O2_4  and  C3_5 
ROOT
ATOM      1  C3  <0> d          -0.019   1.534   0.011  0.00  0.00     0.158 C 
ATOM      2  C4  <0> d           1.453   1.995  -0.001  0.00  0.00    -0.023 C 
ATOM      3  C5  <0> d           2.232   0.792   0.586  0.00  0.00    -0.061 C 
ATOM      4  C6  <0> d           1.486  -0.425  -0.014  0.00  0.00    -0.061 C 
ATOM      5  C7  <0> d           0.002  -0.004   0.002  0.00  0.00    -0.023 C 
ATOM      6  C8  <0> d          -0.691   2.023   1.226  0.00  0.00     0.098 C 
ATOM      7  N1  <0> d          -1.209   2.400   2.164  0.00  0.00    -0.194 NA
ATOM      8  H4  <0> d           1.781   2.201  -1.020  0.00  0.00     0.038 H 
ATOM      9  H5  <0> d           1.582   2.877   0.627  0.00  0.00     0.038 H 
ATOM     10  H6  <0> d           2.169   0.786   1.675  0.00  0.00     0.033 H 
ATOM     11  H7  <0> d           3.273   0.806   0.262  0.00  0.00     0.033 H 
ATOM     12  H8  <0> d           1.639  -1.309   0.604  0.00  0.00     0.033 H 
ATOM     13  H9  <0> d           1.819  -0.610  -1.036  0.00  0.00     0.033 H 
ATOM     14  H10 <0> d          -0.485  -0.389   0.898  0.00  0.00     0.038 H 
ATOM     15  H11 <0> d          -0.502  -0.379  -0.888  0.00  0.00     0.038 H 
ENDROOT
BRANCH   1  16
ATOM     16  O2  <0> d          -0.704   2.029  -1.170  0.00  0.00    -0.295 OA
BRANCH  16  17
ATOM     17  C2  <0> d          -0.803   3.361  -1.304  0.00  0.00     0.256 C 
ATOM     18  O1  <0> d          -0.333   4.090  -0.463  0.00  0.00    -0.266 OA
BRANCH  17  19
ATOM     19  C1  <0> d          -1.501   3.948  -2.504  0.00  0.00     0.004 C 
ATOM     20  H1  <0> d          -1.856   3.143  -3.147  0.00  0.00     0.041 H 
ATOM     21  H2  <0> d          -2.348   4.550  -2.174  0.00  0.00     0.041 H 
ATOM     22  H3  <0> d          -0.804   4.575  -3.059  0.00  0.00     0.041 H 
ENDBRANCH  17  19
ENDBRANCH  16  17
ENDBRANCH   1  16
TORSDOF 3
