REMARK  0 active torsions:
REMARK  status: ('A' for Active; 'I' for Inactive)
REMARK       I    between atoms: N1_4  and  C5_6 
REMARK       I    between atoms: C5_6  and  N2_8 
ROOT
ATOM      1  C1  <0> d          -2.664   3.502   0.035  0.00  0.00    -0.066 A 
ATOM      2  C2  <0> d          -3.353   2.270   0.031  0.00  0.00    -0.066 A 
ATOM      3  C3  <0> d          -2.432   1.289   0.021  0.00  0.00    -0.011 A 
ATOM      4  N1  <0> d          -1.191   1.869   0.018  0.00  0.00    -0.286 N 
ATOM      5  C4  <0> d          -1.346   3.230   0.032  0.00  0.00    -0.011 A 
ATOM      6  C5  <0> d          -0.014   1.211   0.009  0.00  0.00     0.324 C 
ATOM      7  O1  <0> d           0.002  -0.004   0.002  0.00  0.00    -0.247 OA
ATOM      8  N2  <0> d           1.143   1.901   0.001  0.00  0.00    -0.351 N 
ATOM      9  H1  <0> d          -3.113   4.484   0.044  0.00  0.00     0.085 H 
ATOM     10  H2  <0> d          -4.425   2.139   0.035  0.00  0.00     0.085 H 
ATOM     11  H3  <0> d          -2.635   0.228   0.015  0.00  0.00     0.112 H 
ATOM     12  H4  <0> d          -0.549   3.958   0.037  0.00  0.00     0.112 H 
ATOM     13  H5  <0> d           1.990   1.427  -0.009  0.00  0.00     0.160 HD
ATOM     14  H6  <0> d           1.130   2.870   0.007  0.00  0.00     0.160 HD
ENDROOT
TORSDOF 0
