REMARK  1 active torsions:
REMARK  status: ('A' for Active; 'I' for Inactive)
REMARK    1  A    between atoms: C6_6  and  N1_7 
ROOT
ATOM      1  C1  <0> d          -1.249   3.038   0.030  0.00  0.00    -0.056 A 
ATOM      2  C2  <0> d          -2.452   3.718   0.034  0.00  0.00    -0.058 A 
ATOM      3  C3  <0> d          -3.645   3.022   0.036  0.00  0.00     0.054 A 
ATOM      4  C4  <0> d          -3.637   1.624   0.028  0.00  0.00     0.068 A 
ATOM      5  C5  <0> d          -2.422   0.939   0.019  0.00  0.00    -0.036 A 
ATOM      6  C6  <0> d          -1.231   1.648   0.017  0.00  0.00     0.027 A 
ATOM      7  C7  <0> d          -4.872   0.898   0.030  0.00  0.00     0.101 C 
ATOM      8  N2  <0> d          -5.851   0.323   0.031  0.00  0.00    -0.191 NA
ATOM      9 Cl1  <0> d          -5.153   3.882   0.047  0.00  0.00    -0.083 Cl
ATOM     10  H1  <0> d          -0.320   3.588   0.034  0.00  0.00     0.087 H 
ATOM     11  H2  <0> d          -2.460   4.798   0.040  0.00  0.00     0.086 H 
ATOM     12  H3  <0> d          -2.409  -0.141   0.013  0.00  0.00     0.089 H 
ENDROOT
BRANCH   6  13
ATOM     13  N1  <0> d          -0.011   0.966   0.007  0.00  0.00    -0.399 N 
ATOM     14  H4  <0> d           0.002  -0.004   0.002  0.00  0.00     0.156 HD
ATOM     15  H5  <0> d           0.822   1.462   0.002  0.00  0.00     0.156 HD
ENDBRANCH   6  13
TORSDOF 1
