REMARK  1 active torsions:
REMARK  status: ('A' for Active; 'I' for Inactive)
REMARK    1  A    between atoms: C1_1  and  C2_2 
ROOT
ATOM      1  C2  <0> d           0.002  -0.004   0.002  0.00  0.00     0.235 A 
ATOM      2  H1  <0> d          -1.019  -0.386  -0.003  0.00  0.00     0.126 H 
ATOM      3  N1  <0> d           0.715  -0.482  -1.183  0.00  0.00    -0.327 N 
ATOM      4  C3  <0> d           1.783  -1.215  -0.819  0.00  0.00     0.261 A 
ATOM      5  O1  <0> d           2.566  -1.744  -1.579  0.00  0.00    -0.270 OA
ATOM      6  C4  <0> d           1.847  -1.270   0.681  0.00  0.00     0.277 A 
ATOM      7  N2  <0> d           0.712  -0.498   1.190  0.00  0.00     0.349 N 
ATOM      8  C5  <0> d           1.772  -2.725   1.174  0.00  0.00    -0.020 C 
ATOM      9  C6  <0> d           3.252  -3.118   1.415  0.00  0.00    -0.062 C 
ATOM     10  C7  <0> d           3.864  -1.816   1.989  0.00  0.00    -0.062 C 
ATOM     11  C8  <0> d           3.172  -0.689   1.193  0.00  0.00    -0.020 C 
ATOM     12  H5  <0> d           0.455  -0.298  -2.099  0.00  0.00     0.164 HD
ATOM     13  H6  <0> d           1.205  -2.785   2.102  0.00  0.00     0.037 H 
ATOM     14  H7  <0> d           1.327  -3.364   0.411  0.00  0.00     0.037 H 
ATOM     15  H8  <0> d           3.323  -3.930   2.139  0.00  0.00     0.033 H 
ATOM     16  H9  <0> d           3.737  -3.393   0.478  0.00  0.00     0.033 H 
ATOM     17  H10 <0> d           3.640  -1.725   3.052  0.00  0.00     0.033 H 
ATOM     18  H11 <0> d           4.941  -1.795   1.822  0.00  0.00     0.033 H 
ATOM     19  H12 <0> d           3.796  -0.386   0.353  0.00  0.00     0.037 H 
ATOM     20  H13 <0> d           2.979   0.165   1.843  0.00  0.00     0.037 H 
ENDROOT
BRANCH   1  21
ATOM     21  C1  <0> d          -0.019   1.526   0.010  0.00  0.00    -0.029 C 
ATOM     22  H2  <0> d           1.004   1.903   0.003  0.00  0.00     0.033 H 
ATOM     23  H3  <0> d          -0.546   1.887  -0.873  0.00  0.00     0.033 H 
ATOM     24  H4  <0> d          -0.529   1.877   0.907  0.00  0.00     0.033 H 
ENDBRANCH   1  21
TORSDOF 1
