REMARK  0 active torsions:
REMARK  status: ('A' for Active; 'I' for Inactive)
ROOT
ATOM      1  C1  <0> d           3.294   3.132   0.403  0.00  0.00    -0.060 C 
ATOM      2  C2  <0> d           4.019   2.086  -0.448  0.00  0.00    -0.060 C 
ATOM      3  C3  <0> d           3.562   0.682  -0.033  0.00  0.00    -0.023 C 
ATOM      4  C4  <0> d           2.053   0.658  -0.015  0.00  0.00     0.060 A 
ATOM      5  C5  <0> d           1.282   1.765  -0.001  0.00  0.00     0.036 A 
ATOM      6  N1  <0> d          -0.016   1.349   0.009  0.00  0.00    -0.333 N 
ATOM      7  H1  <0> d          -0.831   2.089   0.021  0.00  0.00     0.168 HD
ATOM      8  C6  <0> d           0.002  -0.004   0.002  0.00  0.00     0.201 A 
ATOM      9  N2  <0> d           1.247  -0.407  -0.013  0.00  0.00    -0.223 NA
ATOM     10 Cl1  <0> d          -1.395  -1.034   0.011  0.00  0.00    -0.043 Cl
ATOM     11  C7  <0> d           1.813   3.175   0.005  0.00  0.00    -0.025 C 
ATOM     12  H2  <0> d           3.747   4.120   0.234  0.00  0.00     0.033 H 
ATOM     13  H3  <0> d           3.381   2.865   1.466  0.00  0.00     0.033 H 
ATOM     14  H4  <0> d           3.784   2.249  -1.510  0.00  0.00     0.033 H 
ATOM     15  H5  <0> d           5.105   2.177  -0.294  0.00  0.00     0.033 H 
ATOM     16  H6  <0> d           3.941  -0.056  -0.756  0.00  0.00     0.042 H 
ATOM     17  H7  <0> d           3.954   0.449   0.968  0.00  0.00     0.042 H 
ATOM     18  H8  <0> d           1.256   3.784   0.732  0.00  0.00     0.042 H 
ATOM     19  H9  <0> d           1.715   3.619  -0.997  0.00  0.00     0.042 H 
ENDROOT
TORSDOF 0
