REMARK  3 active torsions:
REMARK  status: ('A' for Active; 'I' for Inactive)
REMARK    1  A    between atoms: C1_1  and  C2_2 
REMARK    2  A    between atoms: C5_6  and  C7_9 
REMARK    3  A    between atoms: C6_7  and  O1_8 
ROOT
ATOM      1  C2  <0> d          -0.017   1.382   0.010  0.00  0.00    -0.025 A 
ATOM      2  C3  <0> d           0.002  -0.004   0.002  0.00  0.00    -0.058 A 
ATOM      3  C4  <0> d           1.217  -0.662  -0.013  0.00  0.00     0.003 A 
ATOM      4  N1  <0> d           2.352   0.010  -0.021  0.00  0.00    -0.263 NA
ATOM      5  C5  <0> d           2.377   1.328  -0.014  0.00  0.00     0.064 A 
ATOM      6  C6  <0> d           1.198   2.059   0.002  0.00  0.00     0.095 A 
ATOM      7  H4  <0> d          -0.922  -0.563   0.007  0.00  0.00     0.086 H 
ATOM      8  H5  <0> d           1.238  -1.742  -0.019  0.00  0.00     0.114 H 
ENDROOT
BRANCH   1   9
ATOM      9  C1  <0> d          -1.321   2.136   0.020  0.00  0.00    -0.049 C 
ATOM     10  H1  <0> d          -1.631   2.312   1.050  0.00  0.00     0.033 H 
ATOM     11  H2  <0> d          -1.193   3.091  -0.489  0.00  0.00     0.033 H 
ATOM     12  H3  <0> d          -2.084   1.550  -0.493  0.00  0.00     0.033 H 
ENDBRANCH   1   9
BRANCH   6  13
ATOM     13  O1  <0> d           1.229   3.418   0.008  0.00  0.00    -0.358 OA
ATOM     14  H6  <0> d           1.247   3.807   0.893  0.00  0.00     0.217 HD
ENDBRANCH   6  13
BRANCH   5  15
ATOM     15  C7  <0> d           3.701   2.048  -0.023  0.00  0.00    -0.033 C 
ATOM     16  H7  <0> d           4.010   2.227  -1.053  0.00  0.00     0.035 H 
ATOM     17  H8  <0> d           3.600   3.001   0.497  0.00  0.00     0.035 H 
ATOM     18  H9  <0> d           4.450   1.437   0.480  0.00  0.00     0.035 H 
ENDBRANCH   5  15
TORSDOF 3
