REMARK  7 active torsions:
REMARK  status: ('A' for Active; 'I' for Inactive)
REMARK    1  A    between atoms: C1_1  and  C2_2 
REMARK    2  A    between atoms: C2_2  and  C3_3 
REMARK    3  A    between atoms: C3_3  and  C4_4 
REMARK    4  A    between atoms: C4_4  and  O2_6 
REMARK    5  A    between atoms: O2_6  and  C5_7 
REMARK    6  A    between atoms: C5_7  and  C6_8 
REMARK    7  A    between atoms: C6_8  and  O3_9 
ROOT
ATOM      1  C4  <0> d           0.340   4.824   1.425  0.00  0.00     0.258 C 
ATOM      2  O1  <0> d           0.667   5.599   0.557  0.00  0.00    -0.265 OA
ENDROOT
BRANCH   1   3
ATOM      3  C3  <0> d          -0.287   5.337   2.696  0.00  0.00     0.015 C 
ATOM      4  H6  <0> d          -1.282   4.906   2.809  0.00  0.00     0.048 H 
ATOM      5  H7  <0> d           0.332   5.051   3.547  0.00  0.00     0.048 H 
BRANCH   3   6
ATOM      6  C2  <0> d          -0.395   6.861   2.632  0.00  0.00    -0.060 C 
ATOM      7  H4  <0> d           0.600   7.292   2.519  0.00  0.00     0.033 H 
ATOM      8  H5  <0> d          -1.014   7.147   1.781  0.00  0.00     0.033 H 
BRANCH   6   9
ATOM      9  C1  <0> d          -1.032   7.381   3.923  0.00  0.00    -0.076 C 
ATOM     10  H1  <0> d          -1.109   8.468   3.878  0.00  0.00     0.027 H 
ATOM     11  H2  <0> d          -2.027   6.951   4.036  0.00  0.00     0.027 H 
ATOM     12  H3  <0> d          -0.413   7.096   4.774  0.00  0.00     0.027 H 
ENDBRANCH   6   9
ENDBRANCH   3   6
ENDBRANCH   1   3
BRANCH   1  13
ATOM     13  O2  <0> d           0.536   3.507   1.256  0.00  0.00    -0.319 OA
BRANCH  13  14
ATOM     14  C5  <0> d           1.145   3.085   0.008  0.00  0.00     0.048 C 
ATOM     15  H8  <0> d           2.130   3.542  -0.089  0.00  0.00     0.078 H 
ATOM     16  H9  <0> d           0.516   3.397  -0.827  0.00  0.00     0.078 H 
BRANCH  14  17
ATOM     17  C6  <0> d           1.286   1.562  -0.002  0.00  0.00     0.037 C 
ATOM     18  H10 <0> d           1.840   1.243   0.881  0.00  0.00     0.077 H 
ATOM     19  H11 <0> d           1.823   1.252  -0.899  0.00  0.00     0.077 H 
BRANCH  17  20
ATOM     20  O3  <0> d          -0.011   0.963   0.007  0.00  0.00    -0.399 OA
ATOM     21  H12 <0> d           0.002  -0.004   0.002  0.00  0.00     0.209 HD
ENDBRANCH  17  20
ENDBRANCH  14  17
ENDBRANCH  13  14
ENDBRANCH   1  13
TORSDOF 7
