REMARK  2 active torsions:
REMARK  status: ('A' for Active; 'I' for Inactive)
REMARK    1  A    between atoms: C1_1  and  O1_2 
REMARK    2  A    between atoms: O1_2  and  C2_3 
ROOT
ATOM      1  C2  <0> d           1.171   2.095   0.002  0.00  0.00     0.108 A 
ATOM      2  C3  <0> d          -0.017   1.379   0.010  0.00  0.00    -0.048 A 
ATOM      3  C4  <0> d           0.002  -0.004   0.002  0.00  0.00    -0.079 A 
ATOM      4  C5  <0> d           1.202  -0.683  -0.013  0.00  0.00    -0.060 A 
ATOM      5  C6  <0> d           2.406   0.027  -0.020  0.00  0.00     0.086 A 
ATOM      6  C7  <0> d           2.386   1.425  -0.013  0.00  0.00     0.170 A 
ATOM      7  F1  <0> d           3.544   2.119  -0.020  0.00  0.00    -0.202 F 
ATOM      8  C8  <0> d           3.654  -0.674  -0.035  0.00  0.00     0.102 C 
ATOM      9  N1  <0> d           4.645  -1.230  -0.047  0.00  0.00    -0.191 NA
ATOM     10  H4  <0> d          -0.961   1.904   0.017  0.00  0.00     0.087 H 
ATOM     11  H5  <0> d          -0.927  -0.555   0.008  0.00  0.00     0.083 H 
ATOM     12  H6  <0> d           1.212  -1.763  -0.018  0.00  0.00     0.086 H 
ENDROOT
BRANCH   1  13
ATOM     13  O1  <0> d           1.146   3.454   0.010  0.00  0.00    -0.353 OA
BRANCH  13  14
ATOM     14  C1  <0> d          -0.140   4.079   0.025  0.00  0.00     0.011 C 
ATOM     15  H1  <0> d          -0.016   5.172   0.030  0.00  0.00     0.066 H 
ATOM     16  H2  <0> d          -0.687   3.768   0.927  0.00  0.00     0.066 H 
ATOM     17  H3  <0> d          -0.705   3.778  -0.869  0.00  0.00     0.066 H 
ENDBRANCH  13  14
ENDBRANCH   1  13
TORSDOF 2
