REMARK  3 active torsions:
REMARK  status: ('A' for Active; 'I' for Inactive)
REMARK    1  A    between atoms: C1_1  and  C2_2 
REMARK    2  A    between atoms: C8_11  and  C9_13 
REMARK    3  A    between atoms: C9_13  and  O1_14 
ROOT
ATOM      1  C2  <0> d           1.903   0.825   1.082  0.00  0.00    -0.048 C 
ATOM      2  H1  <0> d           1.861   1.268   2.077  0.00  0.00     0.040 H 
ATOM      3  C3  <0> d           1.528   1.883  -0.001  0.00  0.00    -0.050 C 
ATOM      4  H2  <0> d           1.939   2.882   0.147  0.00  0.00     0.040 H 
ATOM      5  C4  <0> d           1.857   1.188  -1.357  0.00  0.00    -0.061 C 
ATOM      6  C5  <0> d           0.784   0.084  -1.501  0.00  0.00    -0.061 C 
ATOM      7  C6  <0> d          -0.092   0.217  -0.218  0.00  0.00    -0.048 C 
ATOM      8  H3  <0> d          -1.086  -0.230  -0.259  0.00  0.00     0.040 H 
ATOM      9  C7  <0> d          -0.037   1.768   0.012  0.00  0.00    -0.058 C 
ATOM     10  C8  <0> d           0.830  -0.278   0.938  0.00  0.00    -0.027 C 
ATOM     11  H4  <0> d           0.261  -0.378   1.862  0.00  0.00     0.044 H 
ATOM     12  H8  <0> d           1.781   1.901  -2.178  0.00  0.00     0.033 H 
ATOM     13  H9  <0> d           2.854   0.749  -1.327  0.00  0.00     0.033 H 
ATOM     14  H10 <0> d           1.254  -0.899  -1.540  0.00  0.00     0.033 H 
ATOM     15  H11 <0> d           0.181   0.255  -2.392  0.00  0.00     0.033 H 
ATOM     16  H12 <0> d          -0.494   2.320  -0.810  0.00  0.00     0.034 H 
ATOM     17  H13 <0> d          -0.461   2.054   0.975  0.00  0.00     0.034 H 
ENDROOT
BRANCH  10  18
ATOM     18  C9  <0> d           1.481  -1.613   0.567  0.00  0.00     0.021 C 
ATOM     19  H14 <0> d           0.708  -2.326   0.281  0.00  0.00     0.074 H 
ATOM     20  H15 <0> d           2.165  -1.464  -0.269  0.00  0.00     0.074 H 
BRANCH  18  21
ATOM     21  O1  <0> d           2.204  -2.119   1.691  0.00  0.00    -0.400 OA
ATOM     22  H16 <0> d           2.643  -2.965   1.527  0.00  0.00     0.209 HD
ENDBRANCH  18  21
ENDBRANCH  10  18
BRANCH   1  23
ATOM     23  C1  <0> d           3.296   0.253   0.812  0.00  0.00    -0.072 C 
ATOM     24  H5  <0> d           3.295  -0.270  -0.145  0.00  0.00     0.028 H 
ATOM     25  H6  <0> d           4.023   1.065   0.781  0.00  0.00     0.028 H 
ATOM     26  H7  <0> d           3.563  -0.444   1.606  0.00  0.00     0.028 H 
ENDBRANCH   1  23
TORSDOF 3
