REMARK  5 active torsions:
REMARK  status: ('A' for Active; 'I' for Inactive)
REMARK    1  A    between atoms: C1_1  and  C2_2 
REMARK    2  A    between atoms: C2_2  and  C3_3 
REMARK    3  A    between atoms: C3_3  and  C4_4 
REMARK    4  A    between atoms: C3_3  and  C6_6 
REMARK    5  A    between atoms: C3_3  and  O1_8 
ROOT
ATOM      1  C6  <0> d           0.002  -0.004   0.002  0.00  0.00    -0.075 C 
ATOM      2  C7  <0> d           0.018  -1.178  -0.004  0.00  0.00    -0.151 C 
ATOM      3  H9  <0> d           0.032  -2.228  -0.010  0.00  0.00     0.166 H 
ENDROOT
BRANCH   1   4
ATOM      4  C3  <0> d          -0.018   1.468   0.010  0.00  0.00     0.137 C 
BRANCH   4   5
ATOM      5  C2  <0> d          -0.758   1.975  -1.229  0.00  0.00    -0.025 C 
ATOM      6  H4  <0> d          -1.804   1.672  -1.177  0.00  0.00     0.038 H 
ATOM      7  H5  <0> d          -0.696   3.062  -1.270  0.00  0.00     0.038 H 
BRANCH   5   8
ATOM      8  C1  <0> d          -0.117   1.380  -2.485  0.00  0.00    -0.073 C 
ATOM      9  H1  <0> d           0.929   1.683  -2.537  0.00  0.00     0.027 H 
ATOM     10  H2  <0> d          -0.178   0.293  -2.444  0.00  0.00     0.027 H 
ATOM     11  H3  <0> d          -0.644   1.741  -3.368  0.00  0.00     0.027 H 
ENDBRANCH   5   8
ENDBRANCH   4   5
BRANCH   4  12
ATOM     12  C4  <0> d          -0.723   1.954   1.250  0.00  0.00    -0.068 C 
ATOM     13  C5  <0> d          -0.089   2.711   2.110  0.00  0.00    -0.121 C 
ATOM     14  H7  <0> d           0.940   2.987   1.931  0.00  0.00     0.066 H 
ATOM     15  H8  <0> d          -0.594   3.059   2.999  0.00  0.00     0.066 H 
ATOM     16  H6  <0> d          -1.752   1.678   1.429  0.00  0.00     0.081 H 
ENDBRANCH   4  12
BRANCH   4  17
ATOM     17  O1  <0> d           1.323   1.962  -0.000  0.00  0.00    -0.374 OA
ATOM     18  H10 <0> d           1.386   2.927   0.004  0.00  0.00     0.212 HD
ENDBRANCH   4  17
ENDBRANCH   1   4
TORSDOF 5
