REMARK  5 active torsions:
REMARK  status: ('A' for Active; 'I' for Inactive)
REMARK    1  A    between atoms: C1_1  and  O1_2 
REMARK    2  A    between atoms: O1_2  and  C2_3 
REMARK    3  A    between atoms: C6_7  and  C8_10 
REMARK    4  A    between atoms: C7_8  and  O2_9 
REMARK    5  A    between atoms: C8_10  and  O3_11 
ROOT
ATOM      1  C2  <0> d           2.146   5.248   0.010  0.00  0.00     0.101 A 
ATOM      2  C3  <0> d           0.884   5.821   0.025  0.00  0.00    -0.048 A 
ATOM      3  C4  <0> d          -0.240   5.016   0.031  0.00  0.00    -0.080 A 
ATOM      4  C5  <0> d          -0.109   3.640   0.023  0.00  0.00    -0.072 A 
ATOM      5  C6  <0> d           1.147   3.062   0.008  0.00  0.00     0.001 A 
ATOM      6  C7  <0> d           2.278   3.863   0.007  0.00  0.00     0.107 A 
ATOM      7  H4  <0> d           0.778   6.896   0.032  0.00  0.00     0.087 H 
ATOM      8  H5  <0> d          -1.223   5.463   0.043  0.00  0.00     0.083 H 
ATOM      9  H6  <0> d          -0.990   3.014   0.027  0.00  0.00     0.084 H 
ENDROOT
BRANCH   1  10
ATOM     10  O1  <0> d           3.252   6.039   0.004  0.00  0.00    -0.353 OA
BRANCH  10  11
ATOM     11  C1  <0> d           3.041   7.452   0.013  0.00  0.00     0.010 C 
ATOM     12  H1  <0> d           4.003   7.963   0.007  0.00  0.00     0.066 H 
ATOM     13  H2  <0> d           2.470   7.739  -0.870  0.00  0.00     0.066 H 
ATOM     14  H3  <0> d           2.487   7.730   0.910  0.00  0.00     0.066 H 
ENDBRANCH  10  11
ENDBRANCH   1  10
BRANCH   6  15
ATOM     15  O2  <0> d           3.514   3.297  -0.003  0.00  0.00    -0.357 OA
ATOM     16  H7  <0> d           3.867   3.138  -0.889  0.00  0.00     0.217 HD
ENDBRANCH   6  15
BRANCH   5  17
ATOM     17  C8  <0> d           1.286   1.562  -0.002  0.00  0.00     0.043 C 
ATOM     18  H8  <0> d           1.840   1.243   0.881  0.00  0.00     0.081 H 
ATOM     19  H9  <0> d           1.823   1.252  -0.899  0.00  0.00     0.081 H 
BRANCH  17  20
ATOM     20  O3  <0> d          -0.011   0.963   0.007  0.00  0.00    -0.396 OA
ATOM     21  H10 <0> d           0.002  -0.004   0.002  0.00  0.00     0.209 HD
ENDBRANCH  17  20
ENDBRANCH   5  17
TORSDOF 5
