REMARK  5 active torsions:
REMARK  status: ('A' for Active; 'I' for Inactive)
REMARK    1  A    between atoms: C1_1  and  C2_2 
REMARK    2  A    between atoms: C2_2  and  C3_4 
REMARK    3  A    between atoms: C2_2  and  C5_7 
REMARK    4  A    between atoms: C3_4  and  O1_5 
REMARK    5  A    between atoms: O1_5  and  C4_6 
ROOT
ATOM      1  C2  <0> d           0.002  -0.004   0.002  0.00  0.00     0.047 C 
ATOM      2  H1  <0> d           0.512  -0.356  -0.895  0.00  0.00     0.059 H 
ENDROOT
BRANCH   1   3
ATOM      3  C1  <0> d          -0.019   1.526   0.010  0.00  0.00    -0.062 C 
ATOM      4  H2  <0> d           1.004   1.903   0.003  0.00  0.00     0.028 H 
ATOM      5  H3  <0> d          -0.546   1.887  -0.873  0.00  0.00     0.028 H 
ATOM      6  H4  <0> d          -0.529   1.877   0.907  0.00  0.00     0.028 H 
ENDBRANCH   1   3
BRANCH   1   7
ATOM      7  C3  <0> d           0.742  -0.511   1.242  0.00  0.00     0.031 C 
ATOM      8  H5  <0> d           0.285  -0.087   2.136  0.00  0.00     0.075 H 
ATOM      9  H6  <0> d           0.680  -1.598   1.282  0.00  0.00     0.075 H 
BRANCH   7  10
ATOM     10  O1  <0> d           2.113  -0.114   1.173  0.00  0.00    -0.395 OA
BRANCH  10  11
ATOM     11  C4  <0> d           2.898  -0.539   2.289  0.00  0.00     0.004 C 
ATOM     12  H7  <0> d           2.486  -0.116   3.206  0.00  0.00     0.066 H 
ATOM     13  H8  <0> d           2.881  -1.627   2.352  0.00  0.00     0.066 H 
ATOM     14  H9  <0> d           3.925  -0.199   2.162  0.00  0.00     0.066 H 
ENDBRANCH  10  11
ENDBRANCH   7  10
ENDBRANCH   1   7
BRANCH   1  15
ATOM     15  C5  <0> d          -1.412  -0.526   0.013  0.00  0.00     0.178 C 
ATOM     16  O2  <0> d          -1.710  -1.492  -0.668  0.00  0.00    -0.648 OA
ATOM     17  O3  <0> d          -2.257   0.018   0.703  0.00  0.00    -0.648 OA
ENDBRANCH   1  15
TORSDOF 5
