REMARK  3 active torsions:
REMARK  status: ('A' for Active; 'I' for Inactive)
REMARK    1  A    between atoms: C4_4  and  C7_7 
REMARK    2  A    between atoms: C7_7  and  C8_9 
REMARK    3  A    between atoms: C7_7  and  O1_12 
ROOT
ATOM      1  C7  <0> d           0.002  -0.004   0.002  0.00  0.00     0.064 C 
ATOM      2  H1  <0> d           0.942  -0.357   0.425  0.00  0.00     0.091 H 
ENDROOT
BRANCH   1   3
ATOM      3  C4  <0> d          -0.018   1.503   0.010  0.00  0.00    -0.029 A 
ATOM      4  C3  <0> d           1.169   2.210   0.003  0.00  0.00    -0.074 A 
ATOM      5  C2  <0> d           1.151   3.592   0.010  0.00  0.00    -0.082 A 
ATOM      6  H4  <0> d           2.112   1.683  -0.009  0.00  0.00     0.084 H 
ATOM      7  C1  <0> d          -0.056   4.267   0.025  0.00  0.00    -0.083 A 
ATOM      8  H3  <0> d           2.078   4.145   0.005  0.00  0.00     0.083 H 
ATOM      9  C6  <0> d          -1.244   3.560   0.032  0.00  0.00    -0.082 A 
ATOM     10  H2  <0> d          -0.070   5.347   0.031  0.00  0.00     0.083 H 
ATOM     11  C5  <0> d          -1.225   2.178   0.020  0.00  0.00    -0.074 A 
ATOM     12  H6  <0> d          -2.186   4.087   0.043  0.00  0.00     0.083 H 
ATOM     13  H5  <0> d          -2.153   1.625   0.021  0.00  0.00     0.084 H 
ENDBRANCH   1   3
BRANCH   1  14
ATOM     14  C8  <0> d          -0.130  -0.508  -1.437  0.00  0.00    -0.025 A 
ATOM     15  C10 <0> d          -0.131  -2.022  -1.657  0.00  0.00    -0.059 A 
ATOM     16  C9  <0> d          -1.427  -1.226  -1.817  0.00  0.00    -0.059 A 
ATOM     17  H10 <0> d           0.344  -2.398  -2.564  0.00  0.00     0.033 H 
ATOM     18  H11 <0> d          -0.036  -2.659  -0.778  0.00  0.00     0.033 H 
ATOM     19  H8  <0> d          -2.186  -1.339  -1.043  0.00  0.00     0.033 H 
ATOM     20  H9  <0> d          -1.806  -1.078  -2.829  0.00  0.00     0.033 H 
ATOM     21  H7  <0> d           0.344   0.112  -2.197  0.00  0.00     0.044 H 
ENDBRANCH   1  14
BRANCH   1  22
ATOM     22  O1  <0> d          -1.088  -0.499   0.783  0.00  0.00    -0.391 OA
ATOM     23  H12 <0> d          -1.958  -0.224   0.463  0.00  0.00     0.210 HD
ENDBRANCH   1  22
TORSDOF 3
