REMARK  3 active torsions:
REMARK  status: ('A' for Active; 'I' for Inactive)
REMARK    1  A    between atoms: C1_1  and  C2_2 
REMARK    2  A    between atoms: C1_1  and  N1_4 
REMARK    3  A    between atoms: C3_6  and  O2_9 
ROOT
ATOM      1  N1  <0> d          -2.430   0.973   0.019  0.00  0.00    -0.156 N 
ATOM      2  N2  <0> d          -3.052   0.415   1.148  0.00  0.00    -0.105 NA
ATOM      3  C3  <0> d          -3.980  -0.395   0.686  0.00  0.00     0.305 A 
ATOM      4  N3  <0> d          -3.934  -0.341  -0.644  0.00  0.00    -0.083 NA
ATOM      5  N4  <0> d          -3.015   0.476  -1.018  0.00  0.00    -0.044 NA
ENDROOT
BRANCH   1   6
ATOM      6  C1  <0> d          -1.329   1.940   0.019  0.00  0.00     0.116 C 
ATOM      7  H1  <0> d          -1.391   2.561   0.913  0.00  0.00     0.086 H 
ATOM      8  H2  <0> d          -1.400   2.570  -0.867  0.00  0.00     0.086 H 
BRANCH   6   9
ATOM      9  C2  <0> d          -0.014   1.204   0.009  0.00  0.00     0.195 C 
ATOM     10  O1  <0> d           0.002  -0.004   0.002  0.00  0.00    -0.647 OA
ATOM     11  O3  <0> d           1.139   1.891   0.001  0.00  0.00    -0.647 OA
ENDBRANCH   6   9
ENDBRANCH   1   6
BRANCH   3  12
ATOM     12  O2  <0> d          -4.831  -1.149   1.431  0.00  0.00    -0.327 OA
ATOM     13  H3  <0> d          -5.660  -0.703   1.653  0.00  0.00     0.221 HD
ENDBRANCH   3  12
TORSDOF 3
