REMARK  1 active torsions:
REMARK  status: ('A' for Active; 'I' for Inactive)
REMARK    1  A    between atoms: C2_2  and  C6_9 
ROOT
ATOM      1  C1  <0> d          -0.013   1.076   0.008  0.00  0.00    -0.007 A 
ATOM      2  C2  <0> d          -1.227   1.769   0.017  0.00  0.00     0.085 A 
ATOM      3  C3  <0> d          -1.188   3.170   0.030  0.00  0.00     0.151 A 
ATOM      4  C4  <0> d           0.041   3.807   0.021  0.00  0.00     0.043 A 
ATOM      5  N1  <0> d           1.162   3.114   0.007  0.00  0.00    -0.230 NA
ATOM      6  C5  <0> d           1.170   1.794   0.001  0.00  0.00     0.210 A 
ATOM      7  F1  <0> d           2.349   1.135  -0.014  0.00  0.00    -0.184 F 
ATOM      8  F2  <0> d          -2.333   3.888   0.045  0.00  0.00    -0.203 F 
ATOM      9  H1  <0> d           0.002  -0.004   0.002  0.00  0.00     0.092 H 
ATOM     10  H2  <0> d           0.081   4.886   0.025  0.00  0.00     0.119 H 
ENDROOT
BRANCH   2  11
ATOM     11  C6  <0> d          -2.516   1.044   0.019  0.00  0.00     0.212 C 
ATOM     12  O1  <0> d          -3.561   1.663   0.028  0.00  0.00    -0.644 OA
ATOM     13  O2  <0> d          -2.532  -0.302   0.012  0.00  0.00    -0.644 OA
ENDBRANCH   2  11
TORSDOF 1
