REMARK  2 active torsions:
REMARK  status: ('A' for Active; 'I' for Inactive)
REMARK    1  A    between atoms: C3_3  and  C6_8 
REMARK    2  A    between atoms: C5_6  and  O1_7 
ROOT
ATOM      1  C1  <0> d           1.849   1.833  -1.207  0.00  0.00    -0.047 A 
ATOM      2  C2  <0> d           3.105   2.412  -1.169  0.00  0.00    -0.046 A 
ATOM      3  C3  <0> d           3.695   2.673   0.068  0.00  0.00     0.132 A 
ATOM      4  N1  <0> d           3.064   2.371   1.197  0.00  0.00    -0.251 NA
ATOM      5  C4  <0> d           1.870   1.826   1.196  0.00  0.00     0.035 A 
ATOM      6  C5  <0> d           1.221   1.532  -0.001  0.00  0.00     0.083 A 
ATOM      7  H1  <0> d           1.367   1.620  -2.149  0.00  0.00     0.087 H 
ATOM      8  H2  <0> d           3.621   2.659  -2.085  0.00  0.00     0.087 H 
ATOM      9  H3  <0> d           1.386   1.598   2.134  0.00  0.00     0.119 H 
ENDROOT
BRANCH   3  10
ATOM     10  C6  <0> d           5.037   3.291   0.121  0.00  0.00     0.228 C 
ATOM     11  O2  <0> d           5.619   3.570  -0.907  0.00  0.00    -0.643 OA
ATOM     12  O3  <0> d           5.614   3.546   1.312  0.00  0.00    -0.643 OA
ENDBRANCH   3  10
BRANCH   6  13
ATOM     13  O1  <0> d          -0.011   0.963   0.007  0.00  0.00    -0.359 OA
ATOM     14  H4  <0> d           0.002  -0.004   0.002  0.00  0.00     0.217 HD
ENDBRANCH   6  13
TORSDOF 2
