REMARK  2 active torsions:
REMARK  status: ('A' for Active; 'I' for Inactive)
REMARK    1  A    between atoms: C1_1  and  C2_2 
REMARK    2  A    between atoms: C2_2  and  C3_3 
ROOT
ATOM      1  C3  <0> d          -1.220   1.751   0.017  0.00  0.00     0.051 A 
ATOM      2  C4  <0> d          -0.013   1.076   0.008  0.00  0.00     0.025 A 
ATOM      3  N1  <0> d           1.123   1.752   0.001  0.00  0.00    -0.270 NA
ATOM      4  C5  <0> d           1.105   3.073   0.008  0.00  0.00     0.019 A 
ATOM      5  C6  <0> d          -0.103   3.749   0.022  0.00  0.00     0.019 A 
ATOM      6  N2  <0> d          -1.238   3.072   0.029  0.00  0.00    -0.263 NA
ATOM      7  H6  <0> d           0.002  -0.004   0.002  0.00  0.00     0.117 H 
ATOM      8  H7  <0> d           2.032   3.626   0.002  0.00  0.00     0.117 H 
ATOM      9  H8  <0> d          -0.117   4.829   0.027  0.00  0.00     0.117 H 
ENDROOT
BRANCH   1  10
ATOM     10  C2  <0> d          -2.515   0.980   0.020  0.00  0.00    -0.027 C 
ATOM     11  H4  <0> d          -3.054   1.172  -0.908  0.00  0.00     0.041 H 
ATOM     12  H5  <0> d          -2.303  -0.086   0.103  0.00  0.00     0.041 H 
BRANCH  10  13
ATOM     13  C1  <0> d          -3.371   1.424   1.208  0.00  0.00    -0.071 C 
ATOM     14  H1  <0> d          -2.832   1.232   2.136  0.00  0.00     0.028 H 
ATOM     15  H2  <0> d          -3.583   2.490   1.125  0.00  0.00     0.028 H 
ATOM     16  H3  <0> d          -4.307   0.867   1.210  0.00  0.00     0.028 H 
ENDBRANCH  10  13
ENDBRANCH   1  10
TORSDOF 2
