REMARK  7 active torsions:
REMARK  status: ('A' for Active; 'I' for Inactive)
REMARK    1  A    between atoms: C1_1  and  C2_2 
REMARK    2  A    between atoms: C2_2  and  O1_3 
REMARK    3  A    between atoms: O1_3  and  C3_4 
REMARK    4  A    between atoms: C3_4  and  C4_6 
REMARK    5  A    between atoms: C4_6  and  C6_10 
REMARK    6  A    between atoms: C6_10  and  C7_11 
REMARK    7  A    between atoms: C6_10  and  C8_12 
ROOT
ATOM      1  C4  <0> d           0.011   1.072   2.506  0.00  0.00     0.117 C 
ATOM      2  H1  <0> d           1.034   1.450   2.499  0.00  0.00     0.079 H 
ATOM      3  C5  <0> d          -0.678   1.547   3.717  0.00  0.00     0.074 C 
ATOM      4  N1  <0> d          -1.210   1.913   4.652  0.00  0.00    -0.196 NA
ENDROOT
BRANCH   1   5
ATOM      5  C3  <0> d           0.032  -0.434   2.498  0.00  0.00     0.277 C 
ATOM      6  O2  <0> d          -0.492  -1.041   1.593  0.00  0.00    -0.264 OA
BRANCH   5   7
ATOM      7  O1  <0> d           0.631  -1.103   3.495  0.00  0.00    -0.321 OA
BRANCH   7   8
ATOM      8  C2  <0> d           0.613  -2.553   3.422  0.00  0.00     0.025 C 
ATOM      9  H5  <0> d          -0.420  -2.903   3.414  0.00  0.00     0.074 H 
ATOM     10  H6  <0> d           1.113  -2.877   2.510  0.00  0.00     0.074 H 
BRANCH   8  11
ATOM     11  C1  <0> d           1.339  -3.135   4.636  0.00  0.00    -0.056 C 
ATOM     12  H2  <0> d           1.325  -4.223   4.581  0.00  0.00     0.030 H 
ATOM     13  H3  <0> d           2.371  -2.785   4.644  0.00  0.00     0.030 H 
ATOM     14  H4  <0> d           0.838  -2.811   5.549  0.00  0.00     0.030 H 
ENDBRANCH   8  11
ENDBRANCH   7   8
ENDBRANCH   5   7
ENDBRANCH   1   5
BRANCH   1  15
ATOM     15  C6  <0> d          -0.729   1.579   1.267  0.00  0.00    -0.037 C 
ATOM     16  H7  <0> d          -1.751   1.202   1.275  0.00  0.00     0.041 H 
BRANCH  15  17
ATOM     17  C7  <0> d          -0.013   1.086   0.008  0.00  0.00    -0.072 C 
ATOM     18  H8  <0> d           0.002  -0.004   0.002  0.00  0.00     0.028 H 
ATOM     19  H9  <0> d           1.010   1.463   0.000  0.00  0.00     0.028 H 
ATOM     20  H10 <0> d          -0.540   1.447  -0.875  0.00  0.00     0.028 H 
ENDBRANCH  15  17
BRANCH  15  21
ATOM     21  C8  <0> d          -0.750   3.109   1.275  0.00  0.00    -0.072 C 
ATOM     22  H11 <0> d          -1.277   3.470   0.392  0.00  0.00     0.028 H 
ATOM     23  H12 <0> d          -1.260   3.461   2.172  0.00  0.00     0.028 H 
ATOM     24  H13 <0> d           0.273   3.486   1.268  0.00  0.00     0.028 H 
ENDBRANCH  15  21
ENDBRANCH   1  15
TORSDOF 7
