REMARK  3 active torsions:
REMARK  status: ('A' for Active; 'I' for Inactive)
REMARK    1  A    between atoms: C1_1  and  O1_2 
REMARK    2  A    between atoms: O1_2  and  C2_3 
REMARK    3  A    between atoms: C5_7  and  N2_10 
ROOT
ATOM      1  C2  <0> d           0.627  -0.619   1.043  0.00  0.00     0.136 A 
ATOM      2  C3  <0> d           1.192   0.114   2.033  0.00  0.00     0.013 A 
ATOM      3  N1  <0> d           1.817  -0.492   3.075  0.00  0.00    -0.370 N 
ATOM      4  C4  <0> d           1.898  -1.844   3.163  0.00  0.00     0.006 A 
ATOM      5  C5  <0> d           1.352  -2.634   2.204  0.00  0.00     0.095 A 
ATOM      6  C6  <0> d           0.688  -2.032   1.107  0.00  0.00     0.233 A 
ATOM      7  O2  <0> d           0.182  -2.719   0.230  0.00  0.00    -0.283 OA
ATOM      8  H4  <0> d           1.145   1.192   1.992  0.00  0.00     0.115 H 
ATOM      9  H5  <0> d           2.402  -2.296   4.004  0.00  0.00     0.115 H 
ATOM     10  H8  <0> d           2.214   0.054   3.771  0.00  0.00     0.164 HD
ENDROOT
BRANCH   1  11
ATOM     11  O1  <0> d           0.002  -0.004   0.002  0.00  0.00    -0.351 OA
BRANCH  11  12
ATOM     12  C1  <0> d          -0.017   1.425   0.010  0.00  0.00     0.011 C 
ATOM     13  H1  <0> d           1.005   1.802   0.002  0.00  0.00     0.067 H 
ATOM     14  H2  <0> d          -0.544   1.786  -0.873  0.00  0.00     0.067 H 
ATOM     15  H3  <0> d          -0.527   1.776   0.907  0.00  0.00     0.067 H 
ENDBRANCH  11  12
ENDBRANCH   1  11
BRANCH   5  16
ATOM     16  N2  <0> d           1.440  -4.031   2.301  0.00  0.00    -0.395 N 
ATOM     17  H6  <0> d           1.893  -4.438   3.056  0.00  0.00     0.156 HD
ATOM     18  H7  <0> d           1.048  -4.591   1.612  0.00  0.00     0.156 HD
ENDBRANCH   5  16
TORSDOF 3
