REMARK  5 active torsions:
REMARK  status: ('A' for Active; 'I' for Inactive)
REMARK    1  A    between atoms: C1_1  and  C2_2 
REMARK    2  A    between atoms: C2_2  and  C3_3 
REMARK    3  A    between atoms: C3_3  and  C4_4 
REMARK    4  A    between atoms: C4_4  and  O2_6 
REMARK    5  A    between atoms: O2_6  and  C5_7 
ROOT
ATOM      1  C5  <0> d          -0.974   1.750   3.611  0.00  0.00     0.048 C 
ATOM      2  C6  <0> d          -0.373   3.094   4.071  0.00  0.00    -0.040 C 
ATOM      3  C7  <0> d          -0.471   3.044   5.616  0.00  0.00    -0.063 C 
ATOM      4  C8  <0> d          -0.148   1.563   5.931  0.00  0.00    -0.063 C 
ATOM      5  C9  <0> d          -0.831   0.776   4.793  0.00  0.00    -0.040 C 
ATOM      6  H8  <0> d          -2.026   1.878   3.357  0.00  0.00     0.084 H 
ATOM      7  H9  <0> d           0.667   3.175   3.757  0.00  0.00     0.036 H 
ATOM      8  H10 <0> d          -0.957   3.927   3.679  0.00  0.00     0.036 H 
ATOM      9  H11 <0> d          -1.477   3.299   5.948  0.00  0.00     0.033 H 
ATOM     10  H12 <0> d           0.266   3.706   6.072  0.00  0.00     0.033 H 
ATOM     11  H13 <0> d          -0.567   1.278   6.897  0.00  0.00     0.033 H 
ATOM     12  H14 <0> d           0.929   1.396   5.918  0.00  0.00     0.033 H 
ATOM     13  H15 <0> d          -1.813   0.432   5.115  0.00  0.00     0.036 H 
ATOM     14  H16 <0> d          -0.213  -0.074   4.504  0.00  0.00     0.036 H 
ENDROOT
BRANCH   1  15
ATOM     15  O2  <0> d          -0.243   1.247   2.461  0.00  0.00    -0.316 OA
BRANCH  15  16
ATOM     16  C4  <0> d          -0.718   1.572   1.248  0.00  0.00     0.259 C 
ATOM     17  O1  <0> d          -1.711   2.254   1.150  0.00  0.00    -0.265 OA
BRANCH  16  18
ATOM     18  C3  <0> d          -0.013   1.086   0.008  0.00  0.00     0.015 C 
ATOM     19  H6  <0> d           0.002  -0.004   0.002  0.00  0.00     0.048 H 
ATOM     20  H7  <0> d           1.010   1.463   0.000  0.00  0.00     0.048 H 
BRANCH  18  21
ATOM     21  C2  <0> d          -0.753   1.593  -1.232  0.00  0.00    -0.060 C 
ATOM     22  H4  <0> d          -1.775   1.215  -1.224  0.00  0.00     0.033 H 
ATOM     23  H5  <0> d          -0.767   2.683  -1.226  0.00  0.00     0.033 H 
BRANCH  21  24
ATOM     24  C1  <0> d          -0.037   1.099  -2.490  0.00  0.00    -0.076 C 
ATOM     25  H1  <0> d          -0.564   1.460  -3.373  0.00  0.00     0.027 H 
ATOM     26  H2  <0> d           0.986   1.476  -2.498  0.00  0.00     0.027 H 
ATOM     27  H3  <0> d          -0.022   0.009  -2.496  0.00  0.00     0.027 H 
ENDBRANCH  21  24
ENDBRANCH  18  21
ENDBRANCH  16  18
ENDBRANCH  15  16
ENDBRANCH   1  15
TORSDOF 5
