REMARK  3 active torsions:
REMARK  status: ('A' for Active; 'I' for Inactive)
REMARK    1  A    between atoms: C3_4  and  N2_6 
REMARK    2  A    between atoms: N2_6  and  C4_7 
REMARK    3  A    between atoms: C4_7  and  C5_8 
ROOT
ATOM      1  N2  <0> d          -0.011   0.966   0.007  0.00  0.00    -0.359 N 
ATOM      2  H3  <0> d           0.002  -0.004   0.002  0.00  0.00     0.162 HD
ENDROOT
BRANCH   1   3
ATOM      3  C3  <0> d          -1.221   1.643   0.017  0.00  0.00     0.166 A 
ATOM      4  S1  <0> d          -2.832   0.996   0.021  0.00  0.00    -0.063 SA
ATOM      5  C2  <0> d          -3.708   2.554   0.034  0.00  0.00    -0.025 A 
ATOM      6  C1  <0> d          -2.672   3.425   0.034  0.00  0.00     0.011 A 
ATOM      7  H2  <0> d          -4.771   2.747   0.041  0.00  0.00     0.097 H 
ATOM      8  N1  <0> d          -1.443   2.943   0.031  0.00  0.00    -0.236 NA
ATOM      9  H1  <0> d          -2.846   4.491   0.042  0.00  0.00     0.115 H 
ENDBRANCH   1   3
BRANCH   1  10
ATOM     10  C4  <0> d           1.248   1.716  -0.001  0.00  0.00     0.074 C 
ATOM     11  H4  <0> d           1.288   2.348  -0.888  0.00  0.00     0.080 H 
ATOM     12  H5  <0> d           1.305   2.338   0.892  0.00  0.00     0.080 H 
BRANCH  10  13
ATOM     13  C5  <0> d           2.406   0.752  -0.017  0.00  0.00     0.191 C 
ATOM     14  O1  <0> d           2.201  -0.439  -0.021  0.00  0.00    -0.647 OA
ATOM     15  O2  <0> d           3.665   1.216  -0.026  0.00  0.00    -0.647 OA
ENDBRANCH  10  13
ENDBRANCH   1  10
TORSDOF 3
