REMARK  1 active torsions:
REMARK  status: ('A' for Active; 'I' for Inactive)
REMARK    1  A    between atoms: C5_6  and  O1_7 
ROOT
ATOM      1  C1  <0> d          -0.017   1.375   0.010  0.00  0.00    -0.031 A 
ATOM      2  C2  <0> d           0.002  -0.004   0.002  0.00  0.00     0.008 A 
ATOM      3  N1  <0> d          -1.119  -0.700   0.009  0.00  0.00    -0.235 NA
ATOM      4  C3  <0> d          -2.308  -0.114   0.021  0.00  0.00     0.201 A 
ATOM      5  C4  <0> d          -2.407   1.271   0.032  0.00  0.00     0.155 A 
ATOM      6  C5  <0> d          -1.243   2.036   0.031  0.00  0.00     0.104 A 
ATOM      7  O2  <0> d          -3.618   1.890   0.053  0.00  0.00    -0.342 OA
ATOM      8  C6  <0> d          -4.752   1.095  -0.315  0.00  0.00     0.046 C 
ATOM      9  C7  <0> d          -4.649  -0.252   0.414  0.00  0.00     0.048 C 
ATOM     10  O3  <0> d          -3.429  -0.886   0.019  0.00  0.00    -0.330 OA
ATOM     11  H1  <0> d           0.907   1.934   0.004  0.00  0.00     0.090 H 
ATOM     12  H2  <0> d           0.949  -0.523  -0.009  0.00  0.00     0.115 H 
ATOM     13  H3  <0> d          -5.669   1.604  -0.021  0.00  0.00     0.078 H 
ATOM     14  H4  <0> d          -4.751   0.931  -1.393  0.00  0.00     0.078 H 
ATOM     15  H5  <0> d          -4.645  -0.086   1.491  0.00  0.00     0.078 H 
ATOM     16  H6  <0> d          -5.496  -0.882   0.141  0.00  0.00     0.078 H 
ENDROOT
BRANCH   6  17
ATOM     17  O1  <0> d          -1.302   3.393   0.039  0.00  0.00    -0.358 OA
ATOM     18  H7  <0> d          -1.331   3.791  -0.842  0.00  0.00     0.217 HD
ENDBRANCH   6  17
TORSDOF 1
