REMARK  5 active torsions:
REMARK  status: ('A' for Active; 'I' for Inactive)
REMARK    1  A    between atoms: C3_3  and  O1_8 
REMARK    2  A    between atoms: C5_6  and  N2_7 
REMARK    3  A    between atoms: O1_8  and  C6_9 
REMARK    4  A    between atoms: C6_9  and  C7_10 
REMARK    5  A    between atoms: C7_10  and  O2_11 
ROOT
ATOM      1  C1  <0> d          -0.206   1.224   4.769  0.00  0.00    -0.052 A 
ATOM      2  C2  <0> d          -0.752   1.605   3.556  0.00  0.00    -0.030 A 
ATOM      3  C3  <0> d          -0.149   1.182   2.379  0.00  0.00     0.164 A 
ATOM      4  N1  <0> d           0.940   0.434   2.407  0.00  0.00    -0.235 NA
ATOM      5  C4  <0> d           1.493   0.056   3.544  0.00  0.00     0.030 A 
ATOM      6  C5  <0> d           0.942   0.435   4.760  0.00  0.00     0.043 A 
ATOM      7  H1  <0> d          -0.657   1.534   5.700  0.00  0.00     0.087 H 
ATOM      8  H2  <0> d          -1.640   2.220   3.525  0.00  0.00     0.090 H 
ATOM      9  H3  <0> d           2.383  -0.555   3.528  0.00  0.00     0.118 H 
ENDROOT
BRANCH   3  10
ATOM     10  O1  <0> d          -0.682   1.547   1.184  0.00  0.00    -0.332 OA
BRANCH  10  11
ATOM     11  C6  <0> d          -0.013   1.086   0.008  0.00  0.00     0.047 C 
ATOM     12  H6  <0> d           1.019   1.466   0.000  0.00  0.00     0.078 H 
ATOM     13  H7  <0> d           0.002  -0.014   0.002  0.00  0.00     0.078 H 
BRANCH  11  14
ATOM     14  C7  <0> d          -0.753   1.593  -1.232  0.00  0.00     0.037 C 
ATOM     15  H8  <0> d          -0.292   1.165  -2.134  0.00  0.00     0.077 H 
ATOM     16  H9  <0> d          -1.808   1.287  -1.179  0.00  0.00     0.077 H 
BRANCH  14  17
ATOM     17  O2  <0> d          -0.672   3.018  -1.285  0.00  0.00    -0.399 OA
ATOM     18  H10 <0> d          -1.148   3.566  -2.111  0.00  0.00     0.209 HD
ENDBRANCH  14  17
ENDBRANCH  11  14
ENDBRANCH  10  11
ENDBRANCH   3  10
BRANCH   6  19
ATOM     19  N2  <0> d           1.533   0.029   5.963  0.00  0.00    -0.398 N 
ATOM     20  H4  <0> d           2.439  -0.593   5.948  0.00  0.00     0.156 HD
ATOM     21  H5  <0> d           1.090   0.334   6.923  0.00  0.00     0.156 HD
ENDBRANCH   6  19
TORSDOF 5
