REMARK  6 active torsions:
REMARK  status: ('A' for Active; 'I' for Inactive)
REMARK    1  A    between atoms: C2_2  and  C3_3 
REMARK    2  A    between atoms: C3_3  and  C4_4 
REMARK    3  A    between atoms: C5_5  and  C6_6 
REMARK    4  A    between atoms: C6_6  and  O1_7 
REMARK    5  A    between atoms: O1_7  and  C7_8 
REMARK    6  A    between atoms: C7_8  and  C8_9 
ROOT
ATOM      1  C8  <0> d          -0.018   1.468   0.010  0.00  0.00     0.034 C 
ATOM      2  C9  <0> d           0.002  -0.004   0.002  0.00  0.00     0.061 C 
ATOM      3  N1  <0> d           0.018  -1.140  -0.004  0.00  0.00    -0.197 NA
ATOM      4  H10 <0> d           1.005   1.845   0.002  0.00  0.00     0.058 H 
ATOM      5  H11 <0> d          -0.545   1.829  -0.873  0.00  0.00     0.058 H 
ENDROOT
BRANCH   1   6
ATOM      6  C7  <0> d          -0.734   1.961   1.269  0.00  0.00     0.032 C 
ATOM      7  H8  <0> d          -1.757   1.584   1.277  0.00  0.00     0.075 H 
ATOM      8  H9  <0> d          -0.207   1.600   2.152  0.00  0.00     0.075 H 
BRANCH   6   9
ATOM      9  O1  <0> d          -0.753   3.390   1.277  0.00  0.00    -0.379 OA
BRANCH   9  10
ATOM     10  C6  <0> d          -1.403   3.956   2.417  0.00  0.00     0.074 C 
ATOM     11  H6  <0> d          -2.440   3.620   2.448  0.00  0.00     0.093 H 
ATOM     12  H7  <0> d          -0.890   3.637   3.324  0.00  0.00     0.093 H 
BRANCH  10  13
ATOM     13  C5  <0> d          -1.366   5.425   2.324  0.00  0.00    -0.080 C 
ATOM     14  C4  <0> d          -1.336   6.596   2.249  0.00  0.00    -0.101 C 
BRANCH  14  15
ATOM     15  C3  <0> d          -1.299   8.065   2.156  0.00  0.00     0.005 C 
ATOM     16  H4  <0> d          -0.263   8.401   2.125  0.00  0.00     0.057 H 
ATOM     17  H5  <0> d          -1.812   8.384   1.249  0.00  0.00     0.057 H 
BRANCH  15  18
ATOM     18  C2  <0> d          -1.984   8.662   3.358  0.00  0.00    -0.101 C 
ATOM     19  C1  <0> d          -1.351   9.527   4.111  0.00  0.00    -0.124 C 
ATOM     20  H1  <0> d          -0.338   9.813   3.869  0.00  0.00     0.066 H 
ATOM     21  H2  <0> d          -1.842   9.955   4.972  0.00  0.00     0.066 H 
ATOM     22  H3  <0> d          -2.997   8.376   3.599  0.00  0.00     0.076 H 
ENDBRANCH  15  18
ENDBRANCH  14  15
ENDBRANCH  10  13
ENDBRANCH   9  10
ENDBRANCH   6   9
ENDBRANCH   1   6
TORSDOF 6
