REMARK  2 active torsions:
REMARK  status: ('A' for Active; 'I' for Inactive)
REMARK    1  A    between atoms: C1_1  and  C2_2 
REMARK    2  A    between atoms: C2_2  and  C3_3 
ROOT
ATOM      1  C3  <0> d           2.291   0.025  -0.020  0.00  0.00     0.074 A 
ATOM      2  C4  <0> d           2.272   1.410  -0.012  0.00  0.00     0.150 A 
ATOM      3  N1  <0> d           1.119   2.056   0.002  0.00  0.00    -0.245 NA
ATOM      4  C5  <0> d          -0.017   1.379   0.010  0.00  0.00     0.021 A 
ATOM      5  C6  <0> d           0.002  -0.004   0.002  0.00  0.00     0.019 A 
ATOM      6  N2  <0> d           1.155  -0.650  -0.013  0.00  0.00    -0.261 NA
ATOM      7 Cl1  <0> d           3.764   2.298  -0.022  0.00  0.00    -0.060 Cl
ATOM      8  H6  <0> d          -0.959   1.906   0.017  0.00  0.00     0.117 H 
ATOM      9  H7  <0> d          -0.926  -0.556   0.008  0.00  0.00     0.117 H 
ENDROOT
BRANCH   1  10
ATOM     10  C2  <0> d           3.605  -0.712  -0.037  0.00  0.00    -0.025 C 
ATOM     11  H4  <0> d           4.362  -0.116   0.473  0.00  0.00     0.042 H 
ATOM     12  H5  <0> d           3.492  -1.669   0.473  0.00  0.00     0.042 H 
BRANCH  10  13
ATOM     13  C1  <0> d           4.036  -0.953  -1.485  0.00  0.00    -0.071 C 
ATOM     14  H1  <0> d           3.279  -1.549  -1.995  0.00  0.00     0.028 H 
ATOM     15  H2  <0> d           4.149   0.003  -1.995  0.00  0.00     0.028 H 
ATOM     16  H3  <0> d           4.987  -1.486  -1.497  0.00  0.00     0.028 H 
ENDBRANCH  10  13
ENDBRANCH   1  10
TORSDOF 2
