REMARK  6 active torsions:
REMARK  status: ('A' for Active; 'I' for Inactive)
REMARK    1  A    between atoms: C1_1  and  C2_2 
REMARK    2  A    between atoms: C2_2  and  C3_3 
REMARK    3  A    between atoms: C2_2  and  C4_4 
REMARK    4  A    between atoms: C4_4  and  C5_5 
REMARK    5  A    between atoms: C5_5  and  C6_7 
REMARK    6  A    between atoms: C5_5  and  N1_11 
ROOT
ATOM      1  C4  <0> d          -1.433  -0.534   0.013  0.00  0.00    -0.025 C 
ATOM      2  H9  <0> d          -1.419  -1.620   0.097  0.00  0.00     0.037 H 
ATOM      3  H10 <0> d          -1.970  -0.111   0.862  0.00  0.00     0.037 H 
ENDROOT
BRANCH   1   4
ATOM      4  C2  <0> d           0.002  -0.004   0.002  0.00  0.00    -0.059 C 
ATOM      5  H5  <0> d           0.512  -0.356  -0.895  0.00  0.00     0.038 H 
BRANCH   4   6
ATOM      6  C1  <0> d          -0.019   1.526   0.010  0.00  0.00    -0.073 C 
ATOM      7  H2  <0> d           1.004   1.903   0.003  0.00  0.00     0.028 H 
ATOM      8  H3  <0> d          -0.546   1.887  -0.873  0.00  0.00     0.028 H 
ATOM      9  H4  <0> d          -0.529   1.877   0.907  0.00  0.00     0.028 H 
ENDBRANCH   4   6
BRANCH   4  10
ATOM     10  C3  <0> d           0.742  -0.511   1.242  0.00  0.00    -0.073 C 
ATOM     11  H6  <0> d           0.232  -0.159   2.138  0.00  0.00     0.028 H 
ATOM     12  H7  <0> d           0.757  -1.601   1.236  0.00  0.00     0.028 H 
ATOM     13  H8  <0> d           1.765  -0.134   1.234  0.00  0.00     0.028 H 
ENDBRANCH   4  10
ENDBRANCH   1   4
BRANCH   1  14
ATOM     14  C5  <0> d          -2.135  -0.131  -1.286  0.00  0.00     0.223 C 
ATOM     15  H1  <0> d          -2.072   0.949  -1.413  0.00  0.00     0.102 H 
BRANCH  14  16
ATOM     16  C6  <0> d          -3.605  -0.552  -1.222  0.00  0.00     0.417 C 
ATOM     17  F1  <0> d          -4.225   0.083  -0.141  0.00  0.00    -0.169 F 
ATOM     18  F2  <0> d          -4.247  -0.184  -2.410  0.00  0.00    -0.169 F 
ATOM     19  F3  <0> d          -3.687  -1.939  -1.059  0.00  0.00    -0.169 F 
ENDBRANCH  14  16
BRANCH  14  20
ATOM     20  N1  <0> d          -1.484  -0.797  -2.421  0.00  0.00     0.091 N 
ATOM     21  H11 <0> d          -1.529  -1.801  -2.326  0.00  0.00     0.313 HD
ATOM     22  H12 <0> d          -1.887  -0.498  -3.296  0.00  0.00     0.313 HD
ENDBRANCH  14  20
ENDBRANCH   1  14
TORSDOF 6
