REMARK  1 active torsions:
REMARK  status: ('A' for Active; 'I' for Inactive)
REMARK    1  A    between atoms: C6_8  and  C7_10 
ROOT
ATOM      1  C1  <0> d          -0.837   1.637  -1.186  0.00  0.00    -0.022 C 
ATOM      2  C2  <0> d          -1.984   2.404  -0.456  0.00  0.00     0.056 C 
ATOM      3  H1  <0> d          -2.863   2.627  -1.061  0.00  0.00     0.089 H 
ATOM      4  C3  <0> d          -1.303   3.611   0.195  0.00  0.00    -0.077 C 
ATOM      5  C4  <0> d          -0.601   3.142   1.212  0.00  0.00    -0.076 C 
ATOM      6  C5  <0> d          -0.819   1.627   1.230  0.00  0.00     0.068 C 
ATOM      7  H2  <0> d          -0.623   1.132   2.182  0.00  0.00     0.091 H 
ATOM      8  C6  <0> d          -0.013   1.086   0.008  0.00  0.00     0.061 C 
ATOM      9  H3  <0> d           0.002  -0.004   0.002  0.00  0.00     0.061 H 
ATOM     10  O2  <0> d          -2.193   1.547   0.717  0.00  0.00    -0.372 OA
ATOM     11  H4  <0> d          -0.238   2.316  -1.794  0.00  0.00     0.038 H 
ATOM     12  H5  <0> d          -1.236   0.823  -1.793  0.00  0.00     0.038 H 
ATOM     13  H6  <0> d          -1.381   4.642  -0.115  0.00  0.00     0.080 H 
ATOM     14  H7  <0> d           0.007   3.715   1.897  0.00  0.00     0.080 H 
ENDROOT
BRANCH   8  15
ATOM     15  C7  <0> d           1.388   1.641  -0.002  0.00  0.00     0.179 C 
ATOM     16  O1  <0> d           1.761   2.356   0.898  0.00  0.00    -0.648 OA
ATOM     17  O3  <0> d           2.221   1.342  -1.012  0.00  0.00    -0.648 OA
ENDBRANCH   8  15
TORSDOF 1
