REMARK  2 active torsions:
REMARK  status: ('A' for Active; 'I' for Inactive)
REMARK    1  A    between atoms: C2_2  and  C3_7 
REMARK    2  A    between atoms: C3_7  and  O1_8 
ROOT
ATOM      1  C1  <0> d          -1.868   2.362   1.307  0.00  0.00     0.051 A 
ATOM      2  C2  <0> d          -0.718   1.572   1.248  0.00  0.00     0.098 A 
ATOM      3  N1  <0> d          -0.380   1.334   2.495  0.00  0.00    -0.158 NA
ATOM      4  N2  <0> d          -1.223   1.920   3.270  0.00  0.00    -0.197 N 
ATOM      5  H1  <0> d          -1.186   1.900   4.269  0.00  0.00     0.212 HD
ATOM      6  N3  <0> d          -2.120   2.536   2.584  0.00  0.00    -0.168 NA
ATOM      7  H2  <0> d          -2.434   2.751   0.473  0.00  0.00     0.120 H 
ENDROOT
BRANCH   2   8
ATOM      8  C3  <0> d          -0.013   1.086   0.008  0.00  0.00     0.059 C 
ATOM      9  H3  <0> d           0.002  -0.004   0.002  0.00  0.00     0.083 H 
ATOM     10  H4  <0> d           1.010   1.463   0.000  0.00  0.00     0.083 H 
BRANCH   8  11
ATOM     11  O1  <0> d          -0.704   1.559  -1.150  0.00  0.00    -0.395 OA
ATOM     12  H5  <0> d          -0.304   1.284  -1.986  0.00  0.00     0.209 HD
ENDBRANCH   8  11
ENDBRANCH   2   8
TORSDOF 2
