REMARK  7 active torsions:
REMARK  status: ('A' for Active; 'I' for Inactive)
REMARK    1  A    between atoms: C1_1  and  C2_2 
REMARK    2  A    between atoms: C2_2  and  O1_3 
REMARK    3  A    between atoms: O1_3  and  C3_4 
REMARK       I    between atoms: C3_4  and  N1_6 
REMARK    4  A    between atoms: N1_6  and  C4_7 
REMARK    5  A    between atoms: N1_6  and  C5_9 
REMARK    6  A    between atoms: C4_7  and  O3_8 
REMARK    7  A    between atoms: C5_9  and  O4_10 
ROOT
ATOM      1  C3  <0> d           2.163   2.009  -2.231  0.00  0.00     0.366 C 
ATOM      2  O2  <0> d           2.762   1.664  -3.231  0.00  0.00    -0.238 OA
ATOM      3  N1  <0> d           2.008   1.146  -1.207  0.00  0.00    -0.286 N 
ENDROOT
BRANCH   3   4
ATOM      4  C4  <0> d           1.286   1.562  -0.002  0.00  0.00     0.083 C 
ATOM      5  H6  <0> d           1.186   2.647   0.005  0.00  0.00     0.107 H 
ATOM      6  H7  <0> d           1.840   1.243   0.881  0.00  0.00     0.107 H 
BRANCH   4   7
ATOM      7  O3  <0> d          -0.011   0.963   0.007  0.00  0.00    -0.382 OA
ATOM      8  H8  <0> d           0.002  -0.004   0.002  0.00  0.00     0.211 HD
ENDBRANCH   4   7
ENDBRANCH   3   4
BRANCH   3   9
ATOM      9  C5  <0> d           2.560  -0.208  -1.300  0.00  0.00     0.083 C 
ATOM     10  H9  <0> d           3.273  -0.254  -2.123  0.00  0.00     0.107 H 
ATOM     11  H10 <0> d           3.065  -0.459  -0.367  0.00  0.00     0.107 H 
BRANCH   9  12
ATOM     12  O4  <0> d           1.502  -1.139  -1.534  0.00  0.00    -0.382 OA
ATOM     13  H11 <0> d           1.795  -2.058  -1.607  0.00  0.00     0.211 HD
ENDBRANCH   9  12
ENDBRANCH   3   9
BRANCH   1  14
ATOM     14  O1  <0> d           1.656   3.253  -2.146  0.00  0.00    -0.304 OA
BRANCH  14  15
ATOM     15  C2  <0> d           1.861   4.128  -3.286  0.00  0.00     0.027 C 
ATOM     16  H4  <0> d           2.930   4.259  -3.456  0.00  0.00     0.074 H 
ATOM     17  H5  <0> d           1.404   3.685  -4.171  0.00  0.00     0.074 H 
BRANCH  15  18
ATOM     18  C1  <0> d           1.219   5.488  -3.007  0.00  0.00    -0.056 C 
ATOM     19  H1  <0> d           0.150   5.358  -2.837  0.00  0.00     0.030 H 
ATOM     20  H2  <0> d           1.676   5.931  -2.122  0.00  0.00     0.030 H 
ATOM     21  H3  <0> d           1.373   6.146  -3.863  0.00  0.00     0.030 H 
ENDBRANCH  15  18
ENDBRANCH  14  15
ENDBRANCH   1  14
TORSDOF 7
