REMARK  2 active torsions:
REMARK  status: ('A' for Active; 'I' for Inactive)
REMARK    1  A    between atoms: C1_1  and  N1_2 
REMARK       I    between atoms: N1_2  and  C2_3 
REMARK       I    between atoms: C2_3  and  N2_5 
REMARK    2  A    between atoms: C3_6  and  N6_10 
ROOT
ATOM      1  N1  <0> d          -0.011   0.966   0.007  0.00  0.00    -0.345 N 
ATOM      2  C2  <0> d          -1.187   1.624   0.017  0.00  0.00     0.359 C 
ATOM      3  O1  <0> d          -1.204   2.838   0.023  0.00  0.00    -0.244 OA
ATOM      4  N2  <0> d          -2.345   0.934   0.018  0.00  0.00     0.014 N 
ATOM      5  C3  <0> d          -3.614   1.440   0.027  0.00  0.00     0.746 A 
ATOM      6  N3  <0> d          -4.435   0.413   0.025  0.00  0.00     0.065 NA
ATOM      7  N4  <0> d          -3.778  -0.690   0.016  0.00  0.00    -0.007 NA
ATOM      8  N5  <0> d          -2.509  -0.462   0.005  0.00  0.00    -0.021 NA
ATOM      9  H4  <0> d           0.002  -0.004   0.002  0.00  0.00     0.163 HD
ENDROOT
BRANCH   5  10
ATOM     10  N6  <0> d          -3.967   2.775   0.035  0.00  0.00    -0.229 N 
ATOM     11  H5  <0> d          -3.279   3.459   0.036  0.00  0.00     0.174 HD
ATOM     12  H6  <0> d          -4.903   3.029   0.041  0.00  0.00     0.174 HD
ENDBRANCH   5  10
BRANCH   1  13
ATOM     13  C1  <0> d           1.248   1.716  -0.001  0.00  0.00    -0.017 C 
ATOM     14  H1  <0> d           2.086   1.019  -0.012  0.00  0.00     0.056 H 
ATOM     15  H2  <0> d           1.288   2.348  -0.888  0.00  0.00     0.056 H 
ATOM     16  H3  <0> d           1.305   2.338   0.892  0.00  0.00     0.056 H 
ENDBRANCH   1  13
TORSDOF 2
