REMARK  0 active torsions:
REMARK  status: ('A' for Active; 'I' for Inactive)
ROOT
ATOM      1  C1  <0> d           1.053  -2.744  -1.332  0.00  0.00    -0.040 C 
ATOM      2  C2  <0> d           0.946  -1.281  -1.845  0.00  0.00    -0.011 C 
ATOM      3  C3  <0> d           1.227  -0.468  -0.567  0.00  0.00     0.164 C 
ATOM      4  C4  <0> d           2.086   0.762  -0.916  0.00  0.00    -0.011 C 
ATOM      5  C5  <0> d           1.473   1.859  -0.002  0.00  0.00    -0.040 C 
ATOM      6  C6  <0> d          -0.017   1.433   0.010  0.00  0.00     0.023 C 
ATOM      7  O1  <0> d           0.002  -0.004   0.002  0.00  0.00    -0.355 OA
ATOM      8  O2  <0> d           1.926  -1.313   0.349  0.00  0.00    -0.355 OA
ATOM      9  C7  <0> d           2.156  -2.599  -0.253  0.00  0.00     0.023 C 
ATOM     10  H1  <0> d           1.370  -3.417  -2.129  0.00  0.00     0.036 H 
ATOM     11  H2  <0> d           0.113  -3.075  -0.891  0.00  0.00     0.036 H 
ATOM     12  H3  <0> d          -0.055  -1.074  -2.224  0.00  0.00     0.041 H 
ATOM     13  H4  <0> d           1.700  -1.080  -2.606  0.00  0.00     0.041 H 
ATOM     14  H5  <0> d           3.133   0.588  -0.665  0.00  0.00     0.041 H 
ATOM     15  H6  <0> d           1.979   1.024  -1.968  0.00  0.00     0.041 H 
ATOM     16  H7  <0> d           1.595   2.849  -0.441  0.00  0.00     0.036 H 
ATOM     17  H8  <0> d           1.900   1.820   1.000  0.00  0.00     0.036 H 
ATOM     18  H9  <0> d          -0.525   1.810  -0.878  0.00  0.00     0.074 H 
ATOM     19  H10 <0> d          -0.508   1.800   0.911  0.00  0.00     0.074 H 
ATOM     20  H11 <0> d           3.143  -2.629  -0.715  0.00  0.00     0.074 H 
ATOM     21  H12 <0> d           2.064  -3.388   0.493  0.00  0.00     0.074 H 
ENDROOT
TORSDOF 0
