REMARK  1 active torsions:
REMARK  status: ('A' for Active; 'I' for Inactive)
REMARK    1  A    between atoms: C1_1  and  C2_2 
REMARK       I    between atoms: N1_5  and  C5_7 
REMARK       I    between atoms: C5_7  and  N3_9 
ROOT
ATOM      1  C2  <0> d          -3.749  -0.753   0.017  0.00  0.00     0.053 A 
ATOM      2  C3  <0> d          -4.478   0.444   0.027  0.00  0.00    -0.041 A 
ATOM      3  C4  <0> d          -3.598   1.468   0.033  0.00  0.00     0.011 A 
ATOM      4  N1  <0> d          -2.345   0.934   0.018  0.00  0.00    -0.194 N 
ATOM      5  N2  <0> d          -2.476  -0.461   0.012  0.00  0.00    -0.169 NA
ATOM      6  C5  <0> d          -1.187   1.624   0.017  0.00  0.00     0.340 C 
ATOM      7  O1  <0> d          -1.204   2.839   0.023  0.00  0.00    -0.245 OA
ATOM      8  N3  <0> d          -0.011   0.966   0.007  0.00  0.00    -0.350 N 
ATOM      9  H4  <0> d          -5.555   0.532   0.033  0.00  0.00     0.088 H 
ATOM     10  H5  <0> d          -3.843   2.520   0.044  0.00  0.00     0.115 H 
ATOM     11  H6  <0> d           0.002  -0.004   0.002  0.00  0.00     0.160 HD
ATOM     12  H7  <0> d           0.822   1.462   0.002  0.00  0.00     0.160 HD
ENDROOT
BRANCH   1  13
ATOM     13  C1  <0> d          -4.335  -2.142   0.013  0.00  0.00    -0.034 C 
ATOM     14  H1  <0> d          -4.471  -2.482   1.039  0.00  0.00     0.035 H 
ATOM     15  H2  <0> d          -5.298  -2.128  -0.496  0.00  0.00     0.035 H 
ATOM     16  H3  <0> d          -3.658  -2.820  -0.508  0.00  0.00     0.035 H 
ENDBRANCH   1  13
TORSDOF 1
