REMARK  3 active torsions:
REMARK  status: ('A' for Active; 'I' for Inactive)
REMARK    1  A    between atoms: C1_1  and  C2_2 
REMARK    2  A    between atoms: N1_4  and  C7_11 
REMARK    3  A    between atoms: N2_7  and  C6_10 
ROOT
ATOM      1  C2  <0> d           0.002  -0.004   0.002  0.00  0.00     0.022 A 
ATOM      2  C3  <0> d           0.006  -0.682  -1.166  0.00  0.00    -0.005 A 
ATOM      3  N1  <0> d           0.024  -2.050  -1.155  0.00  0.00    -0.313 N 
ATOM      4  C4  <0> d           0.039  -2.726   0.008  0.00  0.00     0.330 A 
ATOM      5  O1  <0> d           0.055  -3.942  -0.006  0.00  0.00    -0.246 OA
ATOM      6  N2  <0> d           0.036  -2.076   1.186  0.00  0.00    -0.270 N 
ATOM      7  C5  <0> d           0.024  -0.728   1.219  0.00  0.00     0.258 A 
ATOM      8  O2  <0> d           0.026  -0.139   2.284  0.00  0.00    -0.267 OA
ATOM      9  H4  <0> d          -0.006  -0.147  -2.104  0.00  0.00     0.112 H 
ENDROOT
BRANCH   1  10
ATOM     10  C1  <0> d          -0.018   1.503   0.010  0.00  0.00    -0.045 C 
ATOM     11  H1  <0> d           1.004   1.880   0.003  0.00  0.00     0.033 H 
ATOM     12  H2  <0> d          -0.545   1.864  -0.873  0.00  0.00     0.033 H 
ATOM     13  H3  <0> d          -0.529   1.854   0.907  0.00  0.00     0.033 H 
ENDBRANCH   1  10
BRANCH   6  14
ATOM     14  C6  <0> d           0.051  -2.836   2.439  0.00  0.00    -0.007 C 
ATOM     15  H5  <0> d           1.083  -3.011   2.745  0.00  0.00     0.057 H 
ATOM     16  H6  <0> d          -0.466  -2.270   3.213  0.00  0.00     0.057 H 
ATOM     17  H7  <0> d          -0.451  -3.791   2.290  0.00  0.00     0.057 H 
ENDBRANCH   6  14
BRANCH   3  18
ATOM     18  C7  <0> d           0.029  -2.785  -2.422  0.00  0.00    -0.010 C 
ATOM     19  H8  <0> d           1.057  -2.954  -2.741  0.00  0.00     0.057 H 
ATOM     20  H9  <0> d          -0.472  -3.744  -2.287  0.00  0.00     0.057 H 
ATOM     21  H10 <0> d          -0.497  -2.205  -3.181  0.00  0.00     0.057 H 
ENDBRANCH   3  18
TORSDOF 3
