REMARK  4 active torsions:
REMARK  status: ('A' for Active; 'I' for Inactive)
REMARK    1  A    between atoms: C1_1  and  C2_2 
REMARK    2  A    between atoms: C3_3  and  C4_4 
REMARK    3  A    between atoms: C7_7  and  O1_10 
REMARK    4  A    between atoms: O1_10  and  C10_11 
ROOT
ATOM      1  C4  <0> d          -2.683   0.451   0.429  0.00  0.00    -0.036 A 
ATOM      2  C5  <0> d          -1.987  -0.166  -0.611  0.00  0.00    -0.070 A 
ATOM      3  C6  <0> d          -2.661  -0.964  -1.511  0.00  0.00    -0.050 A 
ATOM      4  C7  <0> d          -4.033  -1.145  -1.389  0.00  0.00     0.068 A 
ATOM      5  C8  <0> d          -4.729  -0.528  -0.358  0.00  0.00    -0.050 A 
ATOM      6  C9  <0> d          -4.061   0.267   0.548  0.00  0.00    -0.070 A 
ATOM      7  H6  <0> d          -0.921  -0.023  -0.709  0.00  0.00     0.084 H 
ATOM      8  H7  <0> d          -2.123  -1.445  -2.314  0.00  0.00     0.087 H 
ATOM      9  H8  <0> d          -5.796  -0.671  -0.267  0.00  0.00     0.087 H 
ATOM     10  H9  <0> d          -4.604   0.747   1.349  0.00  0.00     0.084 H 
ENDROOT
BRANCH   1  11
ATOM     11  C3  <0> d          -1.963   1.303   1.399  0.00  0.00    -0.077 C 
ATOM     12  C2  <0> d          -0.824   0.883   1.933  0.00  0.00    -0.106 C 
ATOM     13  H4  <0> d          -0.357   1.450   2.724  0.00  0.00     0.076 H 
ATOM     14  H5  <0> d          -2.364   2.268   1.672  0.00  0.00     0.084 H 
BRANCH  12  15
ATOM     15  C1  <0> d          -0.181  -0.386   1.435  0.00  0.00    -0.060 C 
ATOM     16  H1  <0> d          -0.905  -1.200   1.475  0.00  0.00     0.032 H 
ATOM     17  H2  <0> d           0.675  -0.630   2.063  0.00  0.00     0.032 H 
ATOM     18  H3  <0> d           0.151  -0.246   0.406  0.00  0.00     0.032 H 
ENDBRANCH  12  15
ENDBRANCH   1  11
BRANCH   4  19
ATOM     19  O1  <0> d          -4.695  -1.927  -2.281  0.00  0.00    -0.356 OA
BRANCH  19  20
ATOM     20  C10 <0> d          -3.917  -2.532  -3.316  0.00  0.00     0.010 C 
ATOM     21  H10 <0> d          -4.566  -3.128  -3.957  0.00  0.00     0.066 H 
ATOM     22  H11 <0> d          -3.435  -1.755  -3.910  0.00  0.00     0.066 H 
ATOM     23  H12 <0> d          -3.157  -3.174  -2.872  0.00  0.00     0.066 H 
ENDBRANCH  19  20
ENDBRANCH   4  19
TORSDOF 4
