REMARK  1 active torsions:
REMARK  status: ('A' for Active; 'I' for Inactive)
REMARK    1  A    between atoms: C1_1  and  C2_2 
ROOT
ATOM      1  C2  <0> d           0.002  -0.004   0.002  0.00  0.00     0.019 A 
ATOM      2  N1  <0> d           0.006  -0.658  -1.110  0.00  0.00    -0.238 NA
ATOM      3  C3  <0> d           0.025  -2.017  -1.176  0.00  0.00     0.155 A 
ATOM      4  C4  <0> d           0.031  -2.846  -2.271  0.00  0.00    -0.018 A 
ATOM      5  C5  <0> d           0.051  -4.165  -1.812  0.00  0.00     0.026 A 
ATOM      6  N2  <0> d           0.057  -4.154  -0.505  0.00  0.00    -0.175 NA
ATOM      7  N3  <0> d           0.041  -2.821  -0.071  0.00  0.00    -0.183 N 
ATOM      8  C6  <0> d           0.040  -2.297   1.176  0.00  0.00     0.251 A 
ATOM      9  O1  <0> d           0.055  -3.006   2.154  0.00  0.00    -0.271 OA
ATOM     10  C7  <0> d           0.025  -0.786   1.299  0.00  0.00     0.047 A 
ATOM     11  H4  <0> d           0.022  -2.533  -3.304  0.00  0.00     0.091 H 
ATOM     12  H5  <0> d           0.060  -5.047  -2.434  0.00  0.00     0.117 H 
ATOM     13  H6  <0> d           0.907  -0.482   1.862  0.00  0.00     0.056 H 
ATOM     14  H7  <0> d          -0.855  -0.506   1.878  0.00  0.00     0.056 H 
ENDROOT
BRANCH   1  15
ATOM     15  C1  <0> d          -0.018   1.503   0.010  0.00  0.00    -0.038 C 
ATOM     16  H1  <0> d           1.004   1.880   0.003  0.00  0.00     0.035 H 
ATOM     17  H2  <0> d          -0.545   1.864  -0.873  0.00  0.00     0.035 H 
ATOM     18  H3  <0> d          -0.529   1.854   0.907  0.00  0.00     0.035 H 
ENDBRANCH   1  15
TORSDOF 1
