REMARK  4 active torsions:
REMARK  status: ('A' for Active; 'I' for Inactive)
REMARK    1  A    between atoms: C1_1  and  C2_2 
REMARK    2  A    between atoms: C6_6  and  C7_8 
REMARK    3  A    between atoms: C7_8  and  C8_10 
REMARK    4  A    between atoms: C7_8  and  O1_11 
ROOT
ATOM      1  C2  <0> d           2.285   1.475  -0.012  0.00  0.00     0.031 A 
ATOM      2  C3  <0> d           2.382   0.096  -0.020  0.00  0.00    -0.059 A 
ATOM      3  C4  <0> d           1.222  -0.663  -0.013  0.00  0.00    -0.079 A 
ATOM      4  C5  <0> d           0.002  -0.004   0.002  0.00  0.00    -0.057 A 
ATOM      5  C6  <0> d          -0.017   1.378   0.010  0.00  0.00     0.063 A 
ATOM      6  N1  <0> d           1.107   2.068   0.003  0.00  0.00    -0.256 NA
ATOM      7  H5  <0> d           3.349  -0.384  -0.033  0.00  0.00     0.086 H 
ATOM      8  H6  <0> d           1.267  -1.742  -0.019  0.00  0.00     0.083 H 
ATOM      9  H7  <0> d          -0.922  -0.564   0.008  0.00  0.00     0.086 H 
ENDROOT
BRANCH   5  10
ATOM     10  C7  <0> d          -1.337   2.104   0.020  0.00  0.00     0.074 C 
ATOM     11  H1  <0> d          -1.450   2.665  -0.908  0.00  0.00     0.092 H 
BRANCH  10  12
ATOM     12  C8  <0> d          -1.379   3.069   1.207  0.00  0.00    -0.047 C 
ATOM     13  H8  <0> d          -0.567   3.791   1.117  0.00  0.00     0.031 H 
ATOM     14  H9  <0> d          -2.334   3.595   1.214  0.00  0.00     0.031 H 
ATOM     15  H10 <0> d          -1.266   2.508   2.135  0.00  0.00     0.031 H 
ENDBRANCH  10  12
BRANCH  10  16
ATOM     16  O1  <0> d          -2.401   1.158   0.137  0.00  0.00    -0.390 OA
ATOM     17  H11 <0> d          -2.364   0.622   0.941  0.00  0.00     0.210 HD
ENDBRANCH  10  16
ENDBRANCH   5  10
BRANCH   1  18
ATOM     18  C1  <0> d           3.539   2.310  -0.019  0.00  0.00    -0.035 C 
ATOM     19  H2  <0> d           3.832   2.517  -1.048  0.00  0.00     0.035 H 
ATOM     20  H3  <0> d           3.353   3.249   0.502  0.00  0.00     0.035 H 
ATOM     21  H4  <0> d           4.340   1.767   0.485  0.00  0.00     0.035 H 
ENDBRANCH   1  18
TORSDOF 4
