REMARK  4 active torsions:
REMARK  status: ('A' for Active; 'I' for Inactive)
REMARK    1  A    between atoms: C1_1  and  C2_2 
REMARK    2  A    between atoms: C2_2  and  C3_4 
REMARK    3  A    between atoms: C2_2  and  C5_9 
REMARK    4  A    between atoms: C3_4  and  C4_5 
ROOT
ATOM      1  C2  <0> d          -0.068   1.280   2.505  0.00  0.00     0.035 C 
ATOM      2  H1  <0> d           0.979   1.585   2.490  0.00  0.00     0.056 H 
ENDROOT
BRANCH   1   3
ATOM      3  C1  <0> d          -0.156  -0.245   2.433  0.00  0.00    -0.063 C 
ATOM      4  H2  <0> d           0.429  -0.604   1.586  0.00  0.00     0.028 H 
ATOM      5  H3  <0> d           0.238  -0.676   3.354  0.00  0.00     0.028 H 
ATOM      6  H4  <0> d          -1.197  -0.544   2.309  0.00  0.00     0.028 H 
ENDBRANCH   1   3
BRANCH   1   7
ATOM      7  C3  <0> d          -0.794   1.890   1.304  0.00  0.00     0.038 C 
ATOM      8  H5  <0> d          -0.810   2.976   1.402  0.00  0.00     0.047 H 
ATOM      9  H6  <0> d          -1.817   1.514   1.269  0.00  0.00     0.047 H 
BRANCH   7  10
ATOM     10  C4  <0> d          -0.064   1.504   0.017  0.00  0.00     0.388 C 
ATOM     11  F1  <0> d          -0.165   0.122  -0.180  0.00  0.00    -0.171 F 
ATOM     12  F2  <0> d           1.284   1.863   0.119  0.00  0.00    -0.171 F 
ATOM     13  F3  <0> d          -0.644   2.172  -1.067  0.00  0.00    -0.171 F 
ENDBRANCH   7  10
ENDBRANCH   1   7
BRANCH   1  14
ATOM     14  C5  <0> d          -0.713   1.761   3.780  0.00  0.00     0.176 C 
ATOM     15  O1  <0> d          -1.656   2.514   3.732  0.00  0.00    -0.648 OA
ATOM     16  O2  <0> d          -0.238   1.353   4.967  0.00  0.00    -0.648 OA
ENDBRANCH   1  14
TORSDOF 4
