REMARK  1 active torsions:
REMARK  status: ('A' for Active; 'I' for Inactive)
REMARK    1  A    between atoms: C1_1  and  N1_2 
ROOT
ATOM      1  N1  <0> d           0.600   3.169   0.013  0.00  0.00    -0.335 N 
ATOM      2  C2  <0> d          -0.750   3.104   0.026  0.00  0.00     0.066 A 
ATOM      3  N2  <0> d          -1.109   1.849   0.017  0.00  0.00    -0.253 NA
ATOM      4  C3  <0> d          -0.013   1.076   0.008  0.00  0.00     0.041 A 
ATOM      5  C4  <0> d           1.067   1.883   0.002  0.00  0.00     0.123 A 
ATOM      6 Cl1  <0> d           2.730   1.386  -0.017  0.00  0.00    -0.063 Cl
ATOM      7  H4  <0> d          -1.421   3.950   0.036  0.00  0.00     0.143 H 
ATOM      8  H5  <0> d           0.002  -0.004   0.002  0.00  0.00     0.119 H 
ENDROOT
BRANCH   1   9
ATOM      9  C1  <0> d           1.411   4.389   0.013  0.00  0.00    -0.012 C 
ATOM     10  H1  <0> d           1.603   4.697  -1.015  0.00  0.00     0.057 H 
ATOM     11  H2  <0> d           0.876   5.182   0.536  0.00  0.00     0.057 H 
ATOM     12  H3  <0> d           2.358   4.196   0.517  0.00  0.00     0.057 H 
ENDBRANCH   1   9
TORSDOF 1
