REMARK  3 active torsions:
REMARK  status: ('A' for Active; 'I' for Inactive)
REMARK    1  A    between atoms: C1_1  and  C2_2 
REMARK    2  A    between atoms: C2_2  and  C3_4 
REMARK    3  A    between atoms: C6_7  and  C9_10 
ROOT
ATOM      1  C9  <0> d           1.162   3.509   0.002  0.00  0.00    -0.078 C 
ATOM      2  C10 <0> d           1.145   4.683   0.007  0.00  0.00    -0.149 C 
ATOM      3  H8  <0> d           1.129   5.733   0.011  0.00  0.00     0.166 H 
ENDROOT
BRANCH   1   4
ATOM      4  C6  <0> d           1.183   2.077  -0.004  0.00  0.00     0.017 A 
ATOM      5  C5  <0> d          -0.017   1.361  -0.005  0.00  0.00    -0.064 A 
ATOM      6  C4  <0> d           0.002  -0.004  -0.011  0.00  0.00    -0.068 A 
ATOM      7  H5  <0> d          -0.960   1.888  -0.006  0.00  0.00     0.085 H 
ATOM      8  C3  <0> d           1.224  -0.687  -0.015  0.00  0.00     0.009 A 
ATOM      9  H4  <0> d          -0.926  -0.557  -0.012  0.00  0.00     0.085 H 
ATOM     10  C8  <0> d           2.426   0.032  -0.014  0.00  0.00    -0.068 A 
ATOM     11  C7  <0> d           2.405   1.397  -0.008  0.00  0.00    -0.064 A 
ATOM     12  H7  <0> d           3.370  -0.494  -0.017  0.00  0.00     0.085 H 
ATOM     13  H6  <0> d           3.331   1.952  -0.007  0.00  0.00     0.085 H 
BRANCH   8  14
ATOM     14  C2  <0> d           1.246  -2.156  -0.021  0.00  0.00     0.155 C 
ATOM     15  O1  <0> d           0.210  -2.779   0.079  0.00  0.00    -0.293 OA
BRANCH  14  16
ATOM     16  C1  <0> d           2.556  -2.890  -0.151  0.00  0.00    -0.017 C 
ATOM     17  H1  <0> d           3.309  -2.232  -0.139  0.00  0.00     0.038 H 
ATOM     18  H2  <0> d           2.667  -3.585   0.681  0.00  0.00     0.038 H 
ATOM     19  H3  <0> d           2.571  -3.443  -1.090  0.00  0.00     0.038 H 
ENDBRANCH  14  16
ENDBRANCH   8  14
ENDBRANCH   1   4
TORSDOF 3
