REMARK  2 active torsions:
REMARK  status: ('A' for Active; 'I' for Inactive)
REMARK    1  A    between atoms: C1_1  and  N1_2 
REMARK    2  A    between atoms: C5_6  and  C6_7 
ROOT
ATOM      1  N1  <0> d           2.091   0.690  -0.014  0.00  0.00    -0.356 N 
ATOM      2  C2  <0> d           1.297  -0.402  -0.013  0.00  0.00    -0.020 A 
ATOM      3  C3  <0> d           0.002  -0.004   0.002  0.00  0.00    -0.066 A 
ATOM      4  C4  <0> d          -0.017   1.394   0.010  0.00  0.00    -0.049 A 
ATOM      5  C5  <0> d           1.297   1.814  -0.001  0.00  0.00     0.111 A 
ATOM      6  H4  <0> d           1.639  -1.426  -0.022  0.00  0.00     0.111 H 
ATOM      7  H5  <0> d          -0.862  -0.652   0.007  0.00  0.00     0.085 H 
ATOM      8  H6  <0> d          -0.893   2.025   0.018  0.00  0.00     0.087 H 
ENDROOT
BRANCH   1   9
ATOM      9  C1  <0> d           3.556   0.679  -0.029  0.00  0.00    -0.014 C 
ATOM     10  H1  <0> d           3.909   0.682  -1.060  0.00  0.00     0.057 H 
ATOM     11  H2  <0> d           3.931   1.564   0.486  0.00  0.00     0.057 H 
ATOM     12  H3  <0> d           3.918  -0.216   0.476  0.00  0.00     0.057 H 
ENDBRANCH   1   9
BRANCH   5  13
ATOM     13  C6  <0> d           1.763   3.204   0.002  0.00  0.00     0.227 C 
ATOM     14  O1  <0> d           0.957   4.115   0.015  0.00  0.00    -0.643 OA
ATOM     15  O2  <0> d           3.084   3.472  -0.009  0.00  0.00    -0.643 OA
ENDBRANCH   5  13
TORSDOF 2
