REMARK  5 active torsions:
REMARK  status: ('A' for Active; 'I' for Inactive)
REMARK    1  A    between atoms: C1_1  and  C2_2 
REMARK    2  A    between atoms: C2_2  and  O1_3 
REMARK    3  A    between atoms: O1_3  and  C3_4 
REMARK    4  A    between atoms: C3_4  and  C4_5 
REMARK    5  A    between atoms: C4_5  and  C5_6 
ROOT
ATOM      1  C4  <0> d          -0.729   1.579   1.267  0.00  0.00    -0.021 C 
ATOM      2  H8  <0> d          -0.744   2.669   1.273  0.00  0.00     0.043 H 
ATOM      3  H9  <0> d          -1.751   1.202   1.275  0.00  0.00     0.043 H 
ENDROOT
BRANCH   1   4
ATOM      4  C3  <0> d          -0.013   1.086   0.008  0.00  0.00     0.023 C 
ATOM      5  H6  <0> d           0.002  -0.004   0.002  0.00  0.00     0.074 H 
ATOM      6  H7  <0> d           1.010   1.463   0.000  0.00  0.00     0.074 H 
BRANCH   4   7
ATOM      7  O1  <0> d          -0.704   1.559  -1.150  0.00  0.00    -0.391 OA
BRANCH   7   8
ATOM      8  C2  <0> d          -0.114   1.152  -2.386  0.00  0.00     0.016 C 
ATOM      9  H4  <0> d           0.907   1.531  -2.443  0.00  0.00     0.073 H 
ATOM     10  H5  <0> d          -0.101   0.064  -2.442  0.00  0.00     0.073 H 
BRANCH   8  11
ATOM     11  C1  <0> d          -0.932   1.713  -3.551  0.00  0.00    -0.056 C 
ATOM     12  H1  <0> d          -0.482   1.403  -4.494  0.00  0.00     0.030 H 
ATOM     13  H2  <0> d          -1.952   1.334  -3.493  0.00  0.00     0.030 H 
ATOM     14  H3  <0> d          -0.945   2.801  -3.495  0.00  0.00     0.030 H 
ENDBRANCH   8  11
ENDBRANCH   7   8
ENDBRANCH   4   7
ENDBRANCH   1   4
BRANCH   1  15
ATOM     15  C5  <0> d           0.000   1.080   2.488  0.00  0.00    -0.056 A 
ATOM     16  C10 <0> d           1.012   1.838   3.046  0.00  0.00    -0.077 A 
ATOM     17  C9  <0> d           1.680   1.380   4.167  0.00  0.00    -0.082 A 
ATOM     18  H14 <0> d           1.280   2.788   2.608  0.00  0.00     0.084 H 
ATOM     19  C8  <0> d           1.337   0.164   4.728  0.00  0.00    -0.083 A 
ATOM     20  H13 <0> d           2.471   1.972   4.603  0.00  0.00     0.083 H 
ATOM     21  C7  <0> d           0.325  -0.593   4.169  0.00  0.00    -0.082 A 
ATOM     22  H12 <0> d           1.859  -0.193   5.603  0.00  0.00     0.083 H 
ATOM     23  C6  <0> d          -0.347  -0.133   3.052  0.00  0.00    -0.077 A 
ATOM     24  H11 <0> d           0.056  -1.543   4.608  0.00  0.00     0.083 H 
ATOM     25  H10 <0> d          -1.141  -0.723   2.618  0.00  0.00     0.084 H 
ENDBRANCH   1  15
TORSDOF 5
