REMARK  4 active torsions:
REMARK  status: ('A' for Active; 'I' for Inactive)
REMARK    1  A    between atoms: C1_1  and  C2_2 
REMARK    2  A    between atoms: C2_2  and  O1_3 
REMARK    3  A    between atoms: O1_3  and  C3_4 
REMARK    4  A    between atoms: C7_8  and  O2_10 
ROOT
ATOM      1  C3  <0> d          -1.224   1.753   0.017  0.00  0.00     0.071 A 
ATOM      2  C4  <0> d          -0.013   1.076   0.008  0.00  0.00    -0.051 A 
ATOM      3  C5  <0> d           1.175   1.782   0.000  0.00  0.00    -0.078 A 
ATOM      4  C6  <0> d           1.159   3.164   0.007  0.00  0.00    -0.051 A 
ATOM      5  C7  <0> d          -0.049   3.845   0.022  0.00  0.00     0.068 A 
ATOM      6  C8  <0> d          -1.242   3.139   0.030  0.00  0.00    -0.019 A 
ATOM      7  H6  <0> d           0.002  -0.004   0.002  0.00  0.00     0.087 H 
ATOM      8  H7  <0> d           2.116   1.254  -0.011  0.00  0.00     0.083 H 
ATOM      9  H8  <0> d           2.089   3.714   0.001  0.00  0.00     0.087 H 
ATOM     10  H9  <0> d          -2.184   3.667   0.041  0.00  0.00     0.092 H 
ENDROOT
BRANCH   1  11
ATOM     11  O1  <0> d          -2.392   1.057   0.019  0.00  0.00    -0.351 OA
BRANCH  11  12
ATOM     12  C2  <0> d          -2.298  -0.368   0.012  0.00  0.00     0.023 C 
ATOM     13  H4  <0> d          -1.765  -0.693  -0.882  0.00  0.00     0.074 H 
ATOM     14  H5  <0> d          -1.757  -0.702   0.897  0.00  0.00     0.074 H 
BRANCH  12  15
ATOM     15  C1  <0> d          -3.703  -0.972   0.016  0.00  0.00    -0.056 C 
ATOM     16  H1  <0> d          -4.236  -0.648   0.910  0.00  0.00     0.030 H 
ATOM     17  H2  <0> d          -4.244  -0.639  -0.870  0.00  0.00     0.030 H 
ATOM     18  H3  <0> d          -3.631  -2.060   0.010  0.00  0.00     0.030 H 
ENDBRANCH  12  15
ENDBRANCH  11  12
ENDBRANCH   1  11
BRANCH   5  19
ATOM     19  O2  <0> d          -0.064   5.204   0.029  0.00  0.00    -0.361 OA
ATOM     20  H10 <0> d          -0.076   5.602  -0.853  0.00  0.00     0.217 HD
ENDBRANCH   5  19
TORSDOF 4
