REMARK  5 active torsions:
REMARK  status: ('A' for Active; 'I' for Inactive)
REMARK    1  A    between atoms: C1_1  and  C2_2 
REMARK    2  A    between atoms: C2_2  and  C3_3 
REMARK    3  A    between atoms: C3_3  and  C4_4 
REMARK    4  A    between atoms: N1_7  and  C9_10 
REMARK    5  A    between atoms: C7_8  and  C8_9 
ROOT
ATOM      1  C4  <0> d           0.739  -2.004  -1.265  0.00  0.00    -0.034 A 
ATOM      2  C5  <0> d           1.787  -2.826  -0.805  0.00  0.00    -0.060 A 
ATOM      3  C6  <0> d           1.407  -4.107  -0.987  0.00  0.00    -0.015 A 
ATOM      4  N1  <0> d           0.163  -4.107  -1.552  0.00  0.00    -0.337 N 
ATOM      5  C7  <0> d          -0.240  -2.813  -1.720  0.00  0.00     0.018 A 
ATOM      6  H8  <0> d           2.723  -2.492  -0.382  0.00  0.00     0.086 H 
ATOM      7  H9  <0> d           1.988  -4.982  -0.734  0.00  0.00     0.112 H 
ENDROOT
BRANCH   1   8
ATOM      8  C3  <0> d           0.718  -0.497  -1.257  0.00  0.00    -0.039 C 
ATOM      9  H6  <0> d           0.191  -0.136  -2.140  0.00  0.00     0.040 H 
ATOM     10  H7  <0> d           1.741  -0.120  -1.264  0.00  0.00     0.040 H 
BRANCH   8  11
ATOM     11  C2  <0> d           0.002  -0.004   0.002  0.00  0.00    -0.065 C 
ATOM     12  H4  <0> d           0.529  -0.365   0.885  0.00  0.00     0.032 H 
ATOM     13  H5  <0> d          -1.020  -0.381   0.010  0.00  0.00     0.032 H 
BRANCH  11  14
ATOM     14  C1  <0> d          -0.019   1.526   0.010  0.00  0.00    -0.076 C 
ATOM     15  H1  <0> d           1.004   1.903   0.003  0.00  0.00     0.027 H 
ATOM     16  H2  <0> d          -0.546   1.887  -0.873  0.00  0.00     0.027 H 
ATOM     17  H3  <0> d          -0.529   1.877   0.907  0.00  0.00     0.027 H 
ENDBRANCH  11  14
ENDBRANCH   8  11
ENDBRANCH   1   8
BRANCH   5  18
ATOM     18  C8  <0> d          -1.553  -2.366  -2.310  0.00  0.00    -0.036 C 
ATOM     19  H10 <0> d          -1.444  -2.246  -3.388  0.00  0.00     0.035 H 
ATOM     20  H11 <0> d          -2.318  -3.114  -2.103  0.00  0.00     0.035 H 
ATOM     21  H12 <0> d          -1.845  -1.414  -1.867  0.00  0.00     0.035 H 
ENDBRANCH   5  18
BRANCH   4  22
ATOM     22  C9  <0> d          -0.573  -5.241  -1.899  0.00  0.00    -0.025 C 
ATOM     23  C10 <0> d          -0.073  -6.442  -1.687  0.00  0.00    -0.106 C 
ATOM     24  H14 <0> d          -0.643  -7.319  -1.956  0.00  0.00     0.068 H 
ATOM     25  H15 <0> d           0.906  -6.549  -1.244  0.00  0.00     0.068 H 
ATOM     26  H13 <0> d          -1.552  -5.134  -2.343  0.00  0.00     0.110 H 
ENDBRANCH   4  22
TORSDOF 5
