REMARK  4 active torsions:
REMARK  status: ('A' for Active; 'I' for Inactive)
REMARK    1  A    between atoms: C1_1  and  C2_2 
REMARK    2  A    between atoms: C2_2  and  C3_4 
REMARK    3  A    between atoms: C2_2  and  C5_6 
REMARK    4  A    between atoms: C5_6  and  O1_12 
ROOT
ATOM      1  C5  <0> d          -2.904   1.556   0.038  0.00  0.00     0.064 C 
ATOM      2  C6  <0> d          -2.188   1.063  -1.221  0.00  0.00    -0.036 C 
ATOM      3  C7  <0> d          -0.753   1.593  -1.232  0.00  0.00    -0.062 C 
ATOM      4  C8  <0> d          -0.013   1.086   0.008  0.00  0.00    -0.065 C 
ATOM      5  C9  <0> d          -0.729   1.579   1.267  0.00  0.00    -0.062 C 
ATOM      6  C10 <0> d          -2.164   1.050   1.278  0.00  0.00    -0.036 C 
ATOM      7  H8  <0> d          -2.715   1.424  -2.104  0.00  0.00     0.037 H 
ATOM      8  H9  <0> d          -2.173  -0.027  -1.227  0.00  0.00     0.037 H 
ATOM      9  H10 <0> d          -0.767   2.683  -1.226  0.00  0.00     0.033 H 
ATOM     10  H11 <0> d          -0.242   1.241  -2.128  0.00  0.00     0.033 H 
ATOM     11  H12 <0> d           0.002  -0.004   0.002  0.00  0.00     0.033 H 
ATOM     12  H13 <0> d           1.010   1.463   0.000  0.00  0.00     0.033 H 
ATOM     13  H14 <0> d          -0.202   1.218   2.150  0.00  0.00     0.033 H 
ATOM     14  H15 <0> d          -0.744   2.669   1.273  0.00  0.00     0.033 H 
ATOM     15  H16 <0> d          -2.674   1.401   2.175  0.00  0.00     0.037 H 
ATOM     16  H17 <0> d          -2.149  -0.040   1.272  0.00  0.00     0.037 H 
ENDROOT
BRANCH   1  17
ATOM     17  C2  <0> d          -4.340   1.027   0.049  0.00  0.00    -0.012 C 
ATOM     18  H1  <0> d          -4.867   1.388  -0.834  0.00  0.00     0.050 H 
BRANCH  17  19
ATOM     19  C1  <0> d          -5.056   1.520   1.308  0.00  0.00    -0.067 C 
ATOM     20  H2  <0> d          -4.529   1.159   2.191  0.00  0.00     0.028 H 
ATOM     21  H3  <0> d          -5.071   2.610   1.314  0.00  0.00     0.028 H 
ATOM     22  H4  <0> d          -6.078   1.143   1.315  0.00  0.00     0.028 H 
ENDBRANCH  17  19
BRANCH  17  23
ATOM     23  C3  <0> d          -4.319  -0.480   0.041  0.00  0.00    -0.105 C 
ATOM     24  C4  <0> d          -4.887  -1.137  -0.940  0.00  0.00    -0.124 C 
ATOM     25  H6  <0> d          -4.872  -2.217  -0.946  0.00  0.00     0.066 H 
ATOM     26  H7  <0> d          -5.370  -0.599  -1.742  0.00  0.00     0.066 H 
ATOM     27  H5  <0> d          -3.837  -1.018   0.843  0.00  0.00     0.076 H 
ENDBRANCH  17  23
ENDBRANCH   1  17
BRANCH   1  28
ATOM     28  O1  <0> d          -2.924   2.985   0.046  0.00  0.00    -0.389 OA
ATOM     29  H18 <0> d          -2.046   3.391   0.040  0.00  0.00     0.210 HD
ENDBRANCH   1  28
TORSDOF 4
