REMARK  3 active torsions:
REMARK  status: ('A' for Active; 'I' for Inactive)
REMARK    1  A    between atoms: C1_1  and  C2_2 
REMARK    2  A    between atoms: C2_2  and  C3_4 
REMARK    3  A    between atoms: C6_7  and  O2_10 
ROOT
ATOM      1  C3  <0> d          -0.000  -0.732  -1.274  0.00  0.00     0.009 A 
ATOM      2  C4  <0> d          -0.015  -0.027  -2.484  0.00  0.00    -0.067 A 
ATOM      3  C5  <0> d          -0.017  -0.711  -3.672  0.00  0.00    -0.050 A 
ATOM      4  C6  <0> d          -0.004  -2.102  -3.677  0.00  0.00     0.065 A 
ATOM      5  C7  <0> d           0.011  -2.806  -2.478  0.00  0.00    -0.050 A 
ATOM      6  C8  <0> d           0.019  -2.132  -1.284  0.00  0.00    -0.067 A 
ATOM      7  H4  <0> d          -0.026   1.053  -2.481  0.00  0.00     0.085 H 
ATOM      8  H5  <0> d          -0.029  -0.169  -4.606  0.00  0.00     0.087 H 
ATOM      9  H6  <0> d           0.020  -3.886  -2.487  0.00  0.00     0.087 H 
ATOM     10  H7  <0> d           0.035  -2.679  -0.354  0.00  0.00     0.085 H 
ENDROOT
BRANCH   1  11
ATOM     11  C2  <0> d           0.002  -0.004   0.002  0.00  0.00     0.155 C 
ATOM     12  O1  <0> d           0.020  -0.616   1.049  0.00  0.00    -0.293 OA
BRANCH  11  13
ATOM     13  C1  <0> d          -0.018   1.503   0.010  0.00  0.00    -0.017 C 
ATOM     14  H1  <0> d           1.004   1.880   0.003  0.00  0.00     0.038 H 
ATOM     15  H2  <0> d          -0.545   1.864  -0.873  0.00  0.00     0.038 H 
ATOM     16  H3  <0> d          -0.529   1.854   0.907  0.00  0.00     0.038 H 
ENDBRANCH  11  13
ENDBRANCH   1  11
BRANCH   4  17
ATOM     17  O2  <0> d          -0.006  -2.774  -4.856  0.00  0.00    -0.361 OA
ATOM     18  H8  <0> d           0.877  -2.960  -5.204  0.00  0.00     0.217 HD
ENDBRANCH   4  17
TORSDOF 3
