REMARK  7 active torsions:
REMARK  status: ('A' for Active; 'I' for Inactive)
REMARK    1  A    between atoms: C1_1  and  C2_2 
REMARK    2  A    between atoms: C2_2  and  C3_3 
REMARK    3  A    between atoms: C3_3  and  C4_4 
REMARK    4  A    between atoms: C4_4  and  C5_5 
REMARK    5  A    between atoms: C5_5  and  C6_7 
REMARK    6  A    between atoms: C5_5  and  C8_9 
REMARK    7  A    between atoms: C6_7  and  C7_8 
ROOT
ATOM      1  C8  <0> d           0.018   1.009   2.372  0.00  0.00     0.018 C 
ATOM      2  C9  <0> d          -0.633   1.379   3.640  0.00  0.00     0.059 C 
ATOM      3  N1  <0> d          -1.136   1.665   4.618  0.00  0.00    -0.197 NA
ATOM      4  H16 <0> d           0.062  -0.077   2.290  0.00  0.00     0.055 H 
ATOM      5  H17 <0> d           1.028   1.417   2.350  0.00  0.00     0.055 H 
ENDROOT
BRANCH   1   6
ATOM      6  C5  <0> d          -0.787   1.577   1.201  0.00  0.00    -0.043 C 
ATOM      7  H1  <0> d          -1.821   1.239   1.273  0.00  0.00     0.041 H 
BRANCH   6   8
ATOM      8  C4  <0> d          -0.182   1.089  -0.117  0.00  0.00    -0.061 C 
ATOM      9  H9  <0> d           0.878   1.339  -0.145  0.00  0.00     0.033 H 
ATOM     10  H10 <0> d          -0.692   1.571  -0.951  0.00  0.00     0.033 H 
BRANCH   8  11
ATOM     11  C3  <0> d          -0.351  -0.428  -0.225  0.00  0.00    -0.065 C 
ATOM     12  H7  <0> d           0.235  -0.915   0.554  0.00  0.00     0.033 H 
ATOM     13  H8  <0> d          -1.403  -0.686  -0.103  0.00  0.00     0.033 H 
BRANCH  11  14
ATOM     14  C2  <0> d           0.134  -0.898  -1.598  0.00  0.00    -0.069 C 
ATOM     15  H5  <0> d          -0.452  -0.411  -2.377  0.00  0.00     0.032 H 
ATOM     16  H6  <0> d           1.186  -0.640  -1.720  0.00  0.00     0.032 H 
BRANCH  14  17
ATOM     17  C1  <0> d          -0.035  -2.415  -1.706  0.00  0.00    -0.077 C 
ATOM     18  H2  <0> d           0.551  -2.902  -0.927  0.00  0.00     0.027 H 
ATOM     19  H3  <0> d          -1.087  -2.674  -1.584  0.00  0.00     0.027 H 
ATOM     20  H4  <0> d           0.311  -2.751  -2.684  0.00  0.00     0.027 H 
ENDBRANCH  14  17
ENDBRANCH  11  14
ENDBRANCH   8  11
ENDBRANCH   6   8
BRANCH   6  21
ATOM     21  C6  <0> d          -0.745   3.105   1.247  0.00  0.00    -0.064 C 
ATOM     22  H11 <0> d          -1.080   3.449   2.225  0.00  0.00     0.033 H 
ATOM     23  H12 <0> d           0.276   3.446   1.072  0.00  0.00     0.033 H 
BRANCH  21  24
ATOM     24  C7  <0> d          -1.665   3.673   0.164  0.00  0.00    -0.076 C 
ATOM     25  H13 <0> d          -1.275   3.408  -0.819  0.00  0.00     0.027 H 
ATOM     26  H14 <0> d          -2.665   3.258   0.282  0.00  0.00     0.027 H 
ATOM     27  H15 <0> d          -1.708   4.758   0.257  0.00  0.00     0.027 H 
ENDBRANCH  21  24
ENDBRANCH   6  21
ENDBRANCH   1   6
TORSDOF 7
