REMARK  1 active torsions:
REMARK  status: ('A' for Active; 'I' for Inactive)
REMARK    1  A    between atoms: C8_8  and  C9_10 
REMARK       I    between atoms: C9_10  and  N1_12 
ROOT
ATOM      1  C1  <0> d          -0.013   1.086   0.008  0.00  0.00    -0.061 C 
ATOM      2  C2  <0> d          -0.729   1.579   1.267  0.00  0.00    -0.061 C 
ATOM      3  C3  <0> d          -1.946   2.415   0.867  0.00  0.00    -0.042 C 
ATOM      4  C4  <0> d          -1.490   3.616   0.036  0.00  0.00    -0.061 C 
ATOM      5  C5  <0> d          -0.773   3.123  -1.223  0.00  0.00    -0.061 C 
ATOM      6  C6  <0> d          -0.753   1.593  -1.232  0.00  0.00    -0.053 C 
ATOM      7  C7  <0> d          -2.188   1.063  -1.221  0.00  0.00    -0.050 C 
ATOM      8  C8  <0> d          -2.904   1.556   0.038  0.00  0.00     0.027 C 
ATOM      9  H1  <0> d          -3.230   0.701   0.630  0.00  0.00     0.055 H 
ATOM     10  H2  <0> d           0.002  -0.004   0.002  0.00  0.00     0.033 H 
ATOM     11  H3  <0> d           1.010   1.463   0.000  0.00  0.00     0.033 H 
ATOM     12  H4  <0> d          -1.054   0.724   1.859  0.00  0.00     0.033 H 
ATOM     13  H5  <0> d          -0.046   2.191   1.857  0.00  0.00     0.033 H 
ATOM     14  H6  <0> d          -2.457   2.767   1.763  0.00  0.00     0.041 H 
ATOM     15  H7  <0> d          -2.357   4.211  -0.249  0.00  0.00     0.033 H 
ATOM     16  H8  <0> d          -0.807   4.228   0.626  0.00  0.00     0.033 H 
ATOM     17  H9  <0> d           0.249   3.500  -1.231  0.00  0.00     0.033 H 
ATOM     18  H10 <0> d          -1.301   3.484  -2.106  0.00  0.00     0.033 H 
ATOM     19  H11 <0> d          -0.242   1.241  -2.128  0.00  0.00     0.040 H 
ATOM     20  H12 <0> d          -2.715   1.424  -2.104  0.00  0.00     0.034 H 
ATOM     21  H13 <0> d          -2.173  -0.027  -1.227  0.00  0.00     0.034 H 
ENDROOT
BRANCH   8  22
ATOM     22  C9  <0> d          -4.103   2.380  -0.356  0.00  0.00     0.220 C 
ATOM     23  O1  <0> d          -4.184   3.539  -0.009  0.00  0.00    -0.273 OA
ATOM     24  N1  <0> d          -5.086   1.828  -1.095  0.00  0.00    -0.370 N 
ATOM     25  H14 <0> d          -5.022   0.901  -1.373  0.00  0.00     0.159 HD
ATOM     26  H15 <0> d          -5.858   2.358  -1.349  0.00  0.00     0.159 HD
ENDBRANCH   8  22
TORSDOF 1
