REMARK  1 active torsions:
REMARK  status: ('A' for Active; 'I' for Inactive)
REMARK    1  A    between atoms: C1_1  and  C2_2 
ROOT
ATOM      1  C2  <0> d          -0.718   1.572   1.248  0.00  0.00     0.001 A 
ATOM      2  C3  <0> d          -2.098   1.792   1.228  0.00  0.00     0.053 A 
ATOM      3  C4  <0> d          -2.745   2.237   2.382  0.00  0.00    -0.059 A 
ATOM      4  C5  <0> d          -2.021   2.468   3.532  0.00  0.00    -0.041 A 
ATOM      5  C6  <0> d          -0.652   2.254   3.547  0.00  0.00     0.155 A 
ATOM      6  C7  <0> d          -0.002   1.806   2.404  0.00  0.00     0.162 A 
ATOM      7  F1  <0> d           1.333   1.599   2.425  0.00  0.00    -0.202 F 
ATOM      8  F2  <0> d           0.053   2.482   4.677  0.00  0.00    -0.203 F 
ATOM      9  C8  <0> d          -2.845   1.557   0.029  0.00  0.00     0.100 C 
ATOM     10  N1  <0> d          -3.438   1.371  -0.922  0.00  0.00    -0.191 NA
ATOM     11  H4  <0> d          -3.812   2.405   2.373  0.00  0.00     0.086 H 
ATOM     12  H5  <0> d          -2.521   2.817   4.423  0.00  0.00     0.088 H 
ENDROOT
BRANCH   1  13
ATOM     13  C1  <0> d          -0.013   1.086   0.008  0.00  0.00    -0.047 C 
ATOM     14  H1  <0> d          -0.744   0.958  -0.804  0.00  0.00     0.033 H 
ATOM     15  H2  <0> d           0.475   0.122   0.217  0.00  0.00     0.033 H 
ATOM     16  H3  <0> d           0.746   1.822  -0.295  0.00  0.00     0.033 H 
ENDBRANCH   1  13
TORSDOF 1
