REMARK  2 active torsions:
REMARK  status: ('A' for Active; 'I' for Inactive)
REMARK    1  A    between atoms: C1_1  and  C2_2 
REMARK    2  A    between atoms: C5_5  and  C6_7 
ROOT
ATOM      1  C2  <0> d           1.241   1.807  -0.000  0.00  0.00     0.050 A 
ATOM      2  C3  <0> d           2.090   0.755  -0.014  0.00  0.00    -0.052 A 
ATOM      3  C4  <0> d           1.307  -0.409  -0.013  0.00  0.00    -0.041 A 
ATOM      4  C5  <0> d           0.002  -0.004   0.002  0.00  0.00     0.151 A 
ATOM      5  O1  <0> d          -0.016   1.345   0.009  0.00  0.00    -0.308 OA
ATOM      6  H4  <0> d           3.169   0.803  -0.024  0.00  0.00     0.087 H 
ATOM      7  H5  <0> d           1.666  -1.427  -0.021  0.00  0.00     0.088 H 
ENDROOT
BRANCH   1   8
ATOM      8  C1  <0> d           1.642   3.259   0.003  0.00  0.00    -0.031 C 
ATOM      9  H1  <0> d           0.749   3.883   0.015  0.00  0.00     0.036 H 
ATOM     10  H2  <0> d           2.243   3.468   0.889  0.00  0.00     0.036 H 
ATOM     11  H3  <0> d           2.226   3.477  -0.891  0.00  0.00     0.036 H 
ENDBRANCH   1   8
BRANCH   4  12
ATOM     12  C6  <0> d          -1.171  -0.881   0.009  0.00  0.00     0.234 C 
ATOM     13  O2  <0> d          -1.028  -2.089   0.002  0.00  0.00    -0.642 OA
ATOM     14  O3  <0> d          -2.411  -0.349   0.024  0.00  0.00    -0.642 OA
ENDBRANCH   4  12
TORSDOF 2
