REMARK  2 active torsions:
REMARK  status: ('A' for Active; 'I' for Inactive)
REMARK    1  A    between atoms: C2_2  and  O4_14 
REMARK    2  A    between atoms: C5_9  and  O3_13 
ROOT
ATOM      1  C1  <0> d          -0.018   1.439   0.010  0.00  0.00     0.046 C 
ATOM      2  C2  <0> d           1.470   1.854  -0.002  0.00  0.00     0.083 C 
ATOM      3  H1  <0> d           1.612   2.747  -0.610  0.00  0.00     0.090 H 
ATOM      4  C3  <0> d           2.195   0.648  -0.636  0.00  0.00     0.092 C 
ATOM      5  H2  <0> d           2.751   0.916  -1.535  0.00  0.00     0.091 H 
ATOM      6  C4  <0> d           1.054  -0.372  -0.914  0.00  0.00     0.092 C 
ATOM      7  H3  <0> d           0.734  -0.376  -1.956  0.00  0.00     0.091 H 
ATOM      8  O1  <0> d           0.002  -0.004   0.002  0.00  0.00    -0.378 OA
ATOM      9  C5  <0> d           1.647  -1.725  -0.468  0.00  0.00     0.083 C 
ATOM     10  H4  <0> d           1.067  -2.144   0.354  0.00  0.00     0.090 H 
ATOM     11  C6  <0> d           3.076  -1.376   0.003  0.00  0.00     0.046 C 
ATOM     12  O2  <0> d           3.025   0.028   0.367  0.00  0.00    -0.378 OA
ATOM     13  H5  <0> d          -0.507   1.807   0.912  0.00  0.00     0.078 H 
ATOM     14  H6  <0> d          -0.524   1.817  -0.878  0.00  0.00     0.078 H 
ATOM     15  H7  <0> d           3.351  -1.984   0.865  0.00  0.00     0.078 H 
ATOM     16  H8  <0> d           3.789  -1.522  -0.809  0.00  0.00     0.078 H 
ENDROOT
BRANCH   2  17
ATOM     17  O4  <0> d           1.937   2.078   1.330  0.00  0.00    -0.391 OA
ATOM     18  H10 <0> d           1.475   2.789   1.794  0.00  0.00     0.210 HD
ENDBRANCH   2  17
BRANCH   9  19
ATOM     19  O3  <0> d           1.689  -2.639  -1.565  0.00  0.00    -0.391 OA
ATOM     20  H9  <0> d           2.053  -3.507  -1.341  0.00  0.00     0.210 HD
ENDBRANCH   9  19
TORSDOF 2
