REMARK  3 active torsions:
REMARK  status: ('A' for Active; 'I' for Inactive)
REMARK    1  A    between atoms: C1_1  and  C2_2 
REMARK    2  A    between atoms: C4_4  and  N3_8 
REMARK    3  A    between atoms: N2_6  and  C5_7 
ROOT
ATOM      1  C2  <0> d          -2.725   3.304   0.033  0.00  0.00     0.030 A 
ATOM      2  C3  <0> d          -1.398   3.044   0.031  0.00  0.00    -0.015 A 
ATOM      3  C4  <0> d          -1.233   1.649   0.017  0.00  0.00     0.143 A 
ATOM      4  N1  <0> d          -2.424   1.099   0.020  0.00  0.00    -0.155 NA
ATOM      5  N2  <0> d          -3.379   2.124   0.030  0.00  0.00    -0.277 N 
ATOM      6  H4  <0> d          -0.606   3.778   0.037  0.00  0.00     0.092 H 
ENDROOT
BRANCH   1   7
ATOM      7  C1  <0> d          -3.361   4.670   0.042  0.00  0.00    -0.036 C 
ATOM      8  H1  <0> d          -3.510   4.995   1.072  0.00  0.00     0.035 H 
ATOM      9  H2  <0> d          -2.710   5.378  -0.471  0.00  0.00     0.035 H 
ATOM     10  H3  <0> d          -4.324   4.627  -0.467  0.00  0.00     0.035 H 
ENDBRANCH   1   7
BRANCH   5  11
ATOM     11  C5  <0> d          -4.833   1.945   0.036  0.00  0.00     0.003 C 
ATOM     12  H5  <0> d          -5.188   1.895   1.065  0.00  0.00     0.059 H 
ATOM     13  H6  <0> d          -5.304   2.787  -0.471  0.00  0.00     0.059 H 
ATOM     14  H7  <0> d          -5.088   1.020  -0.481  0.00  0.00     0.059 H 
ENDBRANCH   5  11
BRANCH   3  15
ATOM     15  N3  <0> d          -0.011   0.966   0.007  0.00  0.00    -0.383 N 
ATOM     16  H8  <0> d           0.002  -0.004   0.002  0.00  0.00     0.157 HD
ATOM     17  H9  <0> d           0.822   1.462   0.002  0.00  0.00     0.157 HD
ENDBRANCH   3  15
TORSDOF 3
