REMARK  0 active torsions:
REMARK  status: ('A' for Active; 'I' for Inactive)
ROOT
ATOM      1  C1  <0> d           1.175   1.776   0.000  0.00  0.00    -0.062 A 
ATOM      2  C2  <0> d          -0.013   1.076   0.008  0.00  0.00    -0.073 A 
ATOM      3  C3  <0> d          -1.226   1.747   0.017  0.00  0.00    -0.032 A 
ATOM      4  C4  <0> d          -1.246   3.135   0.034  0.00  0.00     0.035 A 
ATOM      5  C5  <0> d          -0.056   3.850   0.025  0.00  0.00    -0.037 A 
ATOM      6  C6  <0> d           1.163   3.172   0.008  0.00  0.00     0.046 A 
ATOM      7  C7  <0> d           2.394   3.904  -0.003  0.00  0.00     0.099 C 
ATOM      8  N1  <0> d           3.370   4.484  -0.011  0.00  0.00    -0.191 NA
ATOM      9  N2  <0> d          -2.458   3.834   0.057  0.00  0.00    -0.389 N 
ATOM     10  C8  <0> d          -3.703   3.109  -0.232  0.00  0.00    -0.007 C 
ATOM     11  C9  <0> d          -3.664   1.785   0.543  0.00  0.00    -0.047 C 
ATOM     12  C10 <0> d          -2.499   0.943   0.023  0.00  0.00    -0.037 C 
ATOM     13  H1  <0> d           2.115   1.244  -0.012  0.00  0.00     0.085 H 
ATOM     14  H2  <0> d           0.002  -0.004   0.002  0.00  0.00     0.084 H 
ATOM     15  H3  <0> d          -0.075   4.929   0.033  0.00  0.00     0.089 H 
ATOM     16  H4  <0> d          -2.476   4.782   0.260  0.00  0.00     0.159 HD
ATOM     17  H5  <0> d          -4.559   3.701   0.092  0.00  0.00     0.064 H 
ATOM     18  H6  <0> d          -3.775   2.910  -1.301  0.00  0.00     0.064 H 
ATOM     19  H7  <0> d          -3.523   1.987   1.605  0.00  0.00     0.035 H 
ATOM     20  H8  <0> d          -4.600   1.247   0.393  0.00  0.00     0.035 H 
ATOM     21  H9  <0> d          -2.374   0.069   0.663  0.00  0.00     0.040 H 
ATOM     22  H10 <0> d          -2.718   0.615  -0.993  0.00  0.00     0.040 H 
ENDROOT
TORSDOF 0
