REMARK  6 active torsions:
REMARK  status: ('A' for Active; 'I' for Inactive)
REMARK    1  A    between atoms: C1_1  and  O1_2 
REMARK    2  A    between atoms: O1_2  and  C2_3 
REMARK    3  A    between atoms: C2_3  and  N1_4 
REMARK       I    between atoms: N1_4  and  C3_5 
REMARK       I    between atoms: C3_5  and  N2_7 
REMARK    4  A    between atoms: N2_7  and  C4_8 
REMARK    5  A    between atoms: C4_8  and  O3_9 
REMARK    6  A    between atoms: O3_9  and  C5_10 
ROOT
ATOM      1  N1  <0> d           0.262  -0.496   1.357  0.00  0.00    -0.322 N 
ATOM      2  C3  <0> d          -0.767  -0.835   2.159  0.00  0.00     0.319 C 
ATOM      3  O2  <0> d          -1.910  -0.733   1.758  0.00  0.00    -0.247 OA
ATOM      4  N2  <0> d          -0.528  -1.288   3.406  0.00  0.00    -0.322 N 
ATOM      5  H6  <0> d           1.173  -0.578   1.677  0.00  0.00     0.166 HD
ATOM      6  H7  <0> d           0.384  -1.370   3.726  0.00  0.00     0.166 HD
ENDROOT
BRANCH   1   7
ATOM      7  C2  <0> d           0.002  -0.004   0.002  0.00  0.00     0.080 C 
ATOM      8  H4  <0> d          -0.962  -0.379  -0.342  0.00  0.00     0.107 H 
ATOM      9  H5  <0> d           0.788  -0.353  -0.668  0.00  0.00     0.107 H 
BRANCH   7  10
ATOM     10  O1  <0> d          -0.017   1.425   0.010  0.00  0.00    -0.377 OA
BRANCH  10  11
ATOM     11  C1  <0> d           1.280   2.024   0.001  0.00  0.00     0.006 C 
ATOM     12  H1  <0> d           1.834   1.705   0.884  0.00  0.00     0.066 H 
ATOM     13  H2  <0> d           1.817   1.714  -0.896  0.00  0.00     0.066 H 
ATOM     14  H3  <0> d           1.179   3.109   0.007  0.00  0.00     0.066 H 
ENDBRANCH  10  11
ENDBRANCH   7  10
ENDBRANCH   1   7
BRANCH   4  15
ATOM     15  C4  <0> d          -1.647  -1.657   4.278  0.00  0.00     0.080 C 
ATOM     16  H8  <0> d          -1.403  -1.400   5.309  0.00  0.00     0.107 H 
ATOM     17  H9  <0> d          -2.541  -1.115   3.971  0.00  0.00     0.107 H 
BRANCH  15  18
ATOM     18  O3  <0> d          -1.884  -3.062   4.180  0.00  0.00    -0.377 OA
BRANCH  18  19
ATOM     19  C5  <0> d          -0.988  -3.859   4.959  0.00  0.00     0.006 C 
ATOM     20  H10 <0> d          -1.083  -3.589   6.011  0.00  0.00     0.066 H 
ATOM     21  H11 <0> d          -1.234  -4.913   4.830  0.00  0.00     0.066 H 
ATOM     22  H12 <0> d           0.036  -3.682   4.629  0.00  0.00     0.066 H 
ENDBRANCH  18  19
ENDBRANCH  15  18
ENDBRANCH   4  15
TORSDOF 6
