REMARK  4 active torsions:
REMARK  status: ('A' for Active; 'I' for Inactive)
REMARK    1  A    between atoms: C2_2  and  C3_3 
REMARK    2  A    between atoms: C3_3  and  C4_5 
REMARK    3  A    between atoms: C3_3  and  O1_8 
REMARK    4  A    between atoms: C4_5  and  C5_6 
ROOT
ATOM      1  C5  <0> d           2.600  -2.520   1.077  0.00  0.00    -0.115 C 
ATOM      2  C6  <0> d           3.582  -3.161   1.010  0.00  0.00    -0.154 C 
ATOM      3  H7  <0> d           4.460  -3.734   0.951  0.00  0.00     0.166 H 
ENDROOT
BRANCH   1   4
ATOM      4  C4  <0> d           1.370  -1.717   1.161  0.00  0.00     0.017 C 
ATOM      5  H5  <0> d           1.363  -1.159   2.098  0.00  0.00     0.056 H 
ATOM      6  H6  <0> d           0.502  -2.376   1.125  0.00  0.00     0.056 H 
BRANCH   4   7
ATOM      7  C3  <0> d           1.317  -0.740  -0.015  0.00  0.00     0.061 C 
ATOM      8  H1  <0> d           1.413  -1.291  -0.950  0.00  0.00     0.090 H 
BRANCH   7   9
ATOM      9  C2  <0> d           0.002  -0.004   0.002  0.00  0.00    -0.084 C 
ATOM     10  C1  <0> d          -0.016   1.306   0.009  0.00  0.00    -0.122 C 
ATOM     11  H2  <0> d           0.912   1.859   0.003  0.00  0.00     0.066 H 
ATOM     12  H3  <0> d          -0.958   1.833   0.017  0.00  0.00     0.066 H 
ATOM     13  H4  <0> d          -0.926  -0.557   0.008  0.00  0.00     0.079 H 
ENDBRANCH   7   9
BRANCH   7  14
ATOM     14  O1  <0> d           2.389   0.199   0.098  0.00  0.00    -0.391 OA
ATOM     15  H8  <0> d           2.367   0.726   0.908  0.00  0.00     0.210 HD
ENDBRANCH   7  14
ENDBRANCH   4   7
ENDBRANCH   1   4
TORSDOF 4
