REMARK  4 active torsions:
REMARK  status: ('A' for Active; 'I' for Inactive)
REMARK    1  A    between atoms: C1_1  and  C2_2 
REMARK    2  A    between atoms: C4_4  and  C9_10 
REMARK    3  A    between atoms: C6_6  and  N1_8 
REMARK    4  A    between atoms: N1_8  and  C8_9 
ROOT
ATOM      1  C2  <0> d          -0.017   1.379   0.010  0.00  0.00    -0.059 A 
ATOM      2  C3  <0> d           0.002  -0.004   0.002  0.00  0.00    -0.071 A 
ATOM      3  C4  <0> d           1.207  -0.682  -0.013  0.00  0.00    -0.059 A 
ATOM      4  C5  <0> d           2.396   0.020  -0.020  0.00  0.00    -0.052 A 
ATOM      5  C6  <0> d           2.381   1.409  -0.013  0.00  0.00     0.028 A 
ATOM      6  C7  <0> d           1.169   2.087   0.002  0.00  0.00    -0.052 A 
ATOM      7  H4  <0> d          -0.926  -0.555   0.008  0.00  0.00     0.085 H 
ATOM      8  H5  <0> d           3.337  -0.510  -0.032  0.00  0.00     0.087 H 
ATOM      9  H6  <0> d           1.153   3.167   0.008  0.00  0.00     0.087 H 
ENDROOT
BRANCH   5  10
ATOM     10  N1  <0> d           3.582   2.122  -0.021  0.00  0.00    -0.394 N 
ATOM     11  H7  <0> d           4.541   1.584  -0.033  0.00  0.00     0.159 HD
BRANCH  10  12
ATOM     12  C8  <0> d           3.564   3.587  -0.013  0.00  0.00    -0.021 C 
ATOM     13  H8  <0> d           4.597   3.966  -0.021  0.00  0.00     0.056 H 
ATOM     14  H9  <0> d           3.050   3.943   0.892  0.00  0.00     0.056 H 
ATOM     15  H10 <0> d           3.033   3.952  -0.905  0.00  0.00     0.056 H 
ENDBRANCH  10  12
ENDBRANCH   5  10
BRANCH   3  16
ATOM     16  C9  <0> d           1.223  -2.189  -0.020  0.00  0.00    -0.051 C 
ATOM     17  H11 <0> d           2.263  -2.545  -0.032  0.00  0.00     0.033 H 
ATOM     18  H12 <0> d           0.699  -2.557  -0.915  0.00  0.00     0.033 H 
ATOM     19  H13 <0> d           0.716  -2.565   0.881  0.00  0.00     0.033 H 
ENDBRANCH   3  16
BRANCH   1  20
ATOM     20  C1  <0> d          -1.332   2.114   0.020  0.00  0.00    -0.051 C 
ATOM     21  H1  <0> d          -2.158   1.387   0.025  0.00  0.00     0.033 H 
ATOM     22  H2  <0> d          -1.406   2.746  -0.877  0.00  0.00     0.033 H 
ATOM     23  H3  <0> d          -1.393   2.744   0.919  0.00  0.00     0.033 H 
ENDBRANCH   1  20
TORSDOF 4
