REMARK  8 active torsions:
REMARK  status: ('A' for Active; 'I' for Inactive)
REMARK    1  A    between atoms: C1_1  and  C2_2 
REMARK    2  A    between atoms: C2_2  and  C3_4 
REMARK    3  A    between atoms: C2_2  and  O1_7 
REMARK    4  A    between atoms: C3_4  and  C4_5 
REMARK    5  A    between atoms: C3_4  and  C5_6 
REMARK    6  A    between atoms: O1_7  and  C6_8 
REMARK    7  A    between atoms: C6_8  and  C7_9 
REMARK    8  A    between atoms: C6_8  and  C8_10 
ROOT
ATOM      1  C2  <0> d           0.010  -0.098   0.280  0.00  0.00     0.038 C 
ATOM      2  H1  <0> d           0.633  -0.980   0.424  0.00  0.00     0.083 H 
ENDROOT
BRANCH   1   3
ATOM      3  C1  <0> d           0.461   0.645  -0.979  0.00  0.00    -0.052 C 
ATOM      4  H2  <0> d           1.498   0.960  -0.863  0.00  0.00     0.030 H 
ATOM      5  H3  <0> d           0.376  -0.016  -1.841  0.00  0.00     0.030 H 
ATOM      6  H4  <0> d          -0.170   1.522  -1.129  0.00  0.00     0.030 H 
ENDBRANCH   1   3
BRANCH   1   7
ATOM      7  C3  <0> d           0.143   0.825   1.493  0.00  0.00    -0.036 C 
ATOM      8  H5  <0> d          -0.481   1.707   1.349  0.00  0.00     0.042 H 
BRANCH   7   9
ATOM      9  C4  <0> d          -0.308   0.081   2.752  0.00  0.00    -0.071 C 
ATOM     10  H6  <0> d           0.315  -0.801   2.896  0.00  0.00     0.028 H 
ATOM     11  H7  <0> d          -0.213   0.739   3.616  0.00  0.00     0.028 H 
ATOM     12  H8  <0> d          -1.349  -0.224   2.640  0.00  0.00     0.028 H 
ENDBRANCH   7   9
BRANCH   7  13
ATOM     13  C5  <0> d           1.604   1.253   1.650  0.00  0.00    -0.071 C 
ATOM     14  H9  <0> d           1.925   1.782   0.753  0.00  0.00     0.028 H 
ATOM     15  H10 <0> d           1.699   1.910   2.514  0.00  0.00     0.028 H 
ATOM     16  H11 <0> d           2.227   0.371   1.794  0.00  0.00     0.028 H 
ENDBRANCH   7  13
ENDBRANCH   1   7
BRANCH   1  17
ATOM     17  O1  <0> d          -1.355  -0.498   0.134  0.00  0.00    -0.381 OA
BRANCH  17  18
ATOM     18  C6  <0> d          -1.521  -1.808  -0.412  0.00  0.00     0.032 C 
ATOM     19  H12 <0> d          -0.611  -2.386  -0.252  0.00  0.00     0.082 H 
BRANCH  18  20
ATOM     20  C7  <0> d          -2.695  -2.504   0.280  0.00  0.00    -0.052 C 
ATOM     21  H13 <0> d          -3.605  -1.925   0.120  0.00  0.00     0.030 H 
ATOM     22  H14 <0> d          -2.822  -3.503  -0.136  0.00  0.00     0.030 H 
ATOM     23  H15 <0> d          -2.495  -2.578   1.349  0.00  0.00     0.030 H 
ENDBRANCH  18  20
BRANCH  18  24
ATOM     24  C8  <0> d          -1.802  -1.704  -1.912  0.00  0.00    -0.052 C 
ATOM     25  H16 <0> d          -1.000  -1.145  -2.394  0.00  0.00     0.030 H 
ATOM     26  H17 <0> d          -1.858  -2.704  -2.342  0.00  0.00     0.030 H 
ATOM     27  H18 <0> d          -2.749  -1.188  -2.069  0.00  0.00     0.030 H 
ENDBRANCH  18  24
ENDBRANCH  17  18
ENDBRANCH   1  17
TORSDOF 8
