REMARK  2 active torsions:
REMARK  status: ('A' for Active; 'I' for Inactive)
REMARK    1  A    between atoms: C1_1  and  C2_2 
REMARK    2  A    between atoms: C3_5  and  C4_7 
ROOT
ATOM      1  C4  <0> d           0.055  -3.322   1.448  0.00  0.00     0.077 C 
ATOM      2  C5  <0> d           1.450  -3.712   1.713  0.00  0.00     0.067 C 
ATOM      3  N3  <0> d           2.526  -4.012   1.917  0.00  0.00    -0.197 NA
ATOM      4  H4  <0> d          -0.458  -3.142   2.392  0.00  0.00     0.067 H 
ATOM      5  H5  <0> d          -0.449  -4.124   0.908  0.00  0.00     0.067 H 
ENDROOT
BRANCH   1   6
ATOM      6  C3  <0> d           0.034  -2.066   0.616  0.00  0.00     0.182 A 
ATOM      7  N2  <0> d           0.027  -2.002  -0.685  0.00  0.00    -0.126 NA
ATOM      8  N1  <0> d           0.008  -0.769  -1.052  0.00  0.00    -0.127 NA
ATOM      9  C2  <0> d           0.002  -0.004   0.002  0.00  0.00     0.165 A 
ATOM     10  O1  <0> d           0.023  -0.805   1.081  0.00  0.00    -0.277 OA
BRANCH   9  11
ATOM     11  C1  <0> d          -0.018   1.503   0.010  0.00  0.00    -0.013 C 
ATOM     12  H1  <0> d           1.004   1.880   0.003  0.00  0.00     0.038 H 
ATOM     13  H2  <0> d          -0.545   1.864  -0.873  0.00  0.00     0.038 H 
ATOM     14  H3  <0> d          -0.529   1.854   0.907  0.00  0.00     0.038 H 
ENDBRANCH   9  11
ENDBRANCH   1   6
TORSDOF 2
