REMARK  2 active torsions:
REMARK  status: ('A' for Active; 'I' for Inactive)
REMARK    1  A    between atoms: C1_1  and  C2_2 
REMARK    2  A    between atoms: C4_4  and  C7_9 
ROOT
ATOM      1  C2  <0> d          -3.063   1.201   0.707  0.00  0.00     0.003 C 
ATOM      2  C3  <0> d          -3.022   1.516  -0.582  0.00  0.00    -0.039 C 
ATOM      3  C4  <0> d          -1.918   1.695  -1.393  0.00  0.00     0.026 C 
ATOM      4  N1  <0> d          -0.679   1.548  -1.187  0.00  0.00    -0.293 NA
ATOM      5  C5  <0> d          -0.013   1.086   0.008  0.00  0.00     0.030 C 
ATOM      6  C6  <0> d          -0.688   1.558   1.280  0.00  0.00     0.009 C 
ATOM      7  N2  <0> d          -1.976   0.921   1.464  0.00  0.00    -0.392 N 
ATOM      8  H4  <0> d          -3.957   1.669  -1.140  0.00  0.00     0.089 H 
ATOM      9  H5  <0> d          -0.005  -0.014   0.021  0.00  0.00     0.069 H 
ATOM     10  H6  <0> d           1.022   1.460   0.019  0.00  0.00     0.069 H 
ATOM     11  H7  <0> d          -0.052   1.314   2.145  0.00  0.00     0.066 H 
ATOM     12  H8  <0> d          -0.841   2.646   1.233  0.00  0.00     0.066 H 
ATOM     13  H9  <0> d          -2.108   0.166   2.253  0.00  0.00     0.159 HD
ENDROOT
BRANCH   1  14
ATOM     14  C1  <0> d          -4.414   1.152   1.375  0.00  0.00    -0.038 C 
ATOM     15  H1  <0> d          -5.195   1.400   0.641  0.00  0.00     0.035 H 
ATOM     16  H2  <0> d          -4.441   1.879   2.200  0.00  0.00     0.035 H 
ATOM     17  H3  <0> d          -4.590   0.141   1.771  0.00  0.00     0.035 H 
ENDBRANCH   1  14
BRANCH   3  18
ATOM     18  C7  <0> d          -2.255   2.152  -2.789  0.00  0.00    -0.036 C 
ATOM     19  H10 <0> d          -1.328   2.271  -3.369  0.00  0.00     0.035 H 
ATOM     20  H11 <0> d          -2.784   3.116  -2.741  0.00  0.00     0.035 H 
ATOM     21  H12 <0> d          -2.898   1.404  -3.275  0.00  0.00     0.035 H 
ENDBRANCH   3  18
TORSDOF 2
