REMARK  5 active torsions:
REMARK  status: ('A' for Active; 'I' for Inactive)
REMARK    1  A    between atoms: C1_1  and  C2_2 
REMARK    2  A    between atoms: C4_4  and  O2_10 
REMARK    3  A    between atoms: C6_6  and  O1_8 
REMARK    4  A    between atoms: O1_8  and  C8_9 
REMARK    5  A    between atoms: O2_10  and  C9_11 
ROOT
ATOM      1  C2  <0> d           2.382   1.417  -0.013  0.00  0.00    -0.057 A 
ATOM      2  C3  <0> d           1.176   2.091   0.002  0.00  0.00    -0.045 A 
ATOM      3  C4  <0> d          -0.017   1.382   0.010  0.00  0.00     0.071 A 
ATOM      4  C5  <0> d           0.002  -0.004   0.002  0.00  0.00    -0.019 A 
ATOM      5  C6  <0> d           1.213  -0.678  -0.013  0.00  0.00     0.071 A 
ATOM      6  C7  <0> d           2.403   0.035  -0.021  0.00  0.00    -0.045 A 
ATOM      7  H4  <0> d           1.162   3.171   0.008  0.00  0.00     0.088 H 
ATOM      8  H5  <0> d          -0.925  -0.558   0.008  0.00  0.00     0.092 H 
ATOM      9  H6  <0> d           3.347  -0.490  -0.033  0.00  0.00     0.088 H 
ENDROOT
BRANCH   3  10
ATOM     10  O2  <0> d          -1.202   2.046   0.019  0.00  0.00    -0.356 OA
BRANCH  10  11
ATOM     11  C9  <0> d          -2.391   1.252   0.020  0.00  0.00     0.010 C 
ATOM     12  H10 <0> d          -2.411   0.628  -0.873  0.00  0.00     0.066 H 
ATOM     13  H11 <0> d          -2.403   0.618   0.907  0.00  0.00     0.066 H 
ATOM     14  H12 <0> d          -3.264   1.905   0.028  0.00  0.00     0.066 H 
ENDBRANCH  10  11
ENDBRANCH   3  10
BRANCH   1  15
ATOM     15  C1  <0> d           3.676   2.189  -0.023  0.00  0.00    -0.051 C 
ATOM     16  H1  <0> d           3.978   2.380  -1.053  0.00  0.00     0.033 H 
ATOM     17  H2  <0> d           3.537   3.137   0.497  0.00  0.00     0.033 H 
ATOM     18  H3  <0> d           4.449   1.609   0.480  0.00  0.00     0.033 H 
ENDBRANCH   1  15
BRANCH   5  19
ATOM     19  O1  <0> d           1.235  -2.037  -0.020  0.00  0.00    -0.356 OA
BRANCH  19  20
ATOM     20  C8  <0> d          -0.028  -2.706  -0.011  0.00  0.00     0.010 C 
ATOM     21  H7  <0> d           0.132  -3.784  -0.018  0.00  0.00     0.066 H 
ATOM     22  H8  <0> d          -0.581  -2.427   0.885  0.00  0.00     0.066 H 
ATOM     23  H9  <0> d          -0.598  -2.418  -0.894  0.00  0.00     0.066 H 
ENDBRANCH  19  20
ENDBRANCH   5  19
TORSDOF 5
