REMARK  6 active torsions:
REMARK  status: ('A' for Active; 'I' for Inactive)
REMARK    1  A    between atoms: C1_1  and  C2_2 
REMARK    2  A    between atoms: C2_2  and  C3_3 
REMARK    3  A    between atoms: C3_3  and  C4_5 
REMARK    4  A    between atoms: C3_3  and  N1_6 
REMARK    5  A    between atoms: C5_7  and  C10_12 
REMARK    6  A    between atoms: C8_10  and  C9_11 
ROOT
ATOM      1  N1  <0> d          -0.145   1.849   2.594  0.00  0.00    -0.350 N 
ATOM      2  C5  <0> d          -1.023   2.302   3.534  0.00  0.00     0.008 A 
ATOM      3  C6  <0> d          -2.216   2.497   2.937  0.00  0.00    -0.060 A 
ATOM      4  C7  <0> d          -2.068   2.156   1.578  0.00  0.00    -0.060 A 
ATOM      5  C8  <0> d          -0.792   1.759   1.398  0.00  0.00     0.008 A 
ATOM      6  H10 <0> d          -3.118   2.852   3.412  0.00  0.00     0.086 H 
ATOM      7  H11 <0> d          -2.836   2.202   0.820  0.00  0.00     0.086 H 
ENDROOT
BRANCH   1   8
ATOM      8  C3  <0> d           1.262   1.516   2.831  0.00  0.00     0.013 C 
ATOM      9  H1  <0> d           1.476   1.578   3.898  0.00  0.00     0.072 H 
BRANCH   8  10
ATOM     10  C2  <0> d           2.154   2.501   2.073  0.00  0.00    -0.049 C 
ATOM     11  H5  <0> d           2.017   2.364   1.001  0.00  0.00     0.035 H 
ATOM     12  H6  <0> d           1.884   3.521   2.347  0.00  0.00     0.035 H 
BRANCH  10  13
ATOM     13  C1  <0> d           3.619   2.246   2.437  0.00  0.00    -0.075 C 
ATOM     14  H2  <0> d           4.254   2.948   1.897  0.00  0.00     0.027 H 
ATOM     15  H3  <0> d           3.756   2.383   3.510  0.00  0.00     0.027 H 
ATOM     16  H4  <0> d           3.889   1.226   2.163  0.00  0.00     0.027 H 
ENDBRANCH  10  13
ENDBRANCH   8  10
BRANCH   8  17
ATOM     17  C4  <0> d           1.539   0.094   2.338  0.00  0.00    -0.057 C 
ATOM     18  H7  <0> d           1.325   0.031   1.271  0.00  0.00     0.030 H 
ATOM     19  H8  <0> d           2.585  -0.155   2.514  0.00  0.00     0.030 H 
ATOM     20  H9  <0> d           0.903  -0.608   2.878  0.00  0.00     0.030 H 
ENDBRANCH   8  17
ENDBRANCH   1   8
BRANCH   5  21
ATOM     21  C9  <0> d          -0.185   1.300   0.097  0.00  0.00    -0.037 C 
ATOM     22  H12 <0> d          -0.220   0.212   0.044  0.00  0.00     0.035 H 
ATOM     23  H13 <0> d           0.851   1.634   0.042  0.00  0.00     0.035 H 
ATOM     24  H14 <0> d          -0.747   1.723  -0.736  0.00  0.00     0.035 H 
ENDBRANCH   5  21
BRANCH   2  25
ATOM     25  C10 <0> d          -0.713   2.544   4.989  0.00  0.00    -0.037 C 
ATOM     26  H15 <0> d          -0.284   3.539   5.108  0.00  0.00     0.035 H 
ATOM     27  H16 <0> d          -1.630   2.471   5.573  0.00  0.00     0.035 H 
ATOM     28  H17 <0> d           0.001   1.798   5.338  0.00  0.00     0.035 H 
ENDBRANCH   2  25
TORSDOF 6
