REMARK  0 active torsions:
REMARK  status: ('A' for Active; 'I' for Inactive)
ROOT
ATOM      1  C1  <0> d          -0.016   1.357   0.009  0.00  0.00    -0.082 A 
ATOM      2  C2  <0> d           1.170   2.088   0.002  0.00  0.00    -0.081 A 
ATOM      3  C3  <0> d           2.379   1.465  -0.013  0.00  0.00    -0.054 A 
ATOM      4  C4  <0> d           2.440   0.060  -0.021  0.00  0.00     0.066 A 
ATOM      5  C5  <0> d           1.232  -0.681  -0.013  0.00  0.00    -0.007 A 
ATOM      6  C6  <0> d           0.002  -0.004   0.002  0.00  0.00    -0.071 A 
ATOM      7  C7  <0> d           1.295  -2.087  -0.021  0.00  0.00    -0.069 A 
ATOM      8  C8  <0> d           2.527  -2.677  -0.036  0.00  0.00    -0.065 A 
ATOM      9  C9  <0> d           3.675  -1.889  -0.043  0.00  0.00     0.003 A 
ATOM     10  N1  <0> d           3.613  -0.580  -0.035  0.00  0.00    -0.260 NA
ATOM     11  H1  <0> d          -0.963   1.877   0.026  0.00  0.00     0.083 H 
ATOM     12  H2  <0> d           1.129   3.168   0.008  0.00  0.00     0.083 H 
ATOM     13  H3  <0> d           3.289   2.047  -0.019  0.00  0.00     0.087 H 
ATOM     14  H4  <0> d          -0.924  -0.560   0.008  0.00  0.00     0.084 H 
ATOM     15  H5  <0> d           0.394  -2.683  -0.016  0.00  0.00     0.085 H 
ATOM     16  H6  <0> d           2.610  -3.754  -0.043  0.00  0.00     0.085 H 
ATOM     17  H7  <0> d           4.643  -2.369  -0.055  0.00  0.00     0.114 H 
ENDROOT
TORSDOF 0
