REMARK  1 active torsions:
REMARK  status: ('A' for Active; 'I' for Inactive)
REMARK    1  A    between atoms: C1_1  and  C2_2 
ROOT
ATOM      1  C2  <0> d           0.002  -0.004   0.002  0.00  0.00    -0.020 A 
ATOM      2  C3  <0> d          -1.043  -0.857   0.002  0.00  0.00    -0.050 A 
ATOM      3  C4  <0> d          -0.706  -2.260  -0.007  0.00  0.00     0.052 A 
ATOM      4  C5  <0> d           0.633  -2.579  -0.015  0.00  0.00    -0.025 A 
ATOM      5  S1  <0> d           1.411  -1.092  -0.018  0.00  0.00    -0.105 SA
ATOM      6  C6  <0> d          -1.717  -3.273  -0.008  0.00  0.00     0.100 C 
ATOM      7  N1  <0> d          -2.520  -4.077  -0.008  0.00  0.00    -0.191 NA
ATOM      8  H4  <0> d          -2.066  -0.512   0.009  0.00  0.00     0.087 H 
ATOM      9  H5  <0> d           1.081  -3.561  -0.022  0.00  0.00     0.097 H 
ENDROOT
BRANCH   1  10
ATOM     10  C1  <0> d          -0.018   1.503   0.010  0.00  0.00    -0.045 C 
ATOM     11  H1  <0> d           1.004   1.880   0.003  0.00  0.00     0.034 H 
ATOM     12  H2  <0> d          -0.545   1.864  -0.873  0.00  0.00     0.034 H 
ATOM     13  H3  <0> d          -0.529   1.854   0.907  0.00  0.00     0.034 H 
ENDBRANCH   1  10
TORSDOF 1
