REMARK  3 active torsions:
REMARK  status: ('A' for Active; 'I' for Inactive)
REMARK    1  A    between atoms: C1_1  and  C2_2 
REMARK    2  A    between atoms: C4_4  and  C8_9 
REMARK    3  A    between atoms: C8_9  and  C9_10 
ROOT
ATOM      1  C2  <0> d           0.002  -0.004   0.002  0.00  0.00    -0.023 A 
ATOM      2  C3  <0> d           0.006  -0.689  -1.199  0.00  0.00    -0.068 A 
ATOM      3  C4  <0> d           0.025  -2.071  -1.206  0.00  0.00    -0.054 A 
ATOM      4  C5  <0> d           0.040  -2.770  -0.014  0.00  0.00    -0.074 A 
ATOM      5  C6  <0> d           0.036  -2.088   1.188  0.00  0.00    -0.045 A 
ATOM      6  C7  <0> d           0.023  -0.703   1.197  0.00  0.00     0.122 A 
ATOM      7  F1  <0> d           0.025  -0.035   2.371  0.00  0.00    -0.206 F 
ATOM      8  H4  <0> d          -0.006  -0.144  -2.131  0.00  0.00     0.085 H 
ATOM      9  H5  <0> d           0.054  -3.850  -0.021  0.00  0.00     0.084 H 
ATOM     10  H6  <0> d           0.048  -2.634   2.119  0.00  0.00     0.088 H 
ENDROOT
BRANCH   3  11
ATOM     11  C8  <0> d           0.028  -2.816  -2.516  0.00  0.00    -0.027 C 
ATOM     12  H7  <0> d          -0.472  -3.776  -2.389  0.00  0.00     0.045 H 
ATOM     13  H8  <0> d          -0.498  -2.230  -3.270  0.00  0.00     0.045 H 
BRANCH  11  14
ATOM     14  C9  <0> d           1.450  -3.046  -2.960  0.00  0.00    -0.108 C 
ATOM     15  C10 <0> d           1.866  -4.259  -3.225  0.00  0.00    -0.124 C 
ATOM     16  H10 <0> d           2.885  -4.423  -3.543  0.00  0.00     0.066 H 
ATOM     17  H11 <0> d           1.190  -5.095  -3.126  0.00  0.00     0.066 H 
ATOM     18  H9  <0> d           2.126  -2.209  -3.059  0.00  0.00     0.076 H 
ENDBRANCH  11  14
ENDBRANCH   3  11
BRANCH   1  19
ATOM     19  C1  <0> d          -0.018   1.503   0.010  0.00  0.00    -0.048 C 
ATOM     20  H1  <0> d           1.004   1.880   0.003  0.00  0.00     0.033 H 
ATOM     21  H2  <0> d          -0.545   1.864  -0.873  0.00  0.00     0.033 H 
ATOM     22  H3  <0> d          -0.529   1.854   0.907  0.00  0.00     0.033 H 
ENDBRANCH   1  19
TORSDOF 3
