REMARK  3 active torsions:
REMARK  status: ('A' for Active; 'I' for Inactive)
REMARK    1  A    between atoms: C5_7  and  C6_9 
REMARK    2  A    between atoms: C6_9  and  O1_10 
REMARK    3  A    between atoms: C7_11  and  O2_14 
ROOT
ATOM      1  C1  <0> d          -1.763   0.936   0.968  0.00  0.00    -0.056 C 
ATOM      2  C2  <0> d          -0.665   2.062   0.734  0.00  0.00    -0.051 C 
ATOM      3  H1  <0> d           0.090   2.179   1.511  0.00  0.00     0.040 H 
ATOM      4  C3  <0> d          -1.587   3.301   0.445  0.00  0.00    -0.056 C 
ATOM      5  C4  <0> d          -2.431   2.622  -0.691  0.00  0.00    -0.023 C 
ATOM      6  H2  <0> d          -3.205   3.237  -1.149  0.00  0.00     0.044 H 
ATOM      7  C5  <0> d          -2.923   1.326   0.024  0.00  0.00    -0.028 C 
ATOM      8  H3  <0> d          -3.828   1.529   0.597  0.00  0.00     0.043 H 
ATOM      9  C7  <0> d          -1.295   2.135  -1.642  0.00  0.00     0.040 C 
ATOM     10  H4  <0> d          -0.997   2.936  -2.319  0.00  0.00     0.083 H 
ATOM     11  C8  <0> d          -0.128   1.764  -0.699  0.00  0.00    -0.037 C 
ATOM     12  H5  <0> d          -2.098   0.946   2.005  0.00  0.00     0.034 H 
ATOM     13  H6  <0> d          -1.374  -0.048   0.705  0.00  0.00     0.034 H 
ATOM     14  H7  <0> d          -1.018   4.155   0.077  0.00  0.00     0.034 H 
ATOM     15  H8  <0> d          -2.199   3.565   1.307  0.00  0.00     0.034 H 
ATOM     16  H12 <0> d           0.121   0.708  -0.800  0.00  0.00     0.037 H 
ATOM     17  H13 <0> d           0.745   2.381  -0.914  0.00  0.00     0.037 H 
ENDROOT
BRANCH   7  18
ATOM     18  C6  <0> d          -3.178   0.217  -0.999  0.00  0.00     0.021 C 
ATOM     19  H9  <0> d          -3.655   0.641  -1.883  0.00  0.00     0.074 H 
ATOM     20  H10 <0> d          -2.231  -0.241  -1.282  0.00  0.00     0.074 H 
BRANCH  18  21
ATOM     21  O1  <0> d          -4.034  -0.773  -0.425  0.00  0.00    -0.400 OA
ATOM     22  H11 <0> d          -4.239  -1.508  -1.018  0.00  0.00     0.209 HD
ENDBRANCH  18  21
ENDBRANCH   7  18
BRANCH   9  23
ATOM     23  O2  <0> d          -1.720   0.990  -2.384  0.00  0.00    -0.395 OA
ATOM     24  H14 <0> d          -1.035   0.615  -2.955  0.00  0.00     0.210 HD
ENDBRANCH   9  23
TORSDOF 3
