REMARK  0 active torsions:
REMARK  status: ('A' for Active; 'I' for Inactive)
ROOT
ATOM      1  C1  <0> d          -0.013   1.076   0.008  0.00  0.00    -0.045 A 
ATOM      2  C2  <0> d           1.177   1.782   0.000  0.00  0.00    -0.073 A 
ATOM      3  C3  <0> d           1.169   3.163   0.007  0.00  0.00    -0.044 A 
ATOM      4  C4  <0> d          -0.044   3.853   0.022  0.00  0.00     0.019 A 
ATOM      5  C5  <0> d          -1.246   3.130   0.030  0.00  0.00    -0.032 A 
ATOM      6  C6  <0> d          -1.223   1.751   0.017  0.00  0.00     0.117 A 
ATOM      7  F1  <0> d          -2.382   1.056   0.019  0.00  0.00    -0.206 F 
ATOM      8  C7  <0> d           0.186   5.307   0.027  0.00  0.00     0.160 A 
ATOM      9  O1  <0> d          -0.672   6.164   0.040  0.00  0.00    -0.292 OA
ATOM     10  C8  <0> d           1.676   5.547   0.014  0.00  0.00    -0.001 A 
ATOM     11  C9  <0> d           2.312   4.150   0.001  0.00  0.00    -0.034 A 
ATOM     12  H1  <0> d           0.002  -0.004   0.002  0.00  0.00     0.088 H 
ATOM     13  H2  <0> d           2.116   1.250  -0.011  0.00  0.00     0.084 H 
ATOM     14  H3  <0> d          -2.191   3.654   0.041  0.00  0.00     0.089 H 
ATOM     15  H4  <0> d           1.937   6.068   0.826  0.00  0.00     0.045 H 
ATOM     16  H5  <0> d           1.963   6.100  -0.880  0.00  0.00     0.045 H 
ATOM     17  H6  <0> d           2.930   4.012   0.888  0.00  0.00     0.040 H 
ATOM     18  H7  <0> d           2.913   4.020  -0.899  0.00  0.00     0.040 H 
ENDROOT
TORSDOF 0
