REMARK  2 active torsions:
REMARK  status: ('A' for Active; 'I' for Inactive)
REMARK    1  A    between atoms: C1_1  and  C2_2 
REMARK    2  A    between atoms: C5_5  and  O1_10 
ROOT
ATOM      1  C2  <0> d          -1.220   1.750   0.017  0.00  0.00    -0.020 A 
ATOM      2  C3  <0> d          -0.013   1.076   0.008  0.00  0.00    -0.071 A 
ATOM      3  C4  <0> d           1.175   1.782   0.000  0.00  0.00    -0.047 A 
ATOM      4  C5  <0> d           1.158   3.169   0.008  0.00  0.00     0.107 A 
ATOM      5  C6  <0> d          -0.054   3.846   0.023  0.00  0.00     0.188 A 
ATOM      6  C7  <0> d          -1.242   3.134   0.031  0.00  0.00     0.163 A 
ATOM      7  F1  <0> d          -2.423   3.790   0.046  0.00  0.00    -0.202 F 
ATOM      8  F2  <0> d          -0.074   5.197   0.030  0.00  0.00    -0.200 F 
ATOM      9  H4  <0> d           0.002  -0.004   0.002  0.00  0.00     0.084 H 
ATOM     10  H5  <0> d           2.117   1.254  -0.011  0.00  0.00     0.087 H 
ENDROOT
BRANCH   1  11
ATOM     11  C1  <0> d          -2.513   0.976   0.019  0.00  0.00    -0.048 C 
ATOM     12  H1  <0> d          -2.820   0.783   1.047  0.00  0.00     0.033 H 
ATOM     13  H2  <0> d          -3.284   1.556  -0.488  0.00  0.00     0.033 H 
ATOM     14  H3  <0> d          -2.370   0.029  -0.501  0.00  0.00     0.033 H 
ENDBRANCH   1  11
BRANCH   4  15
ATOM     15  O1  <0> d           2.326   3.864   0.000  0.00  0.00    -0.357 OA
ATOM     16  H6  <0> d           2.656   4.069  -0.885  0.00  0.00     0.217 HD
ENDBRANCH   4  15
TORSDOF 2
