REMARK  2 active torsions:
REMARK  status: ('A' for Active; 'I' for Inactive)
REMARK    1  A    between atoms: C1_1  and  C2_2 
REMARK    2  A    between atoms: C5_5  and  C8_8 
ROOT
ATOM      1  C2  <0> d           3.049   6.710   0.012  0.00  0.00    -0.062 A 
ATOM      2  C3  <0> d           1.670   6.819   0.024  0.00  0.00    -0.076 A 
ATOM      3  C4  <0> d           0.886   5.684   0.025  0.00  0.00    -0.070 A 
ATOM      4  C5  <0> d           1.487   4.424   0.012  0.00  0.00    -0.009 A 
ATOM      5  C6  <0> d           2.879   4.322   0.004  0.00  0.00    -0.070 A 
ATOM      6  C7  <0> d           3.651   5.465  -0.001  0.00  0.00    -0.076 A 
ATOM      7  H5  <0> d           1.206   7.794   0.034  0.00  0.00     0.084 H 
ATOM      8  H6  <0> d          -0.191   5.769   0.035  0.00  0.00     0.084 H 
ATOM      9  H7  <0> d           3.350   3.350  -0.001  0.00  0.00     0.084 H 
ATOM     10  H8  <0> d           4.729   5.387  -0.010  0.00  0.00     0.084 H 
ENDROOT
BRANCH   4  11
ATOM     11  C8  <0> d           0.653   3.203   0.013  0.00  0.00     0.042 A 
ATOM     12  N1  <0> d          -0.718   3.162   0.026  0.00  0.00    -0.365 N 
ATOM     13  C11 <0> d          -1.114   1.858   0.017  0.00  0.00    -0.022 A 
ATOM     14  H1  <0> d          -1.307   3.933   0.035  0.00  0.00     0.165 HD
ATOM     15  C10 <0> d          -0.013   1.076   0.008  0.00  0.00    -0.066 A 
ATOM     16  H11 <0> d          -2.136   1.508   0.019  0.00  0.00     0.111 H 
ATOM     17  C9  <0> d           1.110   1.920   0.002  0.00  0.00    -0.055 A 
ATOM     18  H10 <0> d           0.002  -0.004   0.002  0.00  0.00     0.085 H 
ATOM     19  H9  <0> d           2.144   1.609  -0.010  0.00  0.00     0.087 H 
ENDBRANCH   4  11
BRANCH   1  20
ATOM     20  C1  <0> d           3.900   7.955   0.012  0.00  0.00    -0.051 C 
ATOM     21  H2  <0> d           4.113   8.248   1.040  0.00  0.00     0.033 H 
ATOM     22  H3  <0> d           4.835   7.756  -0.511  0.00  0.00     0.033 H 
ATOM     23  H4  <0> d           3.365   8.760  -0.492  0.00  0.00     0.033 H 
ENDBRANCH   1  20
TORSDOF 2
