REMARK  2 active torsions:
REMARK  status: ('A' for Active; 'I' for Inactive)
REMARK    1  A    between atoms: C3_3  and  C7_10 
REMARK    2  A    between atoms: C5_6  and  C6_8 
ROOT
ATOM      1  C1  <0> d           2.124   0.871   0.915  0.00  0.00    -0.052 C 
ATOM      2  C2  <0> d           1.477   1.939  -0.002  0.00  0.00    -0.052 C 
ATOM      3  C3  <0> d          -0.019   1.538   0.011  0.00  0.00     0.031 C 
ATOM      4  H1  <0> d          -0.505   1.908   0.913  0.00  0.00     0.056 H 
ATOM      5  C4  <0> d           0.002  -0.004   0.002  0.00  0.00    -0.040 C 
ATOM      6  C5  <0> d           1.365  -0.428   0.577  0.00  0.00     0.031 C 
ATOM      7  H2  <0> d           1.920  -1.004  -0.164  0.00  0.00     0.056 H 
ATOM      8  H3  <0> d           1.984   1.133   1.964  0.00  0.00     0.034 H 
ATOM      9  H4  <0> d           3.185   0.764   0.687  0.00  0.00     0.034 H 
ATOM     10  H5  <0> d           1.885   1.879  -1.011  0.00  0.00     0.034 H 
ATOM     11  H6  <0> d           1.613   2.938   0.413  0.00  0.00     0.034 H 
ATOM     12  H7  <0> d          -0.804  -0.392   0.625  0.00  0.00     0.035 H 
ATOM     13  H8  <0> d          -0.104  -0.373  -1.018  0.00  0.00     0.035 H 
ENDROOT
BRANCH   3  14
ATOM     14  C7  <0> d          -0.715   2.063  -1.219  0.00  0.00     0.177 C 
ATOM     15  O2  <0> d          -1.160   1.293  -2.036  0.00  0.00    -0.648 OA
ATOM     16  O4  <0> d          -0.841   3.386  -1.405  0.00  0.00    -0.648 OA
ENDBRANCH   3  14
BRANCH   6  17
ATOM     17  C6  <0> d           1.165  -1.249   1.825  0.00  0.00     0.177 C 
ATOM     18  O1  <0> d           0.048  -1.479   2.225  0.00  0.00    -0.648 OA
ATOM     19  O3  <0> d           2.228  -1.725   2.493  0.00  0.00    -0.648 OA
ENDBRANCH   6  17
TORSDOF 2
