REMARK  0 active torsions:
REMARK  status: ('A' for Active; 'I' for Inactive)
ROOT
ATOM      1  C1  <0> d          -2.936   2.508  -1.718  0.00  0.00    -0.053 A 
ATOM      2  C2  <0> d          -2.514   2.614  -3.049  0.00  0.00     0.062 A 
ATOM      3  C3  <0> d          -1.222   2.200  -3.377  0.00  0.00     0.022 A 
ATOM      4  N1  <0> d          -0.418   1.721  -2.453  0.00  0.00    -0.263 NA
ATOM      5  C4  <0> d          -0.785   1.607  -1.187  0.00  0.00     0.040 A 
ATOM      6  C5  <0> d          -2.051   1.997  -0.785  0.00  0.00    -0.032 A 
ATOM      7  C6  <0> d          -2.214   1.765   0.701  0.00  0.00    -0.039 C 
ATOM      8  C7  <0> d          -0.776   1.604   1.245  0.00  0.00    -0.056 C 
ATOM      9  C8  <0> d          -0.013   1.086   0.008  0.00  0.00    -0.024 C 
ATOM     10  C9  <0> d          -3.390   3.137  -4.054  0.00  0.00     0.101 C 
ATOM     11  N2  <0> d          -4.086   3.551  -4.851  0.00  0.00    -0.191 NA
ATOM     12  H1  <0> d          -3.929   2.818  -1.427  0.00  0.00     0.086 H 
ATOM     13  H2  <0> d          -0.879   2.275  -4.399  0.00  0.00     0.117 H 
ATOM     14  H3  <0> d          -2.724   2.628   1.153  0.00  0.00     0.040 H 
ATOM     15  H4  <0> d          -2.814   0.857   0.867  0.00  0.00     0.040 H 
ATOM     16  H5  <0> d          -0.407   2.578   1.599  0.00  0.00     0.034 H 
ATOM     17  H6  <0> d          -0.778   0.887   2.079  0.00  0.00     0.034 H 
ATOM     18  H7  <0> d           0.009  -0.014  -0.021  0.00  0.00     0.042 H 
ATOM     19  H8  <0> d           1.016   1.474  -0.023  0.00  0.00     0.042 H 
ENDROOT
TORSDOF 0
