REMARK  4 active torsions:
REMARK  status: ('A' for Active; 'I' for Inactive)
REMARK    1  A    between atoms: C1_1  and  C2_2 
REMARK    2  A    between atoms: C2_2  and  C3_3 
REMARK    3  A    between atoms: C2_2  and  C4_4 
REMARK    4  A    between atoms: C5_5  and  C7_9 
ROOT
ATOM      1  C2  <0> d          -1.648   4.326   0.040  0.00  0.00    -0.011 C 
ATOM      2  H4  <0> d          -1.029   5.236   0.038  0.00  0.00     0.049 H 
ENDROOT
BRANCH   1   3
ATOM      3  C1  <0> d          -2.542   4.304  -1.202  0.00  0.00    -0.067 C 
ATOM      4  H1  <0> d          -1.916   4.329  -2.105  0.00  0.00     0.028 H 
ATOM      5  H2  <0> d          -3.206   5.181  -1.191  0.00  0.00     0.028 H 
ATOM      6  H3  <0> d          -3.148   3.386  -1.200  0.00  0.00     0.028 H 
ENDBRANCH   1   3
BRANCH   1   7
ATOM      7  C3  <0> d          -2.519   4.292   1.297  0.00  0.00    -0.067 C 
ATOM      8  H5  <0> d          -1.876   4.308   2.189  0.00  0.00     0.028 H 
ATOM      9  H6  <0> d          -3.125   3.373   1.298  0.00  0.00     0.028 H 
ATOM     10  H7  <0> d          -3.183   5.169   1.308  0.00  0.00     0.028 H 
ENDBRANCH   1   7
BRANCH   1  11
ATOM     11  C4  <0> d          -0.738   3.125   0.025  0.00  0.00     0.093 A 
ATOM     12  O1  <0> d          -1.116   1.837   0.017  0.00  0.00    -0.305 OA
ATOM     13  C6  <0> d          -0.013   1.076   0.008  0.00  0.00     0.104 A 
ATOM     14  N1  <0> d           1.036   1.842   0.002  0.00  0.00    -0.227 NA
ATOM     15  H8  <0> d           0.002  -0.004   0.002  0.00  0.00     0.155 H 
ATOM     16  C5  <0> d           0.623   3.139   0.013  0.00  0.00     0.165 A 
BRANCH  16  17
ATOM     17  C7  <0> d           1.486   4.332   0.010  0.00  0.00     0.231 C 
ATOM     18  O2  <0> d           0.989   5.441   0.020  0.00  0.00    -0.643 OA
ATOM     19  O3  <0> d           2.827   4.195  -0.004  0.00  0.00    -0.643 OA
ENDBRANCH  16  17
ENDBRANCH   1  11
TORSDOF 4
