REMARK  4 active torsions:
REMARK  status: ('A' for Active; 'I' for Inactive)
REMARK    1  A    between atoms: C1_1  and  C2_2 
REMARK    2  A    between atoms: C2_2  and  C3_4 
REMARK    3  A    between atoms: C2_2  and  C4_7 
REMARK    4  A    between atoms: C3_4  and  S1_5 
ROOT
ATOM      1  C2  <0> d           2.353   4.154   0.002  0.00  0.00     0.040 C 
ATOM      2  H1  <0> d           2.972   3.823   0.836  0.00  0.00     0.057 H 
ENDROOT
BRANCH   1   3
ATOM      3  C1  <0> d           3.088   3.891  -1.314  0.00  0.00    -0.063 C 
ATOM      4  H2  <0> d           2.470   4.221  -2.148  0.00  0.00     0.028 H 
ATOM      5  H3  <0> d           4.030   4.440  -1.320  0.00  0.00     0.028 H 
ATOM      6  H4  <0> d           3.289   2.824  -1.411  0.00  0.00     0.028 H 
ENDBRANCH   1   3
BRANCH   1   7
ATOM      7  C3  <0> d           1.032   3.383   0.010  0.00  0.00     0.054 C 
ATOM      8  H5  <0> d           0.450   3.648  -0.873  0.00  0.00     0.059 H 
ATOM      9  H6  <0> d           0.467   3.639   0.907  0.00  0.00     0.059 H 
BRANCH   7  10
ATOM     10  S1  <0> d           1.371   1.601  -0.002  0.00  0.00     0.251 S 
ATOM     11  O1  <0> d           1.935   1.217   1.244  0.00  0.00    -0.212 OA
ATOM     12  O3  <0> d          -0.011   0.963   0.007  0.00  0.00    -0.212 OA
ENDBRANCH   7  10
ENDBRANCH   1   7
BRANCH   1  13
ATOM     13  C4  <0> d           2.075   5.628   0.136  0.00  0.00     0.177 C 
ATOM     14  O2  <0> d           0.937   6.023   0.229  0.00  0.00    -0.648 OA
ATOM     15  O4  <0> d           3.092   6.504   0.153  0.00  0.00    -0.648 OA
ENDBRANCH   1  13
TORSDOF 4
