REMARK  4 active torsions:
REMARK  status: ('A' for Active; 'I' for Inactive)
REMARK    1  A    between atoms: C2_5  and  C3_7 
REMARK       I    between atoms: C3_7  and  N4_9 
REMARK    2  A    between atoms: N4_9  and  C4_10 
REMARK    3  A    between atoms: C4_10  and  C5_11 
REMARK    4  A    between atoms: C5_11  and  O2_12 
ROOT
ATOM      1  C3  <0> d           0.585  -0.664  -1.018  0.00  0.00     0.291 C 
ATOM      2  O1  <0> d           1.094  -0.045  -1.931  0.00  0.00    -0.264 OA
ATOM      3  N4  <0> d           0.002  -0.004   0.002  0.00  0.00    -0.352 N 
ATOM      4  H3  <0> d          -0.404  -0.499   0.731  0.00  0.00     0.162 HD
ENDROOT
BRANCH   3   5
ATOM      5  C4  <0> d          -0.018   1.461   0.010  0.00  0.00     0.015 C 
ATOM      6  H4  <0> d           1.005   1.838   0.002  0.00  0.00     0.067 H 
ATOM      7  H5  <0> d          -0.545   1.822  -0.873  0.00  0.00     0.067 H 
BRANCH   5   8
ATOM      8  C5  <0> d          -0.734   1.954   1.269  0.00  0.00     0.031 C 
ATOM      9  H6  <0> d          -0.827   3.040   1.232  0.00  0.00     0.076 H 
ATOM     10  H7  <0> d          -1.726   1.506   1.322  0.00  0.00     0.076 H 
BRANCH   8  11
ATOM     11  O2  <0> d           0.020   1.580   2.424  0.00  0.00    -0.399 OA
ATOM     12  H8  <0> d          -0.376   1.861   3.260  0.00  0.00     0.209 HD
ENDBRANCH   8  11
ENDBRANCH   5   8
ENDBRANCH   3   5
BRANCH   1  13
ATOM     13  C2  <0> d           0.605  -2.143  -1.026  0.00  0.00     0.238 A 
ATOM     14  N2  <0> d           1.138  -2.905  -1.956  0.00  0.00    -0.148 NA
ATOM     15  N1  <0> d           0.967  -4.139  -1.628  0.00  0.00    -0.270 N 
ATOM     16  C1  <0> d           0.306  -4.181  -0.456  0.00  0.00     0.082 A 
ATOM     17  H1  <0> d           1.264  -4.908  -2.139  0.00  0.00     0.190 HD
ATOM     18  N3  <0> d           0.086  -2.947  -0.080  0.00  0.00    -0.217 NA
ATOM     19  H2  <0> d           0.014  -5.073   0.079  0.00  0.00     0.145 H 
ENDBRANCH   1  13
TORSDOF 4
