REMARK  4 active torsions:
REMARK  status: ('A' for Active; 'I' for Inactive)
REMARK    1  A    between atoms: C1_1  and  C2_2 
REMARK    2  A    between atoms: C3_4  and  C9_13 
REMARK    3  A    between atoms: C4_7  and  C5_9 
REMARK    4  A    between atoms: C4_7  and  C6_10 
ROOT
ATOM      1  C2  <0> d          -2.017   1.579   2.913  0.00  0.00     0.063 C 
ATOM      2  H1  <0> d          -2.617   2.487   2.974  0.00  0.00     0.086 H 
ATOM      3  C3  <0> d          -2.707   0.516   2.021  0.00  0.00     0.063 C 
ATOM      4  H2  <0> d          -2.327  -0.480   2.245  0.00  0.00     0.086 H 
ATOM      5  O1  <0> d          -2.332   0.917   0.688  0.00  0.00    -0.348 OA
ATOM      6  C4  <0> d          -1.154   1.726   0.801  0.00  0.00     0.165 C 
ATOM      7  O2  <0> d          -0.788   1.814   2.188  0.00  0.00    -0.348 OA
ENDROOT
BRANCH   6   8
ATOM      8  C5  <0> d          -1.438   3.126   0.254  0.00  0.00    -0.025 C 
ATOM      9  H6  <0> d          -1.721   3.056  -0.796  0.00  0.00     0.035 H 
ATOM     10  H7  <0> d          -2.251   3.580   0.820  0.00  0.00     0.035 H 
ATOM     11  H8  <0> d          -0.542   3.741   0.348  0.00  0.00     0.035 H 
ENDBRANCH   6   8
BRANCH   6  12
ATOM     12  C6  <0> d          -0.013   1.086   0.008  0.00  0.00    -0.000 A 
ATOM     13  C8  <0> d           1.335   1.811  -0.001  0.00  0.00    -0.056 A 
ATOM     14  C7  <0> d           0.460   1.806  -1.256  0.00  0.00    -0.056 A 
ATOM     15  H12 <0> d           1.408   2.744   0.558  0.00  0.00     0.033 H 
ATOM     16  H13 <0> d           2.236   1.198  -0.013  0.00  0.00     0.033 H 
ATOM     17  H10 <0> d           0.786   1.189  -2.094  0.00  0.00     0.033 H 
ATOM     18  H11 <0> d          -0.042   2.736  -1.524  0.00  0.00     0.033 H 
ATOM     19  H9  <0> d           0.002  -0.004   0.002  0.00  0.00     0.048 H 
ENDBRANCH   6  12
BRANCH   3  20
ATOM     20  C9  <0> d          -4.226   0.565   2.193  0.00  0.00    -0.050 C 
ATOM     21  H14 <0> d          -4.694  -0.130   1.496  0.00  0.00     0.031 H 
ATOM     22  H15 <0> d          -4.486   0.284   3.214  0.00  0.00     0.031 H 
ATOM     23  H16 <0> d          -4.583   1.576   1.993  0.00  0.00     0.031 H 
ENDBRANCH   3  20
BRANCH   1  24
ATOM     24  C1  <0> d          -1.731   1.020   4.309  0.00  0.00    -0.050 C 
ATOM     25  H3  <0> d          -1.075   0.154   4.226  0.00  0.00     0.031 H 
ATOM     26  H4  <0> d          -1.247   1.786   4.914  0.00  0.00     0.031 H 
ATOM     27  H5  <0> d          -2.668   0.723   4.780  0.00  0.00     0.031 H 
ENDBRANCH   1  24
TORSDOF 4
