REMARK  4 active torsions:
REMARK  status: ('A' for Active; 'I' for Inactive)
REMARK    1  A    between atoms: C1_1  and  C2_2 
REMARK    2  A    between atoms: C2_2  and  C3_4 
REMARK    3  A    between atoms: C2_2  and  S1_6 
REMARK    4  A    between atoms: C3_4  and  O1_5 
ROOT
ATOM      1  C2  <0> d           1.145   3.085   0.008  0.00  0.00     0.079 C 
ATOM      2  H1  <0> d           0.670   3.412  -0.917  0.00  0.00     0.071 H 
ENDROOT
BRANCH   1   3
ATOM      3  C1  <0> d           0.285   3.510   1.200  0.00  0.00    -0.056 C 
ATOM      4  H2  <0> d          -0.701   3.054   1.117  0.00  0.00     0.029 H 
ATOM      5  H3  <0> d           0.760   3.183   2.125  0.00  0.00     0.029 H 
ATOM      6  H4  <0> d           0.184   4.595   1.207  0.00  0.00     0.029 H 
ENDBRANCH   1   3
BRANCH   1   7
ATOM      7  C3  <0> d           1.286   1.562  -0.002  0.00  0.00     0.035 C 
ATOM      8  H5  <0> d           1.840   1.243   0.881  0.00  0.00     0.076 H 
ATOM      9  H6  <0> d           1.823   1.252  -0.899  0.00  0.00     0.076 H 
BRANCH   7  10
ATOM     10  O1  <0> d          -0.011   0.963   0.007  0.00  0.00    -0.399 OA
ATOM     11  H7  <0> d           0.002  -0.004   0.002  0.00  0.00     0.209 HD
ENDBRANCH   7  10
ENDBRANCH   1   7
BRANCH   1  12
ATOM     12  S1  <0> d           2.787   3.844   0.145  0.00  0.00     0.107 S 
ATOM     13  O2  <0> d           3.394   3.478   1.377  0.00  0.00    -0.595 OA
ATOM     14  O3  <0> d           3.494   3.707  -1.080  0.00  0.00    -0.595 OA
ATOM     15  O4  <0> d           2.518   5.337   0.273  0.00  0.00    -0.595 OA
ENDBRANCH   1  12
TORSDOF 4
