REMARK  0 active torsions:
REMARK  status: ('A' for Active; 'I' for Inactive)
ROOT
ATOM      1  C1  <0> d          -1.183   3.043   0.028  0.00  0.00     0.019 A 
ATOM      2  C2  <0> d           0.006   3.758   0.021  0.00  0.00     0.021 A 
ATOM      3  N1  <0> d           1.161   3.122   0.007  0.00  0.00    -0.247 NA
ATOM      4  C3  <0> d           1.186   1.792   0.000  0.00  0.00     0.153 A 
ATOM      5  C4  <0> d          -0.013   1.076   0.008  0.00  0.00     0.040 A 
ATOM      6  N2  <0> d          -1.164   1.722   0.017  0.00  0.00    -0.269 NA
ATOM      7  C5  <0> d           2.438   1.096  -0.015  0.00  0.00     0.121 C 
ATOM      8  N3  <0> d           3.431   0.545  -0.028  0.00  0.00    -0.190 NA
ATOM      9  H1  <0> d          -2.126   3.568   0.039  0.00  0.00     0.117 H 
ATOM     10  H2  <0> d          -0.015   4.838   0.027  0.00  0.00     0.117 H 
ATOM     11  H3  <0> d           0.002  -0.004   0.002  0.00  0.00     0.119 H 
ENDROOT
TORSDOF 0
