REMARK  2 active torsions:
REMARK  status: ('A' for Active; 'I' for Inactive)
REMARK    1  A    between atoms: C1_1  and  C2_2 
REMARK    2  A    between atoms: C3_3  and  C4_7 
ROOT
ATOM      1  C2  <0> d           2.426   3.781  -0.001  0.00  0.00     0.036 A 
ATOM      2  C3  <0> d           1.238   3.063   0.007  0.00  0.00     0.170 A 
ATOM      3  N1  <0> d           0.159   3.836   0.015  0.00  0.00    -0.135 NA
ATOM      4  N2  <0> d           0.279   5.114   0.027  0.00  0.00    -0.110 NA
ATOM      5  S1  <0> d           1.829   5.407   0.014  0.00  0.00     0.032 SA
ENDROOT
BRANCH   1   6
ATOM      6  C1  <0> d           3.848   3.283  -0.017  0.00  0.00    -0.041 C 
ATOM      7  H1  <0> d           4.181   3.168  -1.049  0.00  0.00     0.034 H 
ATOM      8  H2  <0> d           4.490   4.000   0.494  0.00  0.00     0.034 H 
ATOM      9  H3  <0> d           3.901   2.320   0.491  0.00  0.00     0.034 H 
ENDBRANCH   1   6
BRANCH   2  10
ATOM     10  C4  <0> d           1.181   1.591  -0.001  0.00  0.00     0.231 C 
ATOM     11  O1  <0> d           2.209   0.943  -0.014  0.00  0.00    -0.643 OA
ATOM     12  O2  <0> d          -0.011   0.963   0.007  0.00  0.00    -0.643 OA
ENDBRANCH   2  10
TORSDOF 2
