REMARK  3 active torsions:
REMARK  status: ('A' for Active; 'I' for Inactive)
REMARK    1  A    between atoms: C1_1  and  C2_2 
REMARK       I    between atoms: N1_8  and  C7_9 
REMARK    2  A    between atoms: C7_9  and  O2_11 
REMARK    3  A    between atoms: O2_11  and  C8_12 
ROOT
ATOM      1  C2  <0> d           2.223   0.109  -1.293  0.00  0.00     0.013 C 
ATOM      2  H1  <0> d           2.731  -0.396  -0.471  0.00  0.00     0.072 H 
ATOM      3  C3  <0> d           2.353   1.626  -1.122  0.00  0.00    -0.046 C 
ATOM      4  C4  <0> d           1.606   2.059   0.141  0.00  0.00    -0.062 C 
ATOM      5  C5  <0> d           0.121   1.715   0.001  0.00  0.00    -0.050 C 
ATOM      6  C6  <0> d          -0.034   0.199  -0.157  0.00  0.00     0.000 C 
ATOM      7  N1  <0> d           0.797  -0.247  -1.283  0.00  0.00    -0.324 N 
ATOM      8  C7  <0> d           0.263  -0.969  -2.288  0.00  0.00     0.362 C 
ATOM      9  O1  <0> d           0.938  -1.253  -3.257  0.00  0.00    -0.238 OA
ATOM     10  H5  <0> d           3.406   1.893  -1.031  0.00  0.00     0.035 H 
ATOM     11  H6  <0> d           1.924   2.128  -1.989  0.00  0.00     0.035 H 
ATOM     12  H7  <0> d           1.718   3.135   0.279  0.00  0.00     0.033 H 
ATOM     13  H8  <0> d           2.020   1.538   1.005  0.00  0.00     0.033 H 
ATOM     14  H9  <0> d          -0.287   2.216  -0.876  0.00  0.00     0.035 H 
ATOM     15  H10 <0> d          -0.414   2.045   0.891  0.00  0.00     0.035 H 
ATOM     16  H11 <0> d           0.290  -0.299   0.757  0.00  0.00     0.064 H 
ATOM     17  H12 <0> d          -1.079  -0.043  -0.353  0.00  0.00     0.064 H 
ENDROOT
BRANCH   1  18
ATOM     18  C1  <0> d           2.848  -0.313  -2.624  0.00  0.00    -0.057 C 
ATOM     19  H2  <0> d           2.292   0.140  -3.446  0.00  0.00     0.030 H 
ATOM     20  H3  <0> d           3.885   0.020  -2.660  0.00  0.00     0.030 H 
ATOM     21  H4  <0> d           2.811  -1.398  -2.715  0.00  0.00     0.030 H 
ENDBRANCH   1  18
BRANCH   8  22
ATOM     22  O2  <0> d          -1.019  -1.375  -2.217  0.00  0.00    -0.309 OA
BRANCH  22  23
ATOM     23  C8  <0> d          -1.528  -2.148  -3.336  0.00  0.00     0.015 C 
ATOM     24  H13 <0> d          -0.938  -3.058  -3.446  0.00  0.00     0.067 H 
ATOM     25  H14 <0> d          -2.569  -2.411  -3.152  0.00  0.00     0.067 H 
ATOM     26  H15 <0> d          -1.457  -1.557  -4.248  0.00  0.00     0.067 H 
ENDBRANCH  22  23
ENDBRANCH   8  22
TORSDOF 3
