REMARK  3 active torsions:
REMARK  status: ('A' for Active; 'I' for Inactive)
REMARK    1  A    between atoms: N2_4  and  C4_7 
REMARK    2  A    between atoms: C3_5  and  N3_6 
REMARK    3  A    between atoms: C4_7  and  C5_8 
ROOT
ATOM      1  C1  <0> d          -1.301   2.777   2.930  0.00  0.00    -0.021 A 
ATOM      2  C2  <0> d          -2.084   1.619   2.918  0.00  0.00     0.025 A 
ATOM      3  N1  <0> d          -1.725   0.890   1.893  0.00  0.00    -0.183 NA
ATOM      4  N2  <0> d          -0.698   1.558   1.213  0.00  0.00    -0.249 N 
ATOM      5  C3  <0> d          -0.448   2.714   1.870  0.00  0.00     0.119 A 
ATOM      6  H1  <0> d          -1.358   3.577   3.653  0.00  0.00     0.091 H 
ATOM      7  H2  <0> d          -2.854   1.370   3.633  0.00  0.00     0.117 H 
ENDROOT
BRANCH   4   8
ATOM      8  C4  <0> d          -0.013   1.086   0.008  0.00  0.00     0.073 C 
ATOM      9  H5  <0> d           0.002  -0.004   0.002  0.00  0.00     0.075 H 
ATOM     10  H6  <0> d           1.010   1.463   0.000  0.00  0.00     0.075 H 
BRANCH   8  11
ATOM     11  C5  <0> d          -0.753   1.593  -1.232  0.00  0.00     0.225 C 
ATOM     12  F1  <0> d          -0.673   2.988  -1.284  0.00  0.00    -0.213 F 
ATOM     13  F2  <0> d          -0.166   1.049  -2.380  0.00  0.00    -0.213 F 
ATOM     14  H7  <0> d          -1.798   1.290  -1.179  0.00  0.00     0.147 H 
ENDBRANCH   8  11
ENDBRANCH   4   8
BRANCH   5  15
ATOM     15  N3  <0> d           0.506   3.667   1.524  0.00  0.00    -0.384 N 
ATOM     16  H3  <0> d           1.067   3.530   0.744  0.00  0.00     0.157 HD
ATOM     17  H4  <0> d           0.609   4.467   2.062  0.00  0.00     0.157 HD
ENDBRANCH   5  15
TORSDOF 3
