REMARK  0 active torsions:
REMARK  status: ('A' for Active; 'I' for Inactive)
ROOT
ATOM      1  C1  <0> d           3.412  -0.846  -0.035  0.00  0.00    -0.018 A 
ATOM      2  C2  <0> d           2.856  -2.117  -0.037  0.00  0.00     0.026 A 
ATOM      3  N1  <0> d           1.546  -2.010  -0.024  0.00  0.00    -0.179 NA
ATOM      4  N2  <0> d           1.204  -0.653  -0.013  0.00  0.00    -0.227 N 
ATOM      5  C3  <0> d           2.369   0.070  -0.020  0.00  0.00     0.153 A 
ATOM      6  N3  <0> d           2.340   1.410  -0.013  0.00  0.00    -0.217 NA
ATOM      7  C4  <0> d           1.197   2.057   0.002  0.00  0.00     0.129 A 
ATOM      8  C5  <0> d          -0.016   1.350   0.009  0.00  0.00    -0.027 A 
ATOM      9  C6  <0> d           0.002  -0.004   0.002  0.00  0.00     0.009 A 
ATOM     10 Cl1  <0> d           1.187   3.793   0.011  0.00  0.00    -0.062 Cl
ATOM     11  H1  <0> d           4.466  -0.612  -0.044  0.00  0.00     0.091 H 
ATOM     12  H2  <0> d           3.409  -3.044  -0.047  0.00  0.00     0.117 H 
ATOM     13  H3  <0> d          -0.956   1.882   0.017  0.00  0.00     0.090 H 
ATOM     14  H4  <0> d          -0.922  -0.564   0.007  0.00  0.00     0.115 H 
ENDROOT
TORSDOF 0
