REMARK  5 active torsions:
REMARK  status: ('A' for Active; 'I' for Inactive)
REMARK    1  A    between atoms: C1_1  and  C2_2 
REMARK    2  A    between atoms: C2_2  and  C3_3 
REMARK    3  A    between atoms: C3_3  and  C4_4 
REMARK    4  A    between atoms: C4_4  and  C5_5 
REMARK    5  A    between atoms: N1_11  and  C9_12 
ROOT
ATOM      1  C5  <0> d           1.455  -2.521  -2.524  0.00  0.00     0.014 C 
ATOM      2  H1  <0> d           0.998  -2.085  -3.413  0.00  0.00     0.072 H 
ATOM      3  C6  <0> d           1.404  -4.063  -2.599  0.00  0.00    -0.038 C 
ATOM      4  C7  <0> d           2.739  -4.456  -1.925  0.00  0.00     0.011 C 
ATOM      5  C8  <0> d           3.625  -3.246  -2.124  0.00  0.00     0.219 C 
ATOM      6  O1  <0> d           4.831  -3.239  -1.997  0.00  0.00    -0.273 OA
ATOM      7  N1  <0> d           2.881  -2.177  -2.465  0.00  0.00    -0.352 N 
ATOM      8  H11 <0> d           0.555  -4.452  -2.037  0.00  0.00     0.036 H 
ATOM      9  H12 <0> d           1.374  -4.403  -3.634  0.00  0.00     0.036 H 
ATOM     10  H13 <0> d           2.589  -4.648  -0.863  0.00  0.00     0.047 H 
ATOM     11  H14 <0> d           3.171  -5.329  -2.414  0.00  0.00     0.047 H 
ENDROOT
BRANCH   1  12
ATOM     12  C4  <0> d           0.739  -2.027  -1.265  0.00  0.00    -0.046 C 
ATOM     13  H9  <0> d           1.266  -2.388  -0.382  0.00  0.00     0.036 H 
ATOM     14  H10 <0> d          -0.284  -2.405  -1.258  0.00  0.00     0.036 H 
BRANCH  12  15
ATOM     15  C3  <0> d           0.718  -0.497  -1.257  0.00  0.00    -0.064 C 
ATOM     16  H7  <0> d           0.191  -0.136  -2.140  0.00  0.00     0.033 H 
ATOM     17  H8  <0> d           1.741  -0.120  -1.264  0.00  0.00     0.033 H 
BRANCH  15  18
ATOM     18  C2  <0> d           0.002  -0.004   0.002  0.00  0.00    -0.068 C 
ATOM     19  H5  <0> d           0.529  -0.365   0.885  0.00  0.00     0.032 H 
ATOM     20  H6  <0> d          -1.020  -0.381   0.010  0.00  0.00     0.032 H 
BRANCH  18  21
ATOM     21  C1  <0> d          -0.019   1.526   0.010  0.00  0.00    -0.077 C 
ATOM     22  H2  <0> d           1.004   1.903   0.003  0.00  0.00     0.027 H 
ATOM     23  H3  <0> d          -0.546   1.887  -0.873  0.00  0.00     0.027 H 
ATOM     24  H4  <0> d          -0.529   1.877   0.907  0.00  0.00     0.027 H 
ENDBRANCH  18  21
ENDBRANCH  15  18
ENDBRANCH  12  15
ENDBRANCH   1  12
BRANCH   7  25
ATOM     25  C9  <0> d           3.422  -0.844  -2.742  0.00  0.00    -0.016 C 
ATOM     26  H15 <0> d           3.455  -0.267  -1.818  0.00  0.00     0.056 H 
ATOM     27  H16 <0> d           4.428  -0.938  -3.148  0.00  0.00     0.056 H 
ATOM     28  H17 <0> d           2.784  -0.336  -3.465  0.00  0.00     0.056 H 
ENDBRANCH   7  25
TORSDOF 5
