REMARK  2 active torsions:
REMARK  status: ('A' for Active; 'I' for Inactive)
REMARK    1  A    between atoms: C1_1  and  N1_2 
REMARK    2  A    between atoms: N1_2  and  C2_3 
ROOT
ATOM      1  C2  <0> d           1.240  -0.649  -0.013  0.00  0.00     0.127 A 
ATOM      2  C3  <0> d           0.002  -0.004   0.002  0.00  0.00     0.000 A 
ATOM      3  C4  <0> d          -0.017   1.379   0.010  0.00  0.00     0.131 A 
ATOM      4  N2  <0> d           1.133   2.041   0.002  0.00  0.00    -0.230 NA
ATOM      5  C5  <0> d           2.285   1.401  -0.012  0.00  0.00     0.090 A 
ATOM      6  N3  <0> d           2.349   0.085  -0.020  0.00  0.00    -0.225 NA
ATOM      7 Cl1  <0> d          -1.526   2.237   0.021  0.00  0.00    -0.062 Cl
ATOM      8  H5  <0> d          -0.918  -0.570   0.008  0.00  0.00     0.094 H 
ATOM      9  H6  <0> d           3.202   1.971  -0.018  0.00  0.00     0.146 H 
ENDROOT
BRANCH   1  10
ATOM     10  N1  <0> d           1.312  -2.033  -0.021  0.00  0.00    -0.379 N 
ATOM     11  H4  <0> d           2.175  -2.474  -0.032  0.00  0.00     0.160 HD
BRANCH  10  12
ATOM     12  C1  <0> d           0.083  -2.830  -0.013  0.00  0.00    -0.020 C 
ATOM     13  H1  <0> d           0.337  -3.890  -0.021  0.00  0.00     0.056 H 
ATOM     14  H2  <0> d          -0.493  -2.602   0.884  0.00  0.00     0.056 H 
ATOM     15  H3  <0> d          -0.510  -2.593  -0.896  0.00  0.00     0.056 H 
ENDBRANCH  10  12
ENDBRANCH   1  10
TORSDOF 2
