REMARK  0 active torsions:
REMARK  status: ('A' for Active; 'I' for Inactive)
ROOT
ATOM      1  C1  <0> d          -0.016   1.329   0.009  0.00  0.00     0.021 A 
ATOM      2  C2  <0> d           1.131   2.045   0.002  0.00  0.00     0.023 A 
ATOM      3  N1  <0> d           2.330   1.400  -0.013  0.00  0.00    -0.221 N 
ATOM      4  C3  <0> d           2.355   0.032  -0.020  0.00  0.00     0.192 A 
ATOM      5  C4  <0> d           1.134  -0.670  -0.012  0.00  0.00     0.173 A 
ATOM      6  N2  <0> d           0.002  -0.004   0.002  0.00  0.00    -0.244 NA
ATOM      7 Cl1  <0> d           1.125  -2.406  -0.021  0.00  0.00    -0.058 Cl
ATOM      8  N3  <0> d           3.627  -0.340  -0.035  0.00  0.00    -0.218 NA
ATOM      9  C5  <0> d           4.406   0.731  -0.037  0.00  0.00     0.108 A 
ATOM     10  N4  <0> d           3.665   1.816  -0.024  0.00  0.00    -0.159 NA
ATOM     11  H1  <0> d          -0.964   1.847   0.026  0.00  0.00     0.117 H 
ATOM     12  H2  <0> d           1.097   3.124   0.008  0.00  0.00     0.117 H 
ATOM     13  H3  <0> d           5.486   0.714  -0.048  0.00  0.00     0.149 H 
ENDROOT
TORSDOF 0
