REMARK  2 active torsions:
REMARK  status: ('A' for Active; 'I' for Inactive)
REMARK    1  A    between atoms: C3_4  and  N4_7 
REMARK    2  A    between atoms: N2_5  and  N3_6 
ROOT
ATOM      1  C1  <0> d          -2.740   3.231   0.032  0.00  0.00     0.084 A 
ATOM      2  N1  <0> d          -3.381   2.100   0.030  0.00  0.00    -0.228 NA
ATOM      3  C2  <0> d          -2.485   1.077   0.020  0.00  0.00     0.182 A 
ATOM      4  C3  <0> d          -1.217   1.641   0.017  0.00  0.00     0.157 A 
ATOM      5  N2  <0> d          -1.398   2.994   0.030  0.00  0.00    -0.255 N 
ATOM      6  C4  <0> d          -2.792  -0.321   0.014  0.00  0.00     0.123 C 
ATOM      7  N5  <0> d          -3.036  -1.431   0.009  0.00  0.00    -0.190 NA
ATOM      8  H1  <0> d          -3.201   4.208   0.040  0.00  0.00     0.146 H 
ENDROOT
BRANCH   4   9
ATOM      9  N4  <0> d          -0.011   0.966   0.007  0.00  0.00    -0.382 N 
ATOM     10  H4  <0> d           0.002  -0.004   0.002  0.00  0.00     0.157 HD
ATOM     11  H5  <0> d           0.822   1.462   0.002  0.00  0.00     0.157 HD
ENDBRANCH   4   9
BRANCH   5  12
ATOM     12  N3  <0> d          -0.411   3.938   0.038  0.00  0.00    -0.240 NA
ATOM     13  H2  <0> d          -0.152   4.198  -0.902  0.00  0.00     0.143 HD
ATOM     14  H3  <0> d          -0.690   4.748   0.573  0.00  0.00     0.143 HD
ENDBRANCH   5  12
TORSDOF 2
