REMARK  1 active torsions:
REMARK  status: ('A' for Active; 'I' for Inactive)
REMARK    1  A    between atoms: C2_2  and  C4_7 
ROOT
ATOM      1  C4  <0> d           1.720   3.212   0.002  0.00  0.00    -0.026 C 
ATOM      2  C5  <0> d           2.573   3.475   1.245  0.00  0.00    -0.058 C 
ATOM      3  C6  <0> d           3.034   4.934   1.248  0.00  0.00    -0.064 C 
ATOM      4  C7  <0> d           3.863   5.210  -0.008  0.00  0.00    -0.065 C 
ATOM      5  C8  <0> d           3.010   4.947  -1.250  0.00  0.00    -0.064 C 
ATOM      6  C9  <0> d           2.550   3.488  -1.253  0.00  0.00    -0.058 C 
ATOM      7  H4  <0> d           0.850   3.868   0.014  0.00  0.00     0.047 H 
ATOM      8  H5  <0> d           1.982   3.279   2.140  0.00  0.00     0.034 H 
ATOM      9  H6  <0> d           3.444   2.820   1.234  0.00  0.00     0.034 H 
ATOM     10  H7  <0> d           2.163   5.590   1.260  0.00  0.00     0.033 H 
ATOM     11  H8  <0> d           3.642   5.122   2.133  0.00  0.00     0.033 H 
ATOM     12  H9  <0> d           4.191   6.250  -0.006  0.00  0.00     0.033 H 
ATOM     13  H10 <0> d           4.734   4.554  -0.019  0.00  0.00     0.033 H 
ATOM     14  H11 <0> d           2.140   5.603  -1.239  0.00  0.00     0.033 H 
ATOM     15  H12 <0> d           3.601   5.143  -2.145  0.00  0.00     0.033 H 
ATOM     16  H13 <0> d           3.420   2.832  -1.265  0.00  0.00     0.034 H 
ATOM     17  H14 <0> d           1.942   3.300  -2.139  0.00  0.00     0.034 H 
ENDROOT
BRANCH   1  18
ATOM     18  C2  <0> d           1.267   1.775  -0.001  0.00  0.00    -0.018 A 
ATOM     19  C1  <0> d          -0.016   1.345   0.009  0.00  0.00     0.004 A 
ATOM     20  N2  <0> d           0.002  -0.004   0.002  0.00  0.00    -0.289 N 
ATOM     21  H2  <0> d          -0.897   1.970   0.025  0.00  0.00     0.114 H 
ATOM     22  N1  <0> d           1.341  -0.417  -0.013  0.00  0.00    -0.187 NA
ATOM     23  H1  <0> d          -0.774  -0.585   0.006  0.00  0.00     0.188 HD
ATOM     24  C3  <0> d           2.098   0.650  -0.015  0.00  0.00     0.029 A 
ATOM     25  H3  <0> d           3.178   0.660  -0.025  0.00  0.00     0.118 H 
ENDBRANCH   1  18
TORSDOF 1
