REMARK  2 active torsions:
REMARK  status: ('A' for Active; 'I' for Inactive)
REMARK    1  A    between atoms: C3_3  and  C6_8 
REMARK    2  A    between atoms: C6_8  and  C7_9 
ROOT
ATOM      1  C1  <0> d           0.002  -0.004   0.002  0.00  0.00    -0.058 C 
ATOM      2  C2  <0> d           1.214  -0.324   0.913  0.00  0.00    -0.054 C 
ATOM      3  C3  <0> d           2.234   0.782   0.568  0.00  0.00     0.013 C 
ATOM      4  H1  <0> d           2.891   0.432  -0.099  0.00  0.00     0.052 H 
ATOM      5  C4  <0> d           1.446   1.943  -0.001  0.00  0.00     0.131 C 
ATOM      6  O1  <0> d           1.899   2.992  -0.392  0.00  0.00    -0.298 OA
ATOM      7  C5  <0> d          -0.019   1.545   0.011  0.00  0.00    -0.009 C 
ATOM      8  H2  <0> d          -0.918  -0.407   0.426  0.00  0.00     0.033 H 
ATOM      9  H3  <0> d           0.161  -0.384  -1.007  0.00  0.00     0.033 H 
ATOM     10  H4  <0> d           0.929  -0.268   1.964  0.00  0.00     0.034 H 
ATOM     11  H5  <0> d           1.621  -1.307   0.678  0.00  0.00     0.034 H 
ATOM     12  H6  <0> d          -0.511   1.876  -0.794  0.00  0.00     0.044 H 
ATOM     13  H7  <0> d          -0.506   1.914   0.913  0.00  0.00     0.044 H 
ENDROOT
BRANCH   3  14
ATOM     14  C6  <0> d           2.975   1.222   1.832  0.00  0.00     0.025 C 
ATOM     15  H8  <0> d           2.272   1.690   2.521  0.00  0.00     0.050 H 
ATOM     16  H9  <0> d           3.428   0.353   2.309  0.00  0.00     0.050 H 
BRANCH  14  17
ATOM     17  C7  <0> d           4.051   2.212   1.464  0.00  0.00     0.173 C 
ATOM     18  O2  <0> d           4.208   2.531   0.310  0.00  0.00    -0.648 OA
ATOM     19  O3  <0> d           4.834   2.737   2.420  0.00  0.00    -0.648 OA
ENDBRANCH  14  17
ENDBRANCH   3  14
TORSDOF 2
