REMARK  3 active torsions:
REMARK  status: ('A' for Active; 'I' for Inactive)
REMARK    1  A    between atoms: C1_1  and  C2_2 
REMARK    2  A    between atoms: C3_3  and  C4_7 
REMARK    3  A    between atoms: C4_7  and  C5_8 
ROOT
ATOM      1  C2  <0> d          -0.718   1.572   1.248  0.00  0.00     0.087 A 
ATOM      2  C3  <0> d          -0.098   1.845   2.483  0.00  0.00     0.100 A 
ATOM      3  N1  <0> d          -0.993   2.245   3.336  0.00  0.00    -0.107 NA
ATOM      4  O1  <0> d          -2.245   2.244   2.669  0.00  0.00    -0.106 OA
ATOM      5  N2  <0> d          -1.992   1.810   1.343  0.00  0.00    -0.108 NA
ENDROOT
BRANCH   2   6
ATOM      6  C4  <0> d           1.374   1.696   2.771  0.00  0.00     0.060 C 
ATOM      7  H4  <0> d           1.515   1.447   3.823  0.00  0.00     0.058 H 
ATOM      8  H5  <0> d           1.786   0.900   2.151  0.00  0.00     0.058 H 
BRANCH   6   9
ATOM      9  C5  <0> d           2.079   2.991   2.461  0.00  0.00     0.178 C 
ATOM     10  O2  <0> d           1.452   3.938   2.050  0.00  0.00    -0.648 OA
ATOM     11  O3  <0> d           3.405   3.093   2.643  0.00  0.00    -0.648 OA
ENDBRANCH   6   9
ENDBRANCH   2   6
BRANCH   1  12
ATOM     12  C1  <0> d          -0.013   1.086   0.008  0.00  0.00    -0.031 C 
ATOM     13  H1  <0> d           0.002  -0.004   0.002  0.00  0.00     0.035 H 
ATOM     14  H2  <0> d           1.010   1.463   0.000  0.00  0.00     0.035 H 
ATOM     15  H3  <0> d          -0.540   1.447  -0.875  0.00  0.00     0.035 H 
ENDBRANCH   1  12
TORSDOF 3
