REMARK  0 active torsions:
REMARK  status: ('A' for Active; 'I' for Inactive)
ROOT
ATOM      1  C1  <0> d           3.155   2.432  -0.682  0.00  0.00    -0.045 A 
ATOM      2  C2  <0> d           3.160   2.421   0.717  0.00  0.00     0.025 A 
ATOM      3  N1  <0> d           2.031   1.901   1.126  0.00  0.00    -0.157 NA
ATOM      4  N2  <0> d           1.275   1.556  -0.002  0.00  0.00    -0.116 N 
ATOM      5  C3  <0> d           1.985   1.895  -1.098  0.00  0.00     0.032 A 
ATOM      6  O1  <0> d          -0.011   0.963   0.007  0.00  0.00    -0.062 OA
ATOM      7  H1  <0> d           3.946   2.803  -1.317  0.00  0.00     0.088 H 
ATOM      8  H2  <0> d           3.957   2.782   1.350  0.00  0.00     0.117 H 
ATOM      9  H3  <0> d           1.675   1.761  -2.124  0.00  0.00     0.118 H 
ENDROOT
TORSDOF 0
