REMARK  3 active torsions:
REMARK  status: ('A' for Active; 'I' for Inactive)
REMARK    1  A    between atoms: C1_1  and  N1_2 
REMARK    2  A    between atoms: N1_2  and  C2_3 
REMARK    3  A    between atoms: C6_8  and  N3_9 
ROOT
ATOM      1  C2  <0> d          -0.205   1.221   2.474  0.00  0.00     0.058 A 
ATOM      2  C3  <0> d           0.934   0.431   2.608  0.00  0.00    -0.038 A 
ATOM      3  C4  <0> d           1.395   0.124   3.872  0.00  0.00     0.006 A 
ATOM      4  N2  <0> d           0.766   0.557   4.948  0.00  0.00    -0.246 NA
ATOM      5  C5  <0> d          -0.321   1.303   4.869  0.00  0.00     0.154 A 
ATOM      6  C6  <0> d          -0.845   1.662   3.637  0.00  0.00     0.093 A 
ATOM      7 Cl1  <0> d          -1.101   1.840   6.324  0.00  0.00    -0.060 Cl
ATOM      8  H5  <0> d           1.454   0.068   1.733  0.00  0.00     0.089 H 
ATOM      9  H6  <0> d           2.280  -0.485   3.982  0.00  0.00     0.114 H 
ENDROOT
BRANCH   1  10
ATOM     10  N1  <0> d          -0.698   1.558   1.213  0.00  0.00    -0.392 N 
ATOM     11  H4  <0> d          -1.602   2.179   1.124  0.00  0.00     0.159 HD
BRANCH  10  12
ATOM     12  C1  <0> d          -0.013   1.086   0.008  0.00  0.00    -0.021 C 
ATOM     13  H1  <0> d          -0.545   1.450  -0.883  0.00  0.00     0.056 H 
ATOM     14  H2  <0> d           0.002  -0.014   0.002  0.00  0.00     0.056 H 
ATOM     15  H3  <0> d           1.019   1.466   0.000  0.00  0.00     0.056 H 
ENDBRANCH  10  12
ENDBRANCH   1  10
BRANCH   6  16
ATOM     16  N3  <0> d          -1.999   2.454   3.558  0.00  0.00    -0.395 N 
ATOM     17  H7  <0> d          -2.496   2.796   4.478  0.00  0.00     0.156 HD
ATOM     18  H8  <0> d          -2.408   2.733   2.576  0.00  0.00     0.156 HD
ENDBRANCH   6  16
TORSDOF 3
