REMARK  2 active torsions:
REMARK  status: ('A' for Active; 'I' for Inactive)
REMARK    1  A    between atoms: C2_2  and  C3_3 
REMARK    2  A    between atoms: C8_8  and  N1_9 
ROOT
ATOM      1  C1  <0> d          -3.516   4.689   0.058  0.00  0.00    -0.149 C 
ATOM      2  C2  <0> d          -2.493   4.115   0.046  0.00  0.00    -0.075 C 
ATOM      3  H1  <0> d          -4.475   5.228   0.069  0.00  0.00     0.166 H 
ENDROOT
BRANCH   2   4
ATOM      4  C3  <0> d          -1.244   3.414   0.031  0.00  0.00     0.049 A 
ATOM      5  C8  <0> d          -0.038   4.125   0.023  0.00  0.00     0.084 A 
ATOM      6  C7  <0> d           1.169   3.436   0.009  0.00  0.00     0.146 A 
ATOM      7  C6  <0> d           1.177   2.054   0.002  0.00  0.00    -0.006 A 
ATOM      8  F1  <0> d           2.335   4.118   0.001  0.00  0.00    -0.204 F 
ATOM      9  C5  <0> d          -0.016   1.347   0.009  0.00  0.00     0.120 A 
ATOM     10  H3  <0> d           2.116   1.522  -0.009  0.00  0.00     0.093 H 
ATOM     11  C4  <0> d          -1.223   2.018   0.019  0.00  0.00    -0.025 A 
ATOM     12  F2  <0> d           0.002  -0.004   0.002  0.00  0.00    -0.206 F 
ATOM     13  H2  <0> d          -2.150   1.464   0.020  0.00  0.00     0.090 H 
BRANCH   5  14
ATOM     14  N1  <0> d          -0.047   5.522   0.030  0.00  0.00    -0.395 N 
ATOM     15  H4  <0> d           0.901   6.079   0.024  0.00  0.00     0.156 HD
ATOM     16  H5  <0> d          -1.004   6.066   0.042  0.00  0.00     0.156 HD
ENDBRANCH   5  14
ENDBRANCH   2   4
TORSDOF 2
