REMARK  4 active torsions:
REMARK  status: ('A' for Active; 'I' for Inactive)
REMARK    1  A    between atoms: C1_1  and  C2_2 
REMARK    2  A    between atoms: C2_2  and  C3_3 
REMARK    3  A    between atoms: C3_3  and  C4_4 
REMARK    4  A    between atoms: C4_4  and  C5_5 
ROOT
ATOM      1  C3  <0> d          -0.018   1.468   0.010  0.00  0.00     0.029 C 
ATOM      2  C6  <0> d           0.002  -0.004   0.002  0.00  0.00     0.064 C 
ATOM      3  N1  <0> d           0.018  -1.140  -0.004  0.00  0.00    -0.197 NA
ATOM      4  H6  <0> d           1.005   1.845   0.002  0.00  0.00     0.062 H 
ENDROOT
BRANCH   1   5
ATOM      5  C2  <0> d          -0.758   1.975  -1.229  0.00  0.00    -0.053 C 
ATOM      6  H4  <0> d          -1.751   1.527  -1.268  0.00  0.00     0.034 H 
ATOM      7  H5  <0> d          -0.850   3.059  -1.179  0.00  0.00     0.034 H 
BRANCH   5   8
ATOM      8  C1  <0> d           0.026   1.587  -2.485  0.00  0.00    -0.075 C 
ATOM      9  H1  <0> d           1.019   2.035  -2.446  0.00  0.00     0.027 H 
ATOM     10  H2  <0> d           0.118   0.502  -2.535  0.00  0.00     0.027 H 
ATOM     11  H3  <0> d          -0.501   1.948  -3.368  0.00  0.00     0.027 H 
ENDBRANCH   5   8
ENDBRANCH   1   5
BRANCH   1  12
ATOM     12  C4  <0> d          -0.734   1.961   1.269  0.00  0.00    -0.053 C 
ATOM     13  H7  <0> d          -0.827   3.047   1.232  0.00  0.00     0.034 H 
ATOM     14  H8  <0> d          -1.726   1.513   1.322  0.00  0.00     0.034 H 
BRANCH  12  15
ATOM     15  C5  <0> d           0.073   1.560   2.505  0.00  0.00    -0.075 C 
ATOM     16  H9  <0> d           0.167   0.475   2.542  0.00  0.00     0.027 H 
ATOM     17  H10 <0> d           1.065   2.009   2.452  0.00  0.00     0.027 H 
ATOM     18  H11 <0> d          -0.437   1.912   3.402  0.00  0.00     0.027 H 
ENDBRANCH  12  15
ENDBRANCH   1  12
TORSDOF 4
