REMARK  3 active torsions:
REMARK  status: ('A' for Active; 'I' for Inactive)
REMARK    1  A    between atoms: C1_1  and  C2_2 
REMARK    2  A    between atoms: C3_4  and  C5_8 
REMARK    3  A    between atoms: C3_4  and  C6_9 
ROOT
ATOM      1  C2  <0> d           0.002  -0.004   0.002  0.00  0.00    -0.013 A 
ATOM      2  H1  <0> d           0.814  -0.460  -0.564  0.00  0.00     0.045 H 
ATOM      3  C3  <0> d          -1.345  -0.729   0.013  0.00  0.00    -0.006 A 
ATOM      4  C4  <0> d          -0.468  -0.724   1.268  0.00  0.00     0.124 A 
ATOM      5 Cl1  <0> d           0.363  -2.262   1.708  0.00  0.00    -0.100 Cl
ATOM      6 Cl2  <0> d          -1.004   0.295   2.655  0.00  0.00    -0.100 Cl
ENDROOT
BRANCH   3   7
ATOM      7  C5  <0> d          -2.610   0.132   0.032  0.00  0.00    -0.066 C 
ATOM      8  H5  <0> d          -2.631   0.765  -0.855  0.00  0.00     0.028 H 
ATOM      9  H6  <0> d          -3.489  -0.514   0.038  0.00  0.00     0.028 H 
ATOM     10  H7  <0> d          -2.612   0.756   0.925  0.00  0.00     0.028 H 
ENDBRANCH   3   7
BRANCH   3  11
ATOM     11  C6  <0> d          -1.449  -2.039  -0.771  0.00  0.00    -0.066 C 
ATOM     12  H8  <0> d          -0.732  -2.757  -0.374  0.00  0.00     0.028 H 
ATOM     13  H9  <0> d          -2.458  -2.441  -0.675  0.00  0.00     0.028 H 
ATOM     14  H10 <0> d          -1.232  -1.851  -1.822  0.00  0.00     0.028 H 
ENDBRANCH   3  11
BRANCH   1  15
ATOM     15  C1  <0> d          -0.019   1.526   0.010  0.00  0.00    -0.069 C 
ATOM     16  H2  <0> d           1.004   1.903   0.003  0.00  0.00     0.028 H 
ATOM     17  H3  <0> d          -0.546   1.887  -0.873  0.00  0.00     0.028 H 
ATOM     18  H4  <0> d          -0.529   1.877   0.907  0.00  0.00     0.028 H 
ENDBRANCH   1  15
TORSDOF 3
