REMARK  6 active torsions:
REMARK  status: ('A' for Active; 'I' for Inactive)
REMARK    1  A    between atoms: C1_1  and  C2_2 
REMARK    2  A    between atoms: C2_2  and  C3_3 
REMARK    3  A    between atoms: C3_3  and  C4_4 
REMARK    4  A    between atoms: C4_4  and  C5_5 
REMARK    5  A    between atoms: C4_4  and  C6_6 
REMARK    6  A    between atoms: C4_4  and  O1_8 
ROOT
ATOM      1  C6  <0> d          -0.731   2.013  -1.182  0.00  0.00    -0.080 C 
ATOM      2  C7  <0> d          -1.298   2.402  -2.133  0.00  0.00    -0.151 C 
ATOM      3  H11 <0> d          -1.806   2.750  -2.984  0.00  0.00     0.166 H 
ENDROOT
BRANCH   1   4
ATOM      4  C4  <0> d          -0.019   1.526   0.010  0.00  0.00     0.116 C 
BRANCH   4   5
ATOM      5  C3  <0> d          -0.735   2.019   1.269  0.00  0.00    -0.026 C 
ATOM      6  H6  <0> d          -0.750   3.109   1.275  0.00  0.00     0.038 H 
ATOM      7  H7  <0> d          -1.757   1.642   1.277  0.00  0.00     0.038 H 
BRANCH   5   8
ATOM      8  C2  <0> d           0.005   1.512   2.509  0.00  0.00    -0.065 C 
ATOM      9  H4  <0> d           0.020   0.422   2.503  0.00  0.00     0.032 H 
ATOM     10  H5  <0> d           1.028   1.890   2.501  0.00  0.00     0.032 H 
BRANCH   8  11
ATOM     11  C1  <0> d          -0.711   2.006   3.768  0.00  0.00    -0.076 C 
ATOM     12  H1  <0> d          -0.726   3.096   3.774  0.00  0.00     0.027 H 
ATOM     13  H2  <0> d          -1.734   1.629   3.775  0.00  0.00     0.027 H 
ATOM     14  H3  <0> d          -0.184   1.645   4.651  0.00  0.00     0.027 H 
ENDBRANCH   8  11
ENDBRANCH   5   8
ENDBRANCH   4   5
BRANCH   4  15
ATOM     15  C5  <0> d           0.002  -0.004   0.002  0.00  0.00    -0.037 C 
ATOM     16  H8  <0> d           0.529  -0.365   0.885  0.00  0.00     0.033 H 
ATOM     17  H9  <0> d          -1.020  -0.381   0.010  0.00  0.00     0.033 H 
ATOM     18  H10 <0> d           0.512  -0.356  -0.895  0.00  0.00     0.033 H 
ENDBRANCH   4  15
BRANCH   4  19
ATOM     19  O1  <0> d           1.322   2.020   0.000  0.00  0.00    -0.378 OA
ATOM     20  H12 <0> d           1.385   2.985   0.005  0.00  0.00     0.211 HD
ENDBRANCH   4  19
ENDBRANCH   1   4
TORSDOF 6
