REMARK  2 active torsions:
REMARK  status: ('A' for Active; 'I' for Inactive)
REMARK    1  A    between atoms: C5_5  and  N2_8 
REMARK    2  A    between atoms: C6_6  and  N1_7 
ROOT
ATOM      1  C1  <0> d          -1.250   3.043   0.031  0.00  0.00    -0.053 A 
ATOM      2  C2  <0> d          -2.431   3.727   0.035  0.00  0.00    -0.049 A 
ATOM      3  C3  <0> d          -3.648   3.030   0.037  0.00  0.00     0.111 A 
ATOM      4  C4  <0> d          -3.638   1.625   0.028  0.00  0.00     0.137 A 
ATOM      5  C5  <0> d          -2.426   0.937   0.018  0.00  0.00     0.085 A 
ATOM      6  C6  <0> d          -1.234   1.650   0.017  0.00  0.00     0.054 A 
ATOM      7  N3  <0> d          -4.958   1.234   0.032  0.00  0.00    -0.153 NA
ATOM      8  H1  <0> d          -6.811   2.558   0.050  0.00  0.00     0.213 HD
ATOM      9  N4  <0> d          -5.721   2.412   0.043  0.00  0.00    -0.196 N 
ATOM     10  N5  <0> d          -4.935   3.430   0.045  0.00  0.00    -0.155 NA
ATOM     11  H2  <0> d          -0.318   3.588   0.034  0.00  0.00     0.087 H 
ATOM     12  H3  <0> d          -2.428   4.807   0.042  0.00  0.00     0.087 H 
ENDROOT
BRANCH   5  13
ATOM     13  N2  <0> d          -2.410  -0.465   0.008  0.00  0.00    -0.395 N 
ATOM     14  H6  <0> d          -1.451  -1.004   0.000  0.00  0.00     0.156 HD
ATOM     15  H7  <0> d          -3.356  -1.026   0.009  0.00  0.00     0.156 HD
ENDBRANCH   5  13
BRANCH   6  16
ATOM     16  N1  <0> d          -0.011   0.966   0.007  0.00  0.00    -0.397 N 
ATOM     17  H4  <0> d           0.004  -0.134  -0.004  0.00  0.00     0.156 HD
ATOM     18  H5  <0> d           0.934   1.529   0.010  0.00  0.00     0.156 HD
ENDBRANCH   6  16
TORSDOF 2
