REMARK  2 active torsions:
REMARK  status: ('A' for Active; 'I' for Inactive)
REMARK    1  A    between atoms: C2_2  and  N2_10 
REMARK    2  A    between atoms: C5_5  and  N1_8 
ROOT
ATOM      1  C1  <0> d          -0.017   1.379   0.010  0.00  0.00    -0.015 A 
ATOM      2  C2  <0> d           1.176   2.089   0.002  0.00  0.00     0.068 A 
ATOM      3  C3  <0> d           2.389   1.410  -0.013  0.00  0.00     0.144 A 
ATOM      4  C4  <0> d           2.408   0.028  -0.020  0.00  0.00    -0.015 A 
ATOM      5  C5  <0> d           1.215  -0.683  -0.012  0.00  0.00     0.068 A 
ATOM      6  C6  <0> d           0.002  -0.004   0.002  0.00  0.00     0.144 A 
ATOM      7  F1  <0> d          -1.159  -0.695   0.010  0.00  0.00    -0.204 F 
ATOM      8  F2  <0> d           3.550   2.102  -0.021  0.00  0.00    -0.204 F 
ATOM      9  H1  <0> d          -0.959   1.906   0.026  0.00  0.00     0.091 H 
ATOM     10  H2  <0> d           3.350  -0.500  -0.033  0.00  0.00     0.091 H 
ENDROOT
BRANCH   2  11
ATOM     11  N2  <0> d           1.157   3.490   0.009  0.00  0.00    -0.397 N 
ATOM     12  H5  <0> d           0.310   3.964   0.019  0.00  0.00     0.156 HD
ATOM     13  H6  <0> d           1.990   3.987   0.004  0.00  0.00     0.156 HD
ENDBRANCH   2  11
BRANCH   5  14
ATOM     14  N1  <0> d           1.234  -2.084  -0.020  0.00  0.00    -0.397 N 
ATOM     15  H3  <0> d           2.081  -2.558  -0.031  0.00  0.00     0.156 HD
ATOM     16  H4  <0> d           0.401  -2.580  -0.014  0.00  0.00     0.156 HD
ENDBRANCH   5  14
TORSDOF 2
