REMARK  2 active torsions:
REMARK  status: ('A' for Active; 'I' for Inactive)
REMARK    1  A    between atoms: C2_2  and  N2_10 
REMARK    2  A    between atoms: C3_3  and  N1_9 
ROOT
ATOM      1  C1  <0> d           1.174   2.054   0.002  0.00  0.00    -0.015 A 
ATOM      2  C2  <0> d           1.156   3.440   0.009  0.00  0.00     0.055 A 
ATOM      3  C3  <0> d          -0.061   4.120   0.024  0.00  0.00     0.055 A 
ATOM      4  C4  <0> d          -1.250   3.406   0.031  0.00  0.00    -0.015 A 
ATOM      5  C5  <0> d          -1.227   2.022   0.019  0.00  0.00     0.157 A 
ATOM      6  C6  <0> d          -0.016   1.347   0.009  0.00  0.00     0.157 A 
ATOM      7  F1  <0> d           0.002  -0.004   0.002  0.00  0.00    -0.203 F 
ATOM      8  F2  <0> d          -2.386   1.328   0.021  0.00  0.00    -0.203 F 
ATOM      9  H1  <0> d           2.116   1.526  -0.009  0.00  0.00     0.091 H 
ATOM     10  H2  <0> d          -2.194   3.930   0.043  0.00  0.00     0.091 H 
ENDROOT
BRANCH   2  11
ATOM     11  N2  <0> d           2.361   4.158   0.002  0.00  0.00    -0.397 N 
ATOM     12  H5  <0> d           3.207   3.684  -0.008  0.00  0.00     0.156 HD
ATOM     13  H6  <0> d           2.347   5.128   0.007  0.00  0.00     0.156 HD
ENDBRANCH   2  11
BRANCH   3  14
ATOM     14  N1  <0> d          -0.083   5.521   0.032  0.00  0.00    -0.397 N 
ATOM     15  H3  <0> d           0.749   6.019   0.027  0.00  0.00     0.156 HD
ATOM     16  H4  <0> d          -0.930   5.993   0.042  0.00  0.00     0.156 HD
ENDBRANCH   3  14
TORSDOF 2
