REMARK  3 active torsions:
REMARK  status: ('A' for Active; 'I' for Inactive)
REMARK    1  A    between atoms: C1_1  and  C2_2 
REMARK    2  A    between atoms: C2_2  and  C4_4 
REMARK    3  A    between atoms: C4_4  and  C5_5 
ROOT
ATOM      1  C5  <0> d          -1.774  -0.933   1.429  0.00  0.00    -0.054 A 
ATOM      2  C6  <0> d          -1.379  -2.028   2.175  0.00  0.00    -0.077 A 
ATOM      3  C7  <0> d          -1.821  -2.174   3.477  0.00  0.00    -0.082 A 
ATOM      4  C8  <0> d          -2.657  -1.224   4.033  0.00  0.00    -0.083 A 
ATOM      5  C9  <0> d          -3.051  -0.128   3.288  0.00  0.00    -0.082 A 
ATOM      6  C10 <0> d          -2.606   0.019   1.987  0.00  0.00    -0.077 A 
ATOM      7  H8  <0> d          -0.726  -2.771   1.741  0.00  0.00     0.084 H 
ATOM      8  H9  <0> d          -1.513  -3.029   4.059  0.00  0.00     0.083 H 
ATOM      9  H10 <0> d          -3.002  -1.337   5.050  0.00  0.00     0.083 H 
ATOM     10  H11 <0> d          -3.705   0.614   3.722  0.00  0.00     0.083 H 
ATOM     11  H12 <0> d          -2.911   0.877   1.406  0.00  0.00     0.084 H 
ENDROOT
BRANCH   1  12
ATOM     12  C4  <0> d          -1.293  -0.775   0.010  0.00  0.00    -0.022 C 
ATOM     13  H6  <0> d          -2.041  -0.235  -0.569  0.00  0.00     0.046 H 
ATOM     14  H7  <0> d          -1.132  -1.759  -0.431  0.00  0.00     0.046 H 
BRANCH  12  15
ATOM     15  C2  <0> d           0.002  -0.004   0.002  0.00  0.00    -0.089 C 
ATOM     16  C3  <0> d           1.145  -0.644  -0.012  0.00  0.00    -0.119 C 
ATOM     17  H4  <0> d           1.160  -1.723  -0.018  0.00  0.00     0.067 H 
ATOM     18  H5  <0> d           2.073  -0.091  -0.018  0.00  0.00     0.067 H 
BRANCH  15  19
ATOM     19  C1  <0> d          -0.018   1.503   0.010  0.00  0.00    -0.055 C 
ATOM     20  H1  <0> d           1.004   1.880   0.003  0.00  0.00     0.033 H 
ATOM     21  H2  <0> d          -0.545   1.864  -0.873  0.00  0.00     0.033 H 
ATOM     22  H3  <0> d          -0.529   1.854   0.907  0.00  0.00     0.033 H 
ENDBRANCH  15  19
ENDBRANCH  12  15
ENDBRANCH   1  12
TORSDOF 3
