REMARK  7 active torsions:
REMARK  status: ('A' for Active; 'I' for Inactive)
REMARK    1  A    between atoms: C1_1  and  C2_2 
REMARK    2  A    between atoms: C2_2  and  C3_3 
REMARK    3  A    between atoms: C3_3  and  C4_4 
REMARK    4  A    between atoms: C3_3  and  C5_5 
REMARK    5  A    between atoms: C3_3  and  O1_6 
REMARK    6  A    between atoms: O1_6  and  C6_7 
REMARK    7  A    between atoms: C6_7  and  C7_9 
ROOT
ATOM      1  C3  <0> d           2.367   1.117  -0.015  0.00  0.00     0.063 C 
ENDROOT
BRANCH   1   2
ATOM      2  C2  <0> d           3.568   2.065  -0.021  0.00  0.00    -0.040 C 
ATOM      3  H4  <0> d           4.487   1.488  -0.122  0.00  0.00     0.036 H 
ATOM      4  H5  <0> d           3.479   2.757  -0.858  0.00  0.00     0.036 H 
BRANCH   2   5
ATOM      5  C1  <0> d           3.603   2.853   1.290  0.00  0.00    -0.074 C 
ATOM      6  H1  <0> d           4.458   3.528   1.286  0.00  0.00     0.027 H 
ATOM      7  H2  <0> d           2.684   3.430   1.392  0.00  0.00     0.027 H 
ATOM      8  H3  <0> d           3.691   2.160   2.128  0.00  0.00     0.027 H 
ENDBRANCH   2   5
ENDBRANCH   1   2
BRANCH   1   9
ATOM      9  C4  <0> d           2.426   0.228   1.229  0.00  0.00    -0.047 C 
ATOM     10  H6  <0> d           1.571  -0.448   1.234  0.00  0.00     0.031 H 
ATOM     11  H7  <0> d           3.348  -0.353   1.218  0.00  0.00     0.031 H 
ATOM     12  H8  <0> d           2.401   0.852   2.123  0.00  0.00     0.031 H 
ENDBRANCH   1   9
BRANCH   1  13
ATOM     13  C5  <0> d           2.402   0.241  -1.269  0.00  0.00    -0.047 C 
ATOM     14  H9  <0> d           2.360   0.875  -2.155  0.00  0.00     0.031 H 
ATOM     15  H10 <0> d           3.324  -0.340  -1.281  0.00  0.00     0.031 H 
ATOM     16  H11 <0> d           1.547  -0.434  -1.264  0.00  0.00     0.031 H 
ENDBRANCH   1  13
BRANCH   1  17
ATOM     17  O1  <0> d           1.139   1.891   0.001  0.00  0.00    -0.311 OA
BRANCH  17  18
ATOM     18  C6  <0> d          -0.014   1.204   0.009  0.00  0.00     0.255 C 
ATOM     19  O2  <0> d           0.002  -0.004   0.002  0.00  0.00    -0.266 OA
BRANCH  18  20
ATOM     20  C7  <0> d          -1.329   1.940   0.019  0.00  0.00     0.004 C 
ATOM     21  H12 <0> d          -2.148   1.220   0.019  0.00  0.00     0.041 H 
ATOM     22  H13 <0> d          -1.391   2.561   0.913  0.00  0.00     0.041 H 
ATOM     23  H14 <0> d          -1.400   2.570  -0.867  0.00  0.00     0.041 H 
ENDBRANCH  18  20
ENDBRANCH  17  18
ENDBRANCH   1  17
TORSDOF 7
