REMARK  8 active torsions:
REMARK  status: ('A' for Active; 'I' for Inactive)
REMARK    1  A    between atoms: C1_1  and  O1_2 
REMARK    2  A    between atoms: O1_2  and  C2_3 
REMARK    3  A    between atoms: C2_3  and  C3_4 
REMARK    4  A    between atoms: C2_3  and  C4_6 
REMARK    5  A    between atoms: C2_3  and  O4_8 
REMARK    6  A    between atoms: C3_4  and  O2_5 
REMARK    7  A    between atoms: C4_6  and  O3_7 
REMARK    8  A    between atoms: O4_8  and  C5_9 
ROOT
ATOM      1  C2  <0> d           1.145   3.085   0.008  0.00  0.00     0.206 C 
ENDROOT
BRANCH   1   2
ATOM      2  O1  <0> d           2.442   3.684  -0.002  0.00  0.00    -0.356 OA
BRANCH   2   3
ATOM      3  C1  <0> d           2.423   5.113   0.006  0.00  0.00     0.008 C 
ATOM      4  H1  <0> d           3.446   5.490  -0.001  0.00  0.00     0.066 H 
ATOM      5  H2  <0> d           1.896   5.474  -0.877  0.00  0.00     0.066 H 
ATOM      6  H3  <0> d           1.913   5.465   0.903  0.00  0.00     0.066 H 
ENDBRANCH   2   3
ENDBRANCH   1   2
BRANCH   1   7
ATOM      7  C3  <0> d           1.286   1.562  -0.002  0.00  0.00     0.070 C 
ATOM      8  H4  <0> d           1.840   1.243   0.881  0.00  0.00     0.082 H 
ATOM      9  H5  <0> d           1.823   1.252  -0.899  0.00  0.00     0.082 H 
BRANCH   7  10
ATOM     10  O2  <0> d          -0.011   0.963   0.007  0.00  0.00    -0.395 OA
ATOM     11  H6  <0> d           0.002  -0.004   0.002  0.00  0.00     0.209 HD
ENDBRANCH   7  10
ENDBRANCH   1   7
BRANCH   1  12
ATOM     12  C4  <0> d           0.392   3.519   1.266  0.00  0.00     0.070 C 
ATOM     13  H7  <0> d           0.291   4.605   1.273  0.00  0.00     0.082 H 
ATOM     14  H8  <0> d          -0.598   3.063   1.274  0.00  0.00     0.082 H 
BRANCH  12  15
ATOM     15  O3  <0> d           1.117   3.101   2.424  0.00  0.00    -0.395 OA
ATOM     16  H9  <0> d           0.697   3.344   3.261  0.00  0.00     0.209 HD
ENDBRANCH  12  15
ENDBRANCH   1  12
BRANCH   1  17
ATOM     17  O4  <0> d           0.419   3.503  -1.150  0.00  0.00    -0.356 OA
BRANCH  17  18
ATOM     18  C5  <0> d           1.040   3.145  -2.386  0.00  0.00     0.008 C 
ATOM     19  H10 <0> d           2.027   3.603  -2.443  0.00  0.00     0.066 H 
ATOM     20  H11 <0> d           1.139   2.061  -2.443  0.00  0.00     0.066 H 
ATOM     21  H12 <0> d           0.428   3.498  -3.216  0.00  0.00     0.066 H 
ENDBRANCH  17  18
ENDBRANCH   1  17
TORSDOF 8
