REMARK  2 active torsions:
REMARK  status: ('A' for Active; 'I' for Inactive)
REMARK    1  A    between atoms: C1_1  and  C2_2 
REMARK    2  A    between atoms: C3_4  and  C4_6 
ROOT
ATOM      1  C4  <0> d           0.035   0.160   3.645  0.00  0.00    -0.010 A 
ATOM      2  C5  <0> d          -0.474  -1.127   3.459  0.00  0.00    -0.071 A 
ATOM      3  C6  <0> d          -0.279  -2.090   4.427  0.00  0.00    -0.082 A 
ATOM      4  C7  <0> d           0.411  -1.780   5.586  0.00  0.00    -0.083 A 
ATOM      5  C8  <0> d           0.914  -0.505   5.779  0.00  0.00    -0.082 A 
ATOM      6  C9  <0> d           0.731   0.466   4.816  0.00  0.00    -0.071 A 
ATOM      7  H5  <0> d          -1.017  -1.369   2.557  0.00  0.00     0.084 H 
ATOM      8  H6  <0> d          -0.669  -3.086   4.283  0.00  0.00     0.083 H 
ATOM      9  H7  <0> d           0.558  -2.536   6.343  0.00  0.00     0.083 H 
ATOM     10  H8  <0> d           1.452  -0.270   6.685  0.00  0.00     0.083 H 
ATOM     11  H9  <0> d           1.124   1.460   4.968  0.00  0.00     0.084 H 
ENDROOT
BRANCH   1  12
ATOM     12  C3  <0> d          -0.165   1.194   2.610  0.00  0.00     0.064 A 
ATOM     13  C2  <0> d          -0.729   1.579   1.267  0.00  0.00     0.071 A 
ATOM     14  H1  <0> d          -1.805   1.728   1.179  0.00  0.00     0.085 H 
ATOM     15  N1  <0> d           0.019   2.411   2.213  0.00  0.00    -0.280 NA
BRANCH  13  16
ATOM     16  C1  <0> d          -0.013   1.086   0.008  0.00  0.00    -0.050 C 
ATOM     17  H2  <0> d           0.002  -0.004   0.002  0.00  0.00     0.030 H 
ATOM     18  H3  <0> d           1.010   1.463   0.000  0.00  0.00     0.030 H 
ATOM     19  H4  <0> d          -0.540   1.447  -0.875  0.00  0.00     0.030 H 
ENDBRANCH  13  16
ENDBRANCH   1  12
TORSDOF 2
