REMARK  3 active torsions:
REMARK  status: ('A' for Active; 'I' for Inactive)
REMARK    1  A    between atoms: C1_1  and  C2_2 
REMARK    2  A    between atoms: C4_4  and  C5_8 
REMARK    3  A    between atoms: C5_8  and  O1_9 
ROOT
ATOM      1  C2  <0> d           0.002  -0.004   0.002  0.00  0.00     0.026 A 
ATOM      2  C3  <0> d           0.008  -0.796  -1.095  0.00  0.00    -0.033 A 
ATOM      3  C4  <0> d           0.028  -2.127  -0.666  0.00  0.00     0.080 A 
ATOM      4  N1  <0> d           0.035  -2.134   0.643  0.00  0.00    -0.177 NA
ATOM      5  N2  <0> d           0.024  -0.805   1.088  0.00  0.00    -0.282 N 
ATOM      6  H1  <0> d           0.029  -0.513   2.013  0.00  0.00     0.189 HD
ATOM      7  H5  <0> d          -0.002  -0.460  -2.122  0.00  0.00     0.089 H 
ENDROOT
BRANCH   3   8
ATOM      8  C5  <0> d           0.040  -3.343  -1.556  0.00  0.00     0.058 C 
ATOM      9  H6  <0> d           0.940  -3.927  -1.361  0.00  0.00     0.083 H 
ATOM     10  H7  <0> d          -0.840  -3.951  -1.351  0.00  0.00     0.083 H 
BRANCH   8  11
ATOM     11  O1  <0> d           0.028  -2.931  -2.924  0.00  0.00    -0.395 OA
ATOM     12  H8  <0> d           0.034  -3.664  -3.555  0.00  0.00     0.209 HD
ENDBRANCH   8  11
ENDBRANCH   3   8
BRANCH   1  13
ATOM     13  C1  <0> d          -0.018   1.503   0.010  0.00  0.00    -0.036 C 
ATOM     14  H2  <0> d           1.004   1.880   0.003  0.00  0.00     0.035 H 
ATOM     15  H3  <0> d          -0.545   1.864  -0.873  0.00  0.00     0.035 H 
ATOM     16  H4  <0> d          -0.529   1.854   0.907  0.00  0.00     0.035 H 
ENDBRANCH   1  13
TORSDOF 3
