REMARK  3 active torsions:
REMARK  status: ('A' for Active; 'I' for Inactive)
REMARK    1  A    between atoms: C1_1  and  C2_2 
REMARK    2  A    between atoms: C2_2  and  C3_4 
REMARK    3  A    between atoms: C2_2  and  N1_6 
ROOT
ATOM      1  N1  <0> d           2.199   0.884  -0.367  0.00  0.00    -0.338 N 
ATOM      2  C4  <0> d           1.373  -0.297  -0.647  0.00  0.00    -0.001 C 
ATOM      3  C5  <0> d           0.002  -0.004   0.002  0.00  0.00    -0.042 C 
ATOM      4  C6  <0> d          -0.019   1.542   0.011  0.00  0.00     0.011 C 
ATOM      5  C7  <0> d           1.442   1.933  -0.001  0.00  0.00     0.220 C 
ATOM      6  O2  <0> d           1.869   3.033   0.278  0.00  0.00    -0.273 OA
ATOM      7  H5  <0> d           1.820  -1.185  -0.200  0.00  0.00     0.064 H 
ATOM      8  H6  <0> d           1.260  -0.432  -1.723  0.00  0.00     0.064 H 
ATOM      9  H7  <0> d          -0.042  -0.400   1.016  0.00  0.00     0.036 H 
ATOM     10  H8  <0> d          -0.811  -0.402  -0.606  0.00  0.00     0.036 H 
ATOM     11  H9  <0> d          -0.523   1.922  -0.878  0.00  0.00     0.047 H 
ATOM     12  H10 <0> d          -0.505   1.912   0.913  0.00  0.00     0.047 H 
ENDROOT
BRANCH   1  13
ATOM     13  C2  <0> d           3.660   0.915  -0.474  0.00  0.00     0.095 C 
ATOM     14  H1  <0> d           4.022  -0.064  -0.788  0.00  0.00     0.089 H 
BRANCH  13  15
ATOM     15  C1  <0> d           4.074   1.967  -1.504  0.00  0.00    -0.048 C 
ATOM     16  H2  <0> d           3.644   1.715  -2.474  0.00  0.00     0.030 H 
ATOM     17  H3  <0> d           3.711   2.946  -1.190  0.00  0.00     0.030 H 
ATOM     18  H4  <0> d           5.160   1.990  -1.583  0.00  0.00     0.030 H 
ENDBRANCH  13  15
BRANCH  13  19
ATOM     19  C3  <0> d           4.253   1.263   0.867  0.00  0.00     0.196 C 
ATOM     20  O1  <0> d           3.531   1.465   1.814  0.00  0.00    -0.646 OA
ATOM     21  O3  <0> d           5.585   1.350   1.008  0.00  0.00    -0.646 OA
ENDBRANCH  13  19
ENDBRANCH   1  13
TORSDOF 3
