REMARK  2 active torsions:
REMARK  status: ('A' for Active; 'I' for Inactive)
REMARK    1  A    between atoms: C1_1  and  C2_2 
REMARK    2  A    between atoms: C5_8  and  C6_10 
ROOT
ATOM      1  C2  <0> d          -2.502   0.947  -0.146  0.00  0.00    -0.015 C 
ATOM      2  H1  <0> d          -3.043   0.831   0.793  0.00  0.00     0.044 H 
ATOM      3  C3  <0> d          -3.381   1.651  -1.208  0.00  0.00     0.033 C 
ATOM      4  O1  <0> d          -2.446   2.469  -1.972  0.00  0.00    -0.320 OA
ATOM      5  C4  <0> d          -1.434   2.861  -1.185  0.00  0.00     0.273 C 
ATOM      6  O2  <0> d          -0.712   3.805  -1.400  0.00  0.00    -0.264 OA
ATOM      7  C5  <0> d          -1.330   1.942   0.013  0.00  0.00     0.119 C 
ATOM      8  H2  <0> d          -1.437   2.509   0.938  0.00  0.00     0.073 H 
ATOM      9  H6  <0> d          -4.130   2.279  -0.725  0.00  0.00     0.075 H 
ATOM     10  H7  <0> d          -3.861   0.917  -1.855  0.00  0.00     0.075 H 
ENDROOT
BRANCH   1  11
ATOM     11  C1  <0> d          -2.004  -0.405  -0.660  0.00  0.00    -0.070 C 
ATOM     12  H3  <0> d          -1.357  -0.862   0.089  0.00  0.00     0.028 H 
ATOM     13  H4  <0> d          -2.856  -1.057  -0.852  0.00  0.00     0.028 H 
ATOM     14  H5  <0> d          -1.443  -0.258  -1.583  0.00  0.00     0.028 H 
ENDBRANCH   1  11
BRANCH   7  15
ATOM     15  C6  <0> d          -0.014   1.208  -0.001  0.00  0.00     0.187 C 
ATOM     16  O3  <0> d           0.574   1.042  -1.043  0.00  0.00    -0.647 OA
ATOM     17  O4  <0> d           0.507   0.743   1.145  0.00  0.00    -0.647 OA
ENDBRANCH   7  15
TORSDOF 2
