REMARK  2 active torsions:
REMARK  status: ('A' for Active; 'I' for Inactive)
REMARK    1  A    between atoms: C1_1  and  C2_2 
REMARK    2  A    between atoms: C2_2  and  C11_12 
ROOT
ATOM      1  C2  <0> d          -1.224   5.896  -0.621  0.00  0.00     0.041 C 
ATOM      2  C3  <0> d          -2.498   5.188  -0.244  0.00  0.00    -0.076 C 
ATOM      3  C4  <0> d          -2.502   3.895   0.054  0.00  0.00    -0.072 C 
ATOM      4  C5  <0> d          -1.235   3.136   0.031  0.00  0.00    -0.010 A 
ATOM      5  C6  <0> d          -1.221   1.745   0.017  0.00  0.00    -0.071 A 
ATOM      6  C7  <0> d          -0.013   1.076   0.008  0.00  0.00    -0.082 A 
ATOM      7  C8  <0> d           1.180   1.779   0.000  0.00  0.00    -0.081 A 
ATOM      8  C9  <0> d           1.178   3.163   0.006  0.00  0.00    -0.057 A 
ATOM      9  C10 <0> d          -0.024   3.846   0.021  0.00  0.00     0.039 A 
ATOM     10  N1  <0> d          -0.077   5.241   0.022  0.00  0.00    -0.377 N 
ATOM     11  H4  <0> d          -3.436   5.761  -0.218  0.00  0.00     0.080 H 
ATOM     12  H5  <0> d          -3.445   3.394   0.317  0.00  0.00     0.084 H 
ATOM     13  H6  <0> d          -2.148   1.192   0.018  0.00  0.00     0.084 H 
ATOM     14  H7  <0> d           0.002  -0.004   0.002  0.00  0.00     0.083 H 
ATOM     15  H8  <0> d           2.118   1.244  -0.010  0.00  0.00     0.083 H 
ATOM     16  H9  <0> d           2.111   3.707  -0.001  0.00  0.00     0.086 H 
ATOM     17  H10 <0> d           0.713   5.848   0.488  0.00  0.00     0.160 HD
ENDROOT
BRANCH   1  18
ATOM     18  C1  <0> d          -1.298   7.354  -0.164  0.00  0.00    -0.050 C 
ATOM     19  H1  <0> d          -2.157   7.845  -0.645  0.00  0.00     0.031 H 
ATOM     20  H2  <0> d          -0.371   7.875  -0.447  0.00  0.00     0.031 H 
ATOM     21  H3  <0> d          -1.420   7.390   0.929  0.00  0.00     0.031 H 
ENDBRANCH   1  18
BRANCH   1  22
ATOM     22  C11 <0> d          -1.048   5.850  -2.141  0.00  0.00    -0.050 C 
ATOM     23  H11 <0> d          -0.994   4.803  -2.472  0.00  0.00     0.031 H 
ATOM     24  H12 <0> d          -0.120   6.371  -2.418  0.00  0.00     0.031 H 
ATOM     25  H13 <0> d          -1.904   6.344  -2.623  0.00  0.00     0.031 H 
ENDBRANCH   1  22
TORSDOF 2
