REMARK  3 active torsions:
REMARK  status: ('A' for Active; 'I' for Inactive)
REMARK    1  A    between atoms: C1_1  and  C2_2 
REMARK    2  A    between atoms: C2_2  and  C3_4 
REMARK    3  A    between atoms: C4_5  and  C5_6 
ROOT
ATOM      1  C5  <0> d           2.405   0.035  -0.021  0.00  0.00     0.018 A 
ATOM      2  C6  <0> d           1.203  -0.681  -0.013  0.00  0.00    -0.065 A 
ATOM      3  C7  <0> d           0.002  -0.004   0.002  0.00  0.00    -0.082 A 
ATOM      4  C8  <0> d          -0.017   1.380   0.010  0.00  0.00    -0.083 A 
ATOM      5  C9  <0> d           1.168   2.096   0.002  0.00  0.00    -0.082 A 
ATOM      6  C10 <0> d           2.377   1.434  -0.013  0.00  0.00    -0.065 A 
ATOM      7  H4  <0> d           1.216  -1.761  -0.019  0.00  0.00     0.085 H 
ATOM      8  H5  <0> d          -0.927  -0.555   0.008  0.00  0.00     0.083 H 
ATOM      9  H6  <0> d          -0.961   1.904   0.017  0.00  0.00     0.083 H 
ATOM     10  H7  <0> d           1.145   3.176   0.008  0.00  0.00     0.083 H 
ATOM     11  H8  <0> d           3.301   1.994  -0.019  0.00  0.00     0.085 H 
ENDROOT
BRANCH   1  12
ATOM     12  C4  <0> d           3.657  -0.660  -0.037  0.00  0.00    -0.059 C 
ATOM     13  C3  <0> d           4.684  -1.230  -0.050  0.00  0.00    -0.024 C 
BRANCH  13  14
ATOM     14  C2  <0> d           5.935  -1.925  -0.067  0.00  0.00     0.198 C 
ATOM     15  O1  <0> d           5.956  -3.139  -0.074  0.00  0.00    -0.284 OA
BRANCH  14  16
ATOM     16  C1  <0> d           7.228  -1.149  -0.075  0.00  0.00    -0.010 C 
ATOM     17  H1  <0> d           7.523  -0.983   0.866  0.00  0.00     0.039 H 
ATOM     18  H2  <0> d           7.992  -1.723  -0.599  0.00  0.00     0.039 H 
ATOM     19  H3  <0> d           7.076  -0.196  -0.582  0.00  0.00     0.039 H 
ENDBRANCH  14  16
ENDBRANCH  13  14
ENDBRANCH   1  12
TORSDOF 3
