REMARK  1 active torsions:
REMARK  status: ('A' for Active; 'I' for Inactive)
REMARK    1  A    between atoms: C5_5  and  O1_7 
ROOT
ATOM      1  C1  <0> d          -0.017   1.384   0.010  0.00  0.00    -0.078 A 
ATOM      2  C2  <0> d           1.160   2.099   0.002  0.00  0.00    -0.050 A 
ATOM      3  C3  <0> d           2.379   1.429  -0.013  0.00  0.00     0.121 A 
ATOM      4  C4  <0> d           2.410   0.025  -0.021  0.00  0.00     0.144 A 
ATOM      5  C5  <0> d           1.199  -0.689  -0.013  0.00  0.00     0.098 A 
ATOM      6  C6  <0> d           0.002  -0.004   0.002  0.00  0.00    -0.049 A 
ATOM      7  N1  <0> d           3.703  -0.357  -0.035  0.00  0.00    -0.125 NA
ATOM      8  N2  <0> d           4.472   0.674  -0.038  0.00  0.00    -0.036 NA
ATOM      9  N3  <0> d           3.691   1.839  -0.024  0.00  0.00    -0.084 N 
ATOM     10  O2  <0> d           4.162   3.175  -0.021  0.00  0.00    -0.060 OA
ATOM     11  H1  <0> d          -0.962   1.907   0.026  0.00  0.00     0.083 H 
ATOM     12  H2  <0> d           1.136   3.179   0.008  0.00  0.00     0.087 H 
ATOM     13  H3  <0> d          -0.928  -0.552   0.008  0.00  0.00     0.087 H 
ENDROOT
BRANCH   5  14
ATOM     14  O1  <0> d           1.208  -2.047  -0.020  0.00  0.00    -0.358 OA
ATOM     15  H4  <0> d           1.219  -2.445   0.862  0.00  0.00     0.217 HD
ENDBRANCH   5  14
TORSDOF 1
