REMARK  2 active torsions:
REMARK  status: ('A' for Active; 'I' for Inactive)
REMARK    1  A    between atoms: C1_1  and  C2_2 
REMARK    2  A    between atoms: C4_6  and  C5_8 
ROOT
ATOM      1  C2  <0> d          -0.729   1.579   1.267  0.00  0.00     0.052 C 
ATOM      2  H1  <0> d          -1.759   1.224   1.291  0.00  0.00     0.078 H 
ATOM      3  C3  <0> d           0.035   1.149   2.543  0.00  0.00     0.048 C 
ATOM      4  O1  <0> d           0.837   2.321   2.799  0.00  0.00    -0.336 OA
ATOM      5  C4  <0> d           0.214   3.372   2.235  0.00  0.00     0.131 C 
ATOM      6  N1  <0> d          -0.675   3.051   1.361  0.00  0.00    -0.264 NA
ATOM      7  H5  <0> d          -0.653   0.957   3.366  0.00  0.00     0.078 H 
ATOM      8  H6  <0> d           0.662   0.279   2.349  0.00  0.00     0.078 H 
ENDROOT
BRANCH   1   9
ATOM      9  C1  <0> d          -0.013   1.086   0.008  0.00  0.00    -0.053 C 
ATOM     10  H2  <0> d           0.002  -0.004   0.002  0.00  0.00     0.030 H 
ATOM     11  H3  <0> d           1.010   1.463   0.000  0.00  0.00     0.030 H 
ATOM     12  H4  <0> d          -0.540   1.447  -0.875  0.00  0.00     0.030 H 
ENDBRANCH   1   9
BRANCH   5  13
ATOM     13  C5  <0> d           0.529   4.801   2.596  0.00  0.00    -0.016 C 
ATOM     14  H7  <0> d           1.310   4.820   3.356  0.00  0.00     0.038 H 
ATOM     15  H8  <0> d           0.872   5.333   1.709  0.00  0.00     0.038 H 
ATOM     16  H9  <0> d          -0.368   5.284   2.986  0.00  0.00     0.038 H 
ENDBRANCH   5  13
TORSDOF 2
