REMARK  0 active torsions:
REMARK  status: ('A' for Active; 'I' for Inactive)
ROOT
ATOM      1  C1  <0> d          -0.019   1.530   0.011  0.00  0.00    -0.064 C 
ATOM      2  C2  <0> d           1.441   2.005  -0.001  0.00  0.00    -0.061 C 
ATOM      3  C3  <0> d           2.291   0.801   0.429  0.00  0.00    -0.044 C 
ATOM      4  H1  <0> d           3.295   0.820   0.006  0.00  0.00     0.041 H 
ATOM      5  C4  <0> d           2.288   0.678   1.968  0.00  0.00    -0.046 C 
ATOM      6  C5  <0> d           2.125  -0.802   2.229  0.00  0.00    -0.105 C 
ATOM      7  C6  <0> d           1.679  -1.419   1.168  0.00  0.00    -0.102 C 
ATOM      8  C7  <0> d           1.473  -0.450   0.006  0.00  0.00    -0.034 C 
ATOM      9  H2  <0> d           1.796  -0.855  -0.953  0.00  0.00     0.046 H 
ATOM     10  C8  <0> d           0.002  -0.004   0.002  0.00  0.00    -0.058 C 
ATOM     11  H3  <0> d          -0.518   1.889   0.910  0.00  0.00     0.033 H 
ATOM     12  H4  <0> d          -0.536   1.898  -0.876  0.00  0.00     0.033 H 
ATOM     13  H5  <0> d           1.723   2.323  -1.005  0.00  0.00     0.033 H 
ATOM     14  H6  <0> d           1.573   2.826   0.703  0.00  0.00     0.033 H 
ATOM     15  H7  <0> d           3.232   1.036   2.380  0.00  0.00     0.039 H 
ATOM     16  H8  <0> d           1.452   1.234   2.393  0.00  0.00     0.039 H 
ATOM     17  H9  <0> d           2.348  -1.285   3.168  0.00  0.00     0.076 H 
ATOM     18  H10 <0> d           1.490  -2.480   1.113  0.00  0.00     0.076 H 
ATOM     19  H11 <0> d          -0.502  -0.386   0.890  0.00  0.00     0.033 H 
ATOM     20  H12 <0> d          -0.494  -0.376  -0.895  0.00  0.00     0.033 H 
ENDROOT
TORSDOF 0
