REMARK  6 active torsions:
REMARK  status: ('A' for Active; 'I' for Inactive)
REMARK    1  A    between atoms: C1_1  and  C2_2 
REMARK    2  A    between atoms: C2_2  and  C3_3 
REMARK    3  A    between atoms: C3_3  and  C4_4 
REMARK    4  A    between atoms: C3_3  and  C6_6 
REMARK    5  A    between atoms: C3_3  and  O2_8 
REMARK    6  A    between atoms: C4_4  and  C5_5 
ROOT
ATOM      1  C3  <0> d           1.286   1.562  -0.002  0.00  0.00     0.145 C 
ENDROOT
BRANCH   1   2
ATOM      2  C2  <0> d           2.064   1.114   1.238  0.00  0.00    -0.030 C 
ATOM      3  H4  <0> d           2.164   0.029   1.231  0.00  0.00     0.037 H 
ATOM      4  H5  <0> d           3.053   1.571   1.231  0.00  0.00     0.037 H 
BRANCH   2   5
ATOM      5  C1  <0> d           1.310   1.548   2.497  0.00  0.00    -0.073 C 
ATOM      6  H1  <0> d           0.321   1.091   2.503  0.00  0.00     0.027 H 
ATOM      7  H2  <0> d           1.864   1.229   3.380  0.00  0.00     0.027 H 
ATOM      8  H3  <0> d           1.209   2.634   2.503  0.00  0.00     0.027 H 
ENDBRANCH   2   5
ENDBRANCH   1   2
BRANCH   1   9
ATOM      9  C4  <0> d           2.040   1.127  -1.261  0.00  0.00    -0.030 C 
ATOM     10  H6  <0> d           3.059   1.512  -1.225  0.00  0.00     0.037 H 
ATOM     11  H7  <0> d           2.063   0.039  -1.313  0.00  0.00     0.037 H 
BRANCH   9  12
ATOM     12  C5  <0> d           1.329   1.682  -2.497  0.00  0.00    -0.073 C 
ATOM     13  H8  <0> d           0.310   1.298  -2.533  0.00  0.00     0.027 H 
ATOM     14  H9  <0> d           1.306   2.770  -2.445  0.00  0.00     0.027 H 
ATOM     15  H10 <0> d           1.866   1.372  -3.394  0.00  0.00     0.027 H 
ENDBRANCH   9  12
ENDBRANCH   1   9
BRANCH   1  16
ATOM     16  C6  <0> d           1.147   3.062   0.008  0.00  0.00     0.209 C 
ATOM     17  O1  <0> d           0.049   3.567   0.021  0.00  0.00    -0.646 OA
ATOM     18  O3  <0> d           2.242   3.838   0.001  0.00  0.00    -0.646 OA
ENDBRANCH   1  16
BRANCH   1  19
ATOM     19  O2  <0> d          -0.011   0.963   0.007  0.00  0.00    -0.379 OA
ATOM     20  H11 <0> d           0.002  -0.004   0.002  0.00  0.00     0.211 HD
ENDBRANCH   1  19
TORSDOF 6
