REMARK  0 active torsions:
REMARK  status: ('A' for Active; 'I' for Inactive)
ROOT
ATOM      1  C1  <0> d           1.343  -0.394  -0.013  0.00  0.00    -0.065 A 
ATOM      2  C2  <0> d           0.002  -0.004   0.002  0.00  0.00    -0.054 A 
ATOM      3  C3  <0> d          -0.017   1.379   0.010  0.00  0.00     0.056 A 
ATOM      4  C4  <0> d          -1.052   2.332   0.030  0.00  0.00     0.028 A 
ATOM      5  N1  <0> d          -0.758   3.610   0.029  0.00  0.00    -0.269 NA
ATOM      6  C5  <0> d           0.511   4.033   0.019  0.00  0.00     0.017 A 
ATOM      7  C6  <0> d           1.541   3.167   0.004  0.00  0.00     0.002 A 
ATOM      8  N2  <0> d           1.296   1.814  -0.001  0.00  0.00    -0.330 N 
ATOM      9  C7  <0> d           2.107   0.728  -0.014  0.00  0.00    -0.015 A 
ATOM     10  H1  <0> d           1.708  -1.411  -0.022  0.00  0.00     0.085 H 
ATOM     11  H2  <0> d          -0.857  -0.658   0.007  0.00  0.00     0.087 H 
ATOM     12  H3  <0> d          -2.084   2.012   0.042  0.00  0.00     0.118 H 
ATOM     13  H4  <0> d           0.714   5.094   0.022  0.00  0.00     0.116 H 
ATOM     14  H5  <0> d           2.557   3.533  -0.004  0.00  0.00     0.114 H 
ATOM     15  H6  <0> d           3.186   0.751  -0.024  0.00  0.00     0.112 H 
ENDROOT
TORSDOF 0
