REMARK  3 active torsions:
REMARK  status: ('A' for Active; 'I' for Inactive)
REMARK    1  A    between atoms: C1_1  and  C2_2 
REMARK    2  A    between atoms: C6_9  and  C7_10 
REMARK    3  A    between atoms: C6_9  and  C8_11 
ROOT
ATOM      1  C2  <0> d          -0.798   1.871   1.466  0.00  0.00    -0.041 C 
ATOM      2  H1  <0> d          -1.860   1.655   1.581  0.00  0.00     0.041 H 
ATOM      3  C3  <0> d          -0.516   3.379   1.745  0.00  0.00     0.008 C 
ATOM      4  H2  <0> d          -0.759   3.918   0.939  0.00  0.00     0.052 H 
ATOM      5  C4  <0> d           0.976   3.306   2.238  0.00  0.00    -0.051 C 
ATOM      6  C5  <0> d           0.720   2.239   3.361  0.00  0.00    -0.040 C 
ATOM      7  H3  <0> d           1.586   1.936   3.948  0.00  0.00     0.041 H 
ATOM      8  C6  <0> d           0.025   1.114   2.534  0.00  0.00    -0.040 C 
ATOM      9  C9  <0> d          -0.445   2.911   4.151  0.00  0.00    -0.005 C 
ATOM     10  C10 <0> d          -1.242   3.668   3.067  0.00  0.00     0.131 C 
ATOM     11  O1  <0> d          -2.232   4.341   3.225  0.00  0.00    -0.298 OA
ATOM     12  H7  <0> d           1.319   4.257   2.646  0.00  0.00     0.034 H 
ATOM     13  H8  <0> d           1.647   2.934   1.464  0.00  0.00     0.034 H 
ATOM     14  H15 <0> d          -0.986   2.207   4.610  0.00  0.00     0.044 H 
ATOM     15  H16 <0> d          -0.049   3.610   4.888  0.00  0.00     0.044 H 
ENDROOT
BRANCH   8  16
ATOM     16  C7  <0> d          -0.897   0.284   3.430  0.00  0.00    -0.069 C 
ATOM     17  H9  <0> d          -1.315  -0.543   2.855  0.00  0.00     0.028 H 
ATOM     18  H10 <0> d          -0.328  -0.110   4.272  0.00  0.00     0.028 H 
ATOM     19  H11 <0> d          -1.706   0.914   3.800  0.00  0.00     0.028 H 
ENDBRANCH   8  16
BRANCH   8  20
ATOM     20  C8  <0> d           1.071   0.218   1.867  0.00  0.00    -0.069 C 
ATOM     21  H12 <0> d           1.729   0.827   1.247  0.00  0.00     0.028 H 
ATOM     22  H13 <0> d           1.658  -0.288   2.633  0.00  0.00     0.028 H 
ATOM     23  H14 <0> d           0.570  -0.524   1.244  0.00  0.00     0.028 H 
ENDBRANCH   8  20
BRANCH   1  24
ATOM     24  C1  <0> d          -0.326   1.491   0.061  0.00  0.00    -0.071 C 
ATOM     25  H4  <0> d          -0.480   0.424  -0.098  0.00  0.00     0.028 H 
ATOM     26  H5  <0> d           0.734   1.724  -0.042  0.00  0.00     0.028 H 
ATOM     27  H6  <0> d          -0.895   2.055  -0.678  0.00  0.00     0.028 H 
ENDBRANCH   1  24
TORSDOF 3
