REMARK  3 active torsions:
REMARK  status: ('A' for Active; 'I' for Inactive)
REMARK    1  A    between atoms: C2_2  and  C3_3 
REMARK    2  A    between atoms: C6_7  and  O2_13 
REMARK    3  A    between atoms: C7_9  and  O1_12 
ROOT
ATOM      1  C3  <0> d           1.282   1.847  -0.000  0.00  0.00    -0.036 C 
ATOM      2  H1  <0> d           1.051   2.922   0.008  0.00  0.00     0.046 H 
ATOM      3  C4  <0> d           2.101   1.482   1.239  0.00  0.00    -0.056 C 
ATOM      4  C5  <0> d           3.416   2.265   1.231  0.00  0.00    -0.038 C 
ATOM      5  C6  <0> d           4.211   1.913  -0.028  0.00  0.00     0.060 C 
ATOM      6  H2  <0> d           5.190   2.414  -0.035  0.00  0.00     0.086 H 
ATOM      7  C7  <0> d           3.392   2.278  -1.267  0.00  0.00     0.061 C 
ATOM      8  H3  <0> d           3.211   3.362  -1.320  0.00  0.00     0.086 H 
ATOM      9  C8  <0> d           2.077   1.495  -1.259  0.00  0.00    -0.032 C 
ATOM     10  H7  <0> d           1.530   1.735   2.144  0.00  0.00     0.034 H 
ATOM     11  H8  <0> d           2.317   0.403   1.232  0.00  0.00     0.034 H 
ATOM     12  H9  <0> d           3.200   3.343   1.239  0.00  0.00     0.036 H 
ATOM     13  H10 <0> d           4.005   2.002   2.122  0.00  0.00     0.036 H 
ATOM     14  H11 <0> d           2.293   0.416  -1.267  0.00  0.00     0.037 H 
ATOM     15  H12 <0> d           1.488   1.758  -2.150  0.00  0.00     0.037 H 
ENDROOT
BRANCH   1  16
ATOM     16  C2  <0> d          -0.013   1.076   0.008  0.00  0.00    -0.108 C 
ATOM     17  C1  <0> d          -1.156   1.715   0.017  0.00  0.00    -0.124 C 
ATOM     18  H4  <0> d          -2.101   1.152   0.023  0.00  0.00     0.066 H 
ATOM     19  H5  <0> d          -1.171   2.815   0.018  0.00  0.00     0.066 H 
ATOM     20  H6  <0> d           0.002  -0.024   0.007  0.00  0.00     0.076 H 
ENDBRANCH   1  16
BRANCH   7  21
ATOM     21  O1  <0> d           4.135   1.949  -2.443  0.00  0.00    -0.393 OA
ATOM     22  H13 <0> d           3.704   2.142  -3.437  0.00  0.00     0.210 HD
ENDBRANCH   7  21
BRANCH   5  23
ATOM     23  O2  <0> d           4.491   0.511  -0.038  0.00  0.00    -0.393 OA
ATOM     24  H14 <0> d           5.058   0.070  -0.871  0.00  0.00     0.210 HD
ENDBRANCH   5  23
TORSDOF 3
