REMARK  2 active torsions:
REMARK  status: ('A' for Active; 'I' for Inactive)
REMARK    1  A    between atoms: C1_1  and  C2_2 
REMARK    2  A    between atoms: C4_4  and  N3_10 
ROOT
ATOM      1  C2  <0> d           1.160   1.783   0.001  0.00  0.00    -0.036 A 
ATOM      2  C3  <0> d          -0.013   1.076   0.008  0.00  0.00    -0.032 A 
ATOM      3  C4  <0> d          -1.225   1.762   0.017  0.00  0.00     0.121 A 
ATOM      4  N1  <0> d          -1.257   3.088   0.030  0.00  0.00    -0.242 NA
ATOM      5  C5  <0> d          -0.154   3.806   0.024  0.00  0.00     0.025 A 
ATOM      6  C6  <0> d           1.097   3.184   0.009  0.00  0.00     0.068 A 
ATOM      7  C7  <0> d           2.296   3.966   0.002  0.00  0.00     0.101 C 
ATOM      8  N2  <0> d           3.248   4.586  -0.003  0.00  0.00    -0.191 NA
ATOM      9  H4  <0> d           0.002  -0.004   0.002  0.00  0.00     0.090 H 
ATOM     10  H5  <0> d          -0.216   4.884   0.030  0.00  0.00     0.117 H 
ENDROOT
BRANCH   1  11
ATOM     11  C1  <0> d           2.489   1.072  -0.015  0.00  0.00    -0.050 C 
ATOM     12  H1  <0> d           2.322  -0.016  -0.020  0.00  0.00     0.033 H 
ATOM     13  H2  <0> d           3.065   1.351   0.879  0.00  0.00     0.033 H 
ATOM     14  H3  <0> d           3.048   1.361  -0.917  0.00  0.00     0.033 H 
ENDBRANCH   1  11
BRANCH   3  15
ATOM     15  N3  <0> d          -2.413   1.050   0.019  0.00  0.00    -0.384 N 
ATOM     16  H6  <0> d          -3.375   1.584   0.026  0.00  0.00     0.157 HD
ATOM     17  H7  <0> d          -2.395  -0.050   0.012  0.00  0.00     0.157 HD
ENDBRANCH   3  15
TORSDOF 2
