REMARK  4 active torsions:
REMARK  status: ('A' for Active; 'I' for Inactive)
REMARK    1  A    between atoms: C1_1  and  C2_2 
REMARK    2  A    between atoms: C3_4  and  C5_9 
REMARK    3  A    between atoms: C4_5  and  N4_8 
REMARK    4  A    between atoms: N2_6  and  N3_7 
REMARK       I    between atoms: C5_9  and  N5_11 
ROOT
ATOM      1  C2  <0> d          -2.078   1.761  -1.035  0.00  0.00     0.119 A 
ATOM      2  N1  <0> d          -2.435   2.209  -2.201  0.00  0.00    -0.225 NA
ATOM      3  C3  <0> d          -1.347   2.249  -3.018  0.00  0.00     0.171 A 
ATOM      4  C4  <0> d          -0.262   1.797  -2.280  0.00  0.00     0.152 A 
ATOM      5  N2  <0> d          -0.741   1.490  -1.041  0.00  0.00    -0.248 N 
ENDROOT
BRANCH   3   6
ATOM      6  C5  <0> d          -1.324   2.693  -4.414  0.00  0.00     0.272 C 
ATOM      7  O1  <0> d          -0.280   2.681  -5.039  0.00  0.00    -0.266 OA
ATOM      8  N5  <0> d          -2.460   3.114  -5.005  0.00  0.00    -0.365 N 
ATOM      9  H8  <0> d          -3.292   3.123  -4.507  0.00  0.00     0.159 HD
ATOM     10  H9  <0> d          -2.445   3.408  -5.929  0.00  0.00     0.159 HD
ENDBRANCH   3   6
BRANCH   4  11
ATOM     11  N4  <0> d           1.043   1.679  -2.716  0.00  0.00    -0.382 N 
ATOM     12  H6  <0> d           1.727   1.348  -2.113  0.00  0.00     0.157 HD
ATOM     13  H7  <0> d           1.275   1.927  -3.624  0.00  0.00     0.157 HD
ENDBRANCH   4  11
BRANCH   1  14
ATOM     14  C1  <0> d          -2.998   1.571   0.143  0.00  0.00    -0.020 C 
ATOM     15  H1  <0> d          -3.024   2.486   0.735  0.00  0.00     0.037 H 
ATOM     16  H2  <0> d          -4.002   1.341  -0.214  0.00  0.00     0.037 H 
ATOM     17  H3  <0> d          -2.634   0.750   0.760  0.00  0.00     0.037 H 
ENDBRANCH   1  14
BRANCH   5  18
ATOM     18  N3  <0> d          -0.012   1.005   0.008  0.00  0.00    -0.240 NA
ATOM     19  H4  <0> d           0.002  -0.004   0.002  0.00  0.00     0.143 HD
ATOM     20  H5  <0> d           0.925   1.379   0.001  0.00  0.00     0.143 HD
ENDBRANCH   5  18
TORSDOF 4
