REMARK  2 active torsions:
REMARK  status: ('A' for Active; 'I' for Inactive)
REMARK    1  A    between atoms: C1_1  and  C2_2 
REMARK    2  A    between atoms: C6_7  and  C7_8 
ROOT
ATOM      1  C2  <0> d           0.002  -0.004   0.002  0.00  0.00    -0.036 A 
ATOM      2  C3  <0> d           0.006  -0.699  -1.198  0.00  0.00    -0.053 A 
ATOM      3  C4  <0> d           0.025  -2.086  -1.157  0.00  0.00     0.052 A 
ATOM      4  C5  <0> d           0.040  -2.724   0.071  0.00  0.00     0.023 A 
ATOM      5  N1  <0> d           0.036  -2.029   1.192  0.00  0.00    -0.264 NA
ATOM      6  C6  <0> d           0.023  -0.710   1.190  0.00  0.00     0.036 A 
ATOM      7 Cl1  <0> d           0.031  -3.009  -2.627  0.00  0.00    -0.083 Cl
ATOM      8  H4  <0> d          -0.006  -0.174  -2.141  0.00  0.00     0.087 H 
ATOM      9  H5  <0> d           0.056  -3.803   0.112  0.00  0.00     0.117 H 
ENDROOT
BRANCH   1  10
ATOM     10  C1  <0> d          -0.018   1.503   0.010  0.00  0.00    -0.049 C 
ATOM     11  H1  <0> d           1.004   1.880   0.003  0.00  0.00     0.033 H 
ATOM     12  H2  <0> d          -0.545   1.864  -0.873  0.00  0.00     0.033 H 
ATOM     13  H3  <0> d          -0.529   1.854   0.907  0.00  0.00     0.033 H 
ENDBRANCH   1  10
BRANCH   6  14
ATOM     14  C7  <0> d           0.025   0.036   2.499  0.00  0.00    -0.035 C 
ATOM     15  H6  <0> d          -1.002   0.202   2.825  0.00  0.00     0.035 H 
ATOM     16  H7  <0> d           0.554  -0.550   3.251  0.00  0.00     0.035 H 
ATOM     17  H8  <0> d           0.525   0.996   2.369  0.00  0.00     0.035 H 
ENDBRANCH   6  14
TORSDOF 2
