REMARK  0 active torsions:
REMARK  status: ('A' for Active; 'I' for Inactive)
ROOT
ATOM      1  C1  <0> d          -0.017   1.389   0.010  0.00  0.00    -0.065 A 
ATOM      2  C2  <0> d           1.158   2.086   0.002  0.00  0.00    -0.069 A 
ATOM      3  C3  <0> d           2.363   1.357  -0.013  0.00  0.00    -0.006 A 
ATOM      4  C4  <0> d           3.605   2.007  -0.021  0.00  0.00    -0.051 A 
ATOM      5  C5  <0> d           4.768   1.252  -0.036  0.00  0.00     0.045 A 
ATOM      6  C6  <0> d           4.704  -0.153  -0.043  0.00  0.00    -0.061 A 
ATOM      7  C7  <0> d           3.510  -0.797  -0.036  0.00  0.00    -0.053 A 
ATOM      8  C8  <0> d           2.310  -0.060  -0.020  0.00  0.00     0.066 A 
ATOM      9  N1  <0> d           1.126  -0.679  -0.012  0.00  0.00    -0.260 NA
ATOM     10  C9  <0> d           0.002  -0.004   0.002  0.00  0.00     0.003 A 
ATOM     11  C10 <0> d           6.041   1.907  -0.044  0.00  0.00     0.099 C 
ATOM     12  N2  <0> d           7.052   2.427  -0.050  0.00  0.00    -0.191 NA
ATOM     13  H1  <0> d          -0.959   1.917   0.026  0.00  0.00     0.085 H 
ATOM     14  H2  <0> d           1.163   3.166   0.008  0.00  0.00     0.085 H 
ATOM     15  H3  <0> d           3.656   3.086  -0.016  0.00  0.00     0.087 H 
ATOM     16  H4  <0> d           5.618  -0.728  -0.056  0.00  0.00     0.086 H 
ATOM     17  H5  <0> d           3.479  -1.876  -0.042  0.00  0.00     0.087 H 
ATOM     18  H6  <0> d          -0.934  -0.542   0.008  0.00  0.00     0.114 H 
ENDROOT
TORSDOF 0
