REMARK  0 active torsions:
REMARK  status: ('A' for Active; 'I' for Inactive)
ROOT
ATOM      1  C1  <0> d          -0.016   1.353   0.009  0.00  0.00     0.069 A 
ATOM      2  N1  <0> d           1.077   2.062   0.003  0.00  0.00    -0.224 NA
ATOM      3  C2  <0> d           2.284   1.478  -0.012  0.00  0.00     0.164 A 
ATOM      4  N2  <0> d           3.570   1.944  -0.022  0.00  0.00    -0.333 N 
ATOM      5  C3  <0> d           4.398   0.861  -0.035  0.00  0.00     0.066 A 
ATOM      6  N3  <0> d           3.692  -0.233  -0.035  0.00  0.00    -0.234 NA
ATOM      7  C4  <0> d           2.376   0.083  -0.020  0.00  0.00     0.171 A 
ATOM      8  C5  <0> d           1.177  -0.672  -0.013  0.00  0.00     0.279 A 
ATOM      9  N4  <0> d           0.002  -0.004   0.002  0.00  0.00    -0.316 N 
ATOM     10  O1  <0> d           1.205  -1.891  -0.020  0.00  0.00    -0.265 OA
ATOM     11  H1  <0> d          -0.969   1.862   0.026  0.00  0.00     0.143 H 
ATOM     12  H2  <0> d           5.477   0.904  -0.045  0.00  0.00     0.143 H 
ATOM     13  H3  <0> d           3.844   2.875  -0.019  0.00  0.00     0.168 HD
ATOM     14  H4  <0> d          -0.833  -0.498   0.007  0.00  0.00     0.170 HD
ENDROOT
TORSDOF 0
