REMARK  0 active torsions:
REMARK  status: ('A' for Active; 'I' for Inactive)
ROOT
ATOM      1  C1  <0> d          -0.016   1.359   0.009  0.00  0.00     0.023 A 
ATOM      2  C2  <0> d           1.261   1.777  -0.000  0.00  0.00     0.071 A 
ATOM      3  C3  <0> d           2.098   0.640  -0.019  0.00  0.00     0.082 A 
ATOM      4  N1  <0> d           1.343  -0.418  -0.014  0.00  0.00    -0.177 NA
ATOM      5  N2  <0> d           0.002  -0.004   0.002  0.00  0.00    -0.287 N 
ATOM      6  H1  <0> d          -0.774  -0.585   0.007  0.00  0.00     0.188 HD
ATOM      7  C4  <0> d           3.603   0.737  -0.044  0.00  0.00    -0.019 C 
ATOM      8  C5  <0> d           3.990   2.145  -0.513  0.00  0.00    -0.045 C 
ATOM      9  C6  <0> d           3.233   3.201   0.297  0.00  0.00    -0.007 C 
ATOM     10  N3  <0> d           1.790   3.088   0.007  0.00  0.00    -0.387 N 
ATOM     11  H2  <0> d          -0.895   1.987   0.025  0.00  0.00     0.117 H 
ATOM     12  H3  <0> d           3.999   0.562   0.956  0.00  0.00     0.042 H 
ATOM     13  H4  <0> d           4.007  -0.004  -0.734  0.00  0.00     0.042 H 
ATOM     14  H5  <0> d           5.063   2.288  -0.380  0.00  0.00     0.035 H 
ATOM     15  H6  <0> d           3.743   2.255  -1.569  0.00  0.00     0.035 H 
ATOM     16  H7  <0> d           3.405   3.036   1.361  0.00  0.00     0.064 H 
ATOM     17  H8  <0> d           3.584   4.194   0.020  0.00  0.00     0.064 H 
ATOM     18  H9  <0> d           1.239   3.866  -0.168  0.00  0.00     0.159 HD
ENDROOT
TORSDOF 0
