REMARK  2 active torsions:
REMARK  status: ('A' for Active; 'I' for Inactive)
REMARK    1  A    between atoms: C1_1  and  C2_2 
REMARK    2  A    between atoms: C2_2  and  C3_3 
ROOT
ATOM      1  C3  <0> d          -1.236   3.261   0.032  0.00  0.00     0.018 A 
ATOM      2  C4  <0> d          -1.246   1.911   0.018  0.00  0.00     0.004 A 
ATOM      3  C5  <0> d          -0.014   1.214   0.009  0.00  0.00     0.251 A 
ATOM      4  O1  <0> d           0.002  -0.004   0.002  0.00  0.00    -0.268 OA
ATOM      5  N1  <0> d           1.140   1.910   0.001  0.00  0.00    -0.275 N 
ATOM      6  H1  <0> d           2.014   1.424  -0.010  0.00  0.00     0.173 HD
ATOM      7  C6  <0> d           1.121   3.256   0.009  0.00  0.00     0.327 A 
ATOM      8  O2  <0> d           2.170   3.870   0.002  0.00  0.00    -0.247 OA
ATOM      9  N2  <0> d          -0.043   3.930   0.024  0.00  0.00    -0.312 N 
ATOM     10  H2  <0> d          -0.035   4.931   0.030  0.00  0.00     0.170 HD
ATOM     11  H8  <0> d          -2.181   1.371   0.019  0.00  0.00     0.095 H 
ENDROOT
BRANCH   1  12
ATOM     12  C2  <0> d          -2.534   4.028   0.049  0.00  0.00    -0.030 C 
ATOM     13  H6  <0> d          -2.424   4.941  -0.537  0.00  0.00     0.041 H 
ATOM     14  H7  <0> d          -3.325   3.413  -0.382  0.00  0.00     0.041 H 
BRANCH  12  15
ATOM     15  C1  <0> d          -2.895   4.388   1.491  0.00  0.00    -0.071 C 
ATOM     16  H3  <0> d          -3.005   3.475   2.077  0.00  0.00     0.028 H 
ATOM     17  H4  <0> d          -2.104   5.003   1.921  0.00  0.00     0.028 H 
ATOM     18  H5  <0> d          -3.834   4.942   1.503  0.00  0.00     0.028 H 
ENDBRANCH  12  15
ENDBRANCH   1  12
TORSDOF 2
