REMARK  2 active torsions:
REMARK  status: ('A' for Active; 'I' for Inactive)
REMARK    1  A    between atoms: C5_6  and  C7_9 
REMARK    2  A    between atoms: C7_9  and  C8_10 
ROOT
ATOM      1  C8  <0> d           2.176   1.028  -1.195  0.00  0.00     0.015 C 
ATOM      2  C9  <0> d           3.556   1.541  -1.205  0.00  0.00     0.059 C 
ATOM      3  N1  <0> d           4.621   1.937  -1.213  0.00  0.00    -0.197 NA
ATOM      4  H12 <0> d           2.194  -0.059  -1.111  0.00  0.00     0.054 H 
ATOM      5  H13 <0> d           1.676   1.313  -2.120  0.00  0.00     0.054 H 
ENDROOT
BRANCH   1   6
ATOM      6  C7  <0> d           1.421   1.619  -0.003  0.00  0.00    -0.044 C 
ATOM      7  H10 <0> d           1.404   2.706  -0.086  0.00  0.00     0.035 H 
ATOM      8  H11 <0> d           1.922   1.334   0.922  0.00  0.00     0.035 H 
BRANCH   6   9
ATOM      9  C5  <0> d          -0.013   1.086   0.008  0.00  0.00     0.005 C 
ATOM     10  C4  <0> d          -0.752   1.591  -1.212  0.00  0.00     0.131 C 
ATOM     11  C3  <0> d          -2.243   1.349  -1.297  0.00  0.00    -0.009 C 
ATOM     12  O1  <0> d          -0.167   2.172  -2.094  0.00  0.00    -0.298 OA
ATOM     13  C2  <0> d          -2.891   1.838   0.002  0.00  0.00    -0.059 C 
ATOM     14  H6  <0> d          -2.627   1.852  -2.071  0.00  0.00     0.044 H 
ATOM     15  H7  <0> d          -2.434   0.284  -1.424  0.00  0.00     0.044 H 
ATOM     16  C1  <0> d          -2.211   1.162   1.194  0.00  0.00    -0.064 C 
ATOM     17  H4  <0> d          -2.776   2.919   0.082  0.00  0.00     0.033 H 
ATOM     18  H5  <0> d          -3.951   1.585  -0.003  0.00  0.00     0.033 H 
ATOM     19  C6  <0> d          -0.738   1.584   1.263  0.00  0.00    -0.055 C 
ATOM     20  H2  <0> d          -2.714   1.459   2.115  0.00  0.00     0.033 H 
ATOM     21  H3  <0> d          -2.271   0.080   1.081  0.00  0.00     0.033 H 
ATOM     22  H8  <0> d          -0.272   1.151   2.148  0.00  0.00     0.034 H 
ATOM     23  H9  <0> d          -0.673   2.671   1.313  0.00  0.00     0.034 H 
ATOM     24  H1  <0> d           0.004   0.086  -0.002  0.00  0.00     0.051 H 
ENDBRANCH   6   9
ENDBRANCH   1   6
TORSDOF 2
