REMARK  8 active torsions:
REMARK  status: ('A' for Active; 'I' for Inactive)
REMARK    1  A    between atoms: C1_1  and  C2_2 
REMARK    2  A    between atoms: C2_2  and  C3_3 
REMARK    3  A    between atoms: C3_3  and  C4_4 
REMARK    4  A    between atoms: C4_4  and  O1_5 
REMARK    5  A    between atoms: O1_5  and  C5_6 
REMARK    6  A    between atoms: C5_6  and  C6_7 
REMARK    7  A    between atoms: C6_7  and  C7_8 
REMARK    8  A    between atoms: C7_8  and  C8_9 
ROOT
ATOM      1  O1  <0> d          -0.017   1.425   0.010  0.00  0.00    -0.391 OA
ENDROOT
BRANCH   1   2
ATOM      2  C4  <0> d           0.002  -0.004   0.002  0.00  0.00     0.019 C 
ATOM      3  H8  <0> d           0.512  -0.356  -0.895  0.00  0.00     0.074 H 
ATOM      4  H9  <0> d           0.529  -0.365   0.885  0.00  0.00     0.074 H 
BRANCH   2   5
ATOM      5  C3  <0> d          -1.433  -0.534   0.013  0.00  0.00    -0.045 C 
ATOM      6  H6  <0> d          -1.944  -0.182   0.910  0.00  0.00     0.036 H 
ATOM      7  H7  <0> d          -1.960  -0.173  -0.870  0.00  0.00     0.036 H 
BRANCH   5   8
ATOM      8  C2  <0> d          -1.413  -2.063   0.004  0.00  0.00    -0.067 C 
ATOM      9  H4  <0> d          -0.902  -2.415  -0.892  0.00  0.00     0.032 H 
ATOM     10  H5  <0> d          -0.885  -2.425   0.887  0.00  0.00     0.032 H 
BRANCH   8  11
ATOM     11  C1  <0> d          -2.848  -2.593   0.015  0.00  0.00    -0.076 C 
ATOM     12  H1  <0> d          -3.358  -2.241   0.912  0.00  0.00     0.027 H 
ATOM     13  H2  <0> d          -3.375  -2.232  -0.868  0.00  0.00     0.027 H 
ATOM     14  H3  <0> d          -2.833  -3.683   0.009  0.00  0.00     0.027 H 
ENDBRANCH   8  11
ENDBRANCH   5   8
ENDBRANCH   2   5
ENDBRANCH   1   2
BRANCH   1  15
ATOM     15  C5  <0> d           1.280   2.024   0.001  0.00  0.00     0.019 C 
ATOM     16  H10 <0> d           1.834   1.705   0.884  0.00  0.00     0.074 H 
ATOM     17  H11 <0> d           1.817   1.714  -0.896  0.00  0.00     0.074 H 
BRANCH  15  18
ATOM     18  C6  <0> d           1.139   3.547   0.010  0.00  0.00    -0.045 C 
ATOM     19  H12 <0> d           0.585   3.866  -0.873  0.00  0.00     0.036 H 
ATOM     20  H13 <0> d           0.602   3.857   0.907  0.00  0.00     0.036 H 
BRANCH  18  21
ATOM     21  C7  <0> d           2.528   4.188   0.000  0.00  0.00    -0.067 C 
ATOM     22  H14 <0> d           3.081   3.869   0.883  0.00  0.00     0.032 H 
ATOM     23  H15 <0> d           3.064   3.879  -0.896  0.00  0.00     0.032 H 
BRANCH  21  24
ATOM     24  C8  <0> d           2.386   5.712   0.010  0.00  0.00    -0.076 C 
ATOM     25  H16 <0> d           3.376   6.169   0.003  0.00  0.00     0.027 H 
ATOM     26  H17 <0> d           1.833   6.031  -0.873  0.00  0.00     0.027 H 
ATOM     27  H18 <0> d           1.849   6.021   0.907  0.00  0.00     0.027 H 
ENDBRANCH  21  24
ENDBRANCH  18  21
ENDBRANCH  15  18
ENDBRANCH   1  15
TORSDOF 8
