REMARK  4 active torsions:
REMARK  status: ('A' for Active; 'I' for Inactive)
REMARK    1  A    between atoms: C1_1  and  C2_2 
REMARK    2  A    between atoms: C2_2  and  C3_3 
REMARK    3  A    between atoms: C2_2  and  C6_6 
REMARK    4  A    between atoms: C2_2  and  O1_9 
ROOT
ATOM      1  C2  <0> d           0.002  -0.004   0.002  0.00  0.00     0.061 C 
ENDROOT
BRANCH   1   2
ATOM      2  C1  <0> d          -1.433  -0.534   0.013  0.00  0.00    -0.047 C 
ATOM      3  H1  <0> d          -1.960  -0.173  -0.870  0.00  0.00     0.031 H 
ATOM      4  H2  <0> d          -1.419  -1.623   0.007  0.00  0.00     0.031 H 
ATOM      5  H3  <0> d          -1.944  -0.182   0.910  0.00  0.00     0.031 H 
ENDBRANCH   1   2
BRANCH   1   6
ATOM      6  C3  <0> d           0.718  -0.497  -1.257  0.00  0.00    -0.024 A 
ATOM      7  C5  <0> d           0.129  -0.092  -2.609  0.00  0.00    -0.059 A 
ATOM      8  C4  <0> d           1.431   0.546  -2.119  0.00  0.00    -0.059 A 
ATOM      9  H7  <0> d           0.198  -0.812  -3.425  0.00  0.00     0.033 H 
ATOM     10  H8  <0> d          -0.769   0.526  -2.603  0.00  0.00     0.033 H 
ATOM     11  H5  <0> d           1.390   1.584  -1.789  0.00  0.00     0.033 H 
ATOM     12  H6  <0> d           2.356   0.245  -2.611  0.00  0.00     0.033 H 
ATOM     13  H4  <0> d           1.174  -1.485  -1.182  0.00  0.00     0.044 H 
ENDBRANCH   1   6
BRANCH   1  14
ATOM     14  C6  <0> d           0.742  -0.511   1.242  0.00  0.00    -0.024 A 
ATOM     15  C8  <0> d           0.113  -0.223   2.606  0.00  0.00    -0.059 A 
ATOM     16  C7  <0> d           0.092  -1.645   2.038  0.00  0.00    -0.059 A 
ATOM     17  H12 <0> d           0.788  -0.025   3.439  0.00  0.00     0.033 H 
ATOM     18  H13 <0> d          -0.827   0.327   2.621  0.00  0.00     0.033 H 
ATOM     19  H10 <0> d          -0.862  -2.029   1.679  0.00  0.00     0.033 H 
ATOM     20  H11 <0> d           0.753  -2.380   2.497  0.00  0.00     0.033 H 
ATOM     21  H9  <0> d           1.830  -0.501   1.176  0.00  0.00     0.044 H 
ENDBRANCH   1  14
BRANCH   1  22
ATOM     22  O1  <0> d          -0.017   1.425   0.010  0.00  0.00    -0.389 OA
ATOM     23  H14 <0> d           0.861   1.830   0.004  0.00  0.00     0.210 HD
ENDBRANCH   1  22
TORSDOF 4
