REMARK  6 active torsions:
REMARK  status: ('A' for Active; 'I' for Inactive)
REMARK    1  A    between atoms: C1_1  and  O1_2 
REMARK    2  A    between atoms: O1_2  and  C2_3 
REMARK    3  A    between atoms: C2_3  and  C3_5 
REMARK    4  A    between atoms: C3_5  and  C4_7 
REMARK    5  A    between atoms: C3_5  and  N2_11 
REMARK    6  A    between atoms: C4_7  and  C5_8 
REMARK       I    between atoms: C5_8  and  N1_10 
ROOT
ATOM      1  C3  <0> d          -2.479   0.934   0.019  0.00  0.00     0.220 C 
ATOM      2  H1  <0> d          -2.370   0.214   0.843  0.00  0.00     0.104 H 
ENDROOT
BRANCH   1   3
ATOM      3  C2  <0> d          -3.790   1.665   0.153  0.00  0.00     0.292 C 
ATOM      4  O2  <0> d          -4.468   1.873  -0.825  0.00  0.00    -0.263 OA
BRANCH   3   5
ATOM      5  O1  <0> d          -4.204   2.086   1.359  0.00  0.00    -0.325 OA
BRANCH   5   6
ATOM      6  C1  <0> d          -5.476   2.783   1.413  0.00  0.00     0.013 C 
ATOM      7  H2  <0> d          -5.693   3.070   2.452  0.00  0.00     0.067 H 
ATOM      8  H3  <0> d          -6.273   2.121   1.041  0.00  0.00     0.067 H 
ATOM      9  H4  <0> d          -5.427   3.685   0.786  0.00  0.00     0.067 H 
ENDBRANCH   5   6
ENDBRANCH   3   5
ENDBRANCH   1   3
BRANCH   1  10
ATOM     10  C4  <0> d          -1.330   1.944   0.019  0.00  0.00     0.046 C 
ATOM     11  H5  <0> d          -1.401   2.581  -0.875  0.00  0.00     0.051 H 
ATOM     12  H6  <0> d          -1.392   2.571   0.921  0.00  0.00     0.051 H 
BRANCH  10  13
ATOM     13  C5  <0> d          -0.014   1.209   0.009  0.00  0.00     0.217 C 
ATOM     14  O3  <0> d           0.002  -0.004   0.002  0.00  0.00    -0.274 OA
ATOM     15  N1  <0> d           1.143   1.898   0.001  0.00  0.00    -0.370 N 
ATOM     16  H7  <0> d           2.103   1.361  -0.006  0.00  0.00     0.159 HD
ATOM     17  H8  <0> d           1.129   2.998   0.003  0.00  0.00     0.159 HD
ENDBRANCH  10  13
ENDBRANCH   1  10
BRANCH   1  18
ATOM     18  N2  <0> d          -2.466   0.178  -1.240  0.00  0.00     0.093 N 
ATOM     19  H9  <0> d          -1.509  -0.355  -1.338  0.00  0.00     0.313 HD
ATOM     20  H10 <0> d          -3.293  -0.548  -1.240  0.00  0.00     0.313 HD
ENDBRANCH   1  18
TORSDOF 6
