REMARK  3 active torsions:
REMARK  status: ('A' for Active; 'I' for Inactive)
REMARK    1  A    between atoms: C1_1  and  C2_2 
REMARK    2  A    between atoms: N1_6  and  N4_10 
REMARK    3  A    between atoms: C5_7  and  N3_9 
ROOT
ATOM      1  C2  <0> d          -1.197   1.753   0.017  0.00  0.00     0.055 A 
ATOM      2  C3  <0> d          -0.013   1.076   0.008  0.00  0.00     0.009 A 
ATOM      3  C4  <0> d           1.188   1.807   0.000  0.00  0.00     0.279 A 
ATOM      4  O1  <0> d           2.265   1.234  -0.013  0.00  0.00    -0.266 OA
ATOM      5  N1  <0> d           1.127   3.156   0.008  0.00  0.00    -0.072 N 
ATOM      6  C5  <0> d          -0.083   3.777   0.023  0.00  0.00     0.718 A 
ATOM      7  N2  <0> d          -1.205   3.084   0.031  0.00  0.00    -0.068 NA
ATOM      8  H4  <0> d           0.002  -0.004   0.002  0.00  0.00     0.095 H 
ENDROOT
BRANCH   1   9
ATOM      9  C1  <0> d          -2.498   0.994   0.019  0.00  0.00    -0.035 C 
ATOM     10  H1  <0> d          -2.807   0.805   1.047  0.00  0.00     0.035 H 
ATOM     11  H2  <0> d          -3.263   1.582  -0.488  0.00  0.00     0.035 H 
ATOM     12  H3  <0> d          -2.366   0.045  -0.500  0.00  0.00     0.035 H 
ENDBRANCH   1   9
BRANCH   6  13
ATOM     13  N3  <0> d          -0.137   5.145   0.031  0.00  0.00    -0.231 N 
ATOM     14  H5  <0> d           0.683   5.663   0.026  0.00  0.00     0.174 HD
ATOM     15  H6  <0> d          -0.996   5.596   0.042  0.00  0.00     0.174 HD
ENDBRANCH   6  13
BRANCH   5  16
ATOM     16  N4  <0> d           2.276   3.894   0.002  0.00  0.00    -0.225 NA
ATOM     17  H7  <0> d           3.090   3.297  -0.009  0.00  0.00     0.144 HD
ATOM     18  H8  <0> d           2.289   4.536  -0.776  0.00  0.00     0.144 HD
ENDBRANCH   5  16
TORSDOF 3
