REMARK  1 active torsions:
REMARK  status: ('A' for Active; 'I' for Inactive)
REMARK    1  A    between atoms: C1_1  and  C2_2 
ROOT
ATOM      1  C2  <0> d           0.002  -0.004   0.002  0.00  0.00     0.013 C 
ATOM      2  H1  <0> d           0.521  -0.368  -0.885  0.00  0.00     0.072 H 
ATOM      3  C3  <0> d          -1.438  -0.557   0.042  0.00  0.00    -0.041 C 
ATOM      4  C4  <0> d          -1.664  -0.753   1.557  0.00  0.00    -0.025 C 
ATOM      5  C5  <0> d          -0.271  -0.939   2.122  0.00  0.00     0.011 A 
ATOM      6  N1  <0> d           0.658  -0.511   1.219  0.00  0.00    -0.356 N 
ATOM      7  C6  <0> d           1.904  -0.697   1.754  0.00  0.00    -0.020 A 
ATOM      8  C7  <0> d           1.762  -1.232   2.982  0.00  0.00    -0.066 A 
ATOM      9  C8  <0> d           0.378  -1.386   3.219  0.00  0.00    -0.060 A 
ATOM     10  H5  <0> d          -2.144   0.166  -0.367  0.00  0.00     0.036 H 
ATOM     11  H6  <0> d          -1.505  -1.507  -0.488  0.00  0.00     0.036 H 
ATOM     12  H7  <0> d          -2.136   0.129   1.990  0.00  0.00     0.042 H 
ATOM     13  H8  <0> d          -2.271  -1.640   1.741  0.00  0.00     0.042 H 
ATOM     14  H9  <0> d           2.841  -0.456   1.274  0.00  0.00     0.111 H 
ATOM     15  H10 <0> d           2.560  -1.496   3.660  0.00  0.00     0.085 H 
ATOM     16  H11 <0> d          -0.078  -1.787   4.112  0.00  0.00     0.086 H 
ENDROOT
BRANCH   1  17
ATOM     17  C1  <0> d          -0.019   1.526   0.010  0.00  0.00    -0.057 C 
ATOM     18  H2  <0> d           1.004   1.903   0.003  0.00  0.00     0.030 H 
ATOM     19  H3  <0> d          -0.546   1.887  -0.873  0.00  0.00     0.030 H 
ATOM     20  H4  <0> d          -0.529   1.877   0.907  0.00  0.00     0.030 H 
ENDBRANCH   1  17
TORSDOF 1
