REMARK  3 active torsions:
REMARK  status: ('A' for Active; 'I' for Inactive)
REMARK    1  A    between atoms: C1_1  and  C2_2 
REMARK    2  A    between atoms: C2_2  and  C3_3 
REMARK    3  A    between atoms: C2_2  and  C4_4 
ROOT
ATOM      1  C4  <0> d          -0.132   3.793   0.024  0.00  0.00     0.037 A 
ATOM      2  C5  <0> d           1.107   3.179   0.009  0.00  0.00    -0.059 A 
ATOM      3  C6  <0> d           1.174   1.794   0.001  0.00  0.00    -0.080 A 
ATOM      4  C7  <0> d          -0.013   1.076   0.008  0.00  0.00    -0.066 A 
ATOM      5  C8  <0> d          -1.214   1.759   0.017  0.00  0.00     0.003 A 
ATOM      6  N1  <0> d          -1.239   3.078   0.030  0.00  0.00    -0.265 NA
ATOM      7  H8  <0> d           2.010   3.770   0.004  0.00  0.00     0.086 H 
ATOM      8  H9  <0> d           2.127   1.287  -0.011  0.00  0.00     0.083 H 
ATOM      9  H10 <0> d           0.002  -0.004   0.002  0.00  0.00     0.085 H 
ATOM     10  H11 <0> d          -2.142   1.207   0.018  0.00  0.00     0.114 H 
ENDROOT
BRANCH   1  11
ATOM     11  C2  <0> d          -0.217   5.298   0.032  0.00  0.00    -0.019 C 
ATOM     12  H4  <0> d          -1.171   5.610  -0.391  0.00  0.00     0.048 H 
BRANCH  11  13
ATOM     13  C1  <0> d          -0.106   5.807   1.471  0.00  0.00    -0.068 C 
ATOM     14  H1  <0> d          -0.920   5.393   2.066  0.00  0.00     0.028 H 
ATOM     15  H2  <0> d           0.849   5.494   1.894  0.00  0.00     0.028 H 
ATOM     16  H3  <0> d          -0.167   6.895   1.477  0.00  0.00     0.028 H 
ENDBRANCH  11  13
BRANCH  11  17
ATOM     17  C3  <0> d           0.926   5.878  -0.803  0.00  0.00    -0.068 C 
ATOM     18  H5  <0> d           0.847   5.515  -1.828  0.00  0.00     0.028 H 
ATOM     19  H6  <0> d           0.865   6.966  -0.797  0.00  0.00     0.028 H 
ATOM     20  H7  <0> d           1.881   5.565  -0.380  0.00  0.00     0.028 H 
ENDBRANCH  11  17
ENDBRANCH   1  11
TORSDOF 3
