REMARK  3 active torsions:
REMARK  status: ('A' for Active; 'I' for Inactive)
REMARK    1  A    between atoms: C1_1  and  C2_2 
REMARK    2  A    between atoms: C2_2  and  O2_10 
REMARK    3  A    between atoms: C7_7  and  O1_9 
ROOT
ATOM      1  C2  <0> d           1.145   3.085   0.008  0.00  0.00     0.080 C 
ATOM      2  C3  <0> d           2.534   3.726  -0.002  0.00  0.00    -0.034 C 
ATOM      3  C4  <0> d           3.287   3.292  -1.261  0.00  0.00    -0.062 C 
ATOM      4  C5  <0> d           3.429   1.769  -1.270  0.00  0.00    -0.063 C 
ATOM      5  C6  <0> d           2.040   1.127  -1.261  0.00  0.00    -0.038 C 
ATOM      6  C7  <0> d           1.286   1.562  -0.002  0.00  0.00     0.065 C 
ATOM      7  H1  <0> d           1.840   1.243   0.881  0.00  0.00     0.087 H 
ATOM      8  H5  <0> d           3.088   3.407   0.881  0.00  0.00     0.037 H 
ATOM      9  H6  <0> d           2.433   4.812   0.005  0.00  0.00     0.037 H 
ATOM     10  H7  <0> d           4.277   3.749  -1.268  0.00  0.00     0.033 H 
ATOM     11  H8  <0> d           2.734   3.611  -2.144  0.00  0.00     0.033 H 
ATOM     12  H9  <0> d           3.982   1.450  -0.388  0.00  0.00     0.033 H 
ATOM     13  H10 <0> d           3.966   1.459  -2.167  0.00  0.00     0.033 H 
ATOM     14  H11 <0> d           2.140   0.042  -1.268  0.00  0.00     0.036 H 
ATOM     15  H12 <0> d           1.486   1.446  -2.144  0.00  0.00     0.036 H 
ENDROOT
BRANCH   1  16
ATOM     16  C1  <0> d           0.392   3.519   1.266  0.00  0.00    -0.045 C 
ATOM     17  H2  <0> d           0.945   3.200   2.150  0.00  0.00     0.031 H 
ATOM     18  H3  <0> d           0.291   4.605   1.273  0.00  0.00     0.031 H 
ATOM     19  H4  <0> d          -0.598   3.063   1.274  0.00  0.00     0.031 H 
ENDBRANCH   1  16
BRANCH   1  20
ATOM     20  O2  <0> d           0.419   3.503  -1.150  0.00  0.00    -0.388 OA
ATOM     21  H14 <0> d           0.291   4.460  -1.210  0.00  0.00     0.210 HD
ENDBRANCH   1  20
BRANCH   6  22
ATOM     22  O1  <0> d          -0.011   0.963   0.007  0.00  0.00    -0.393 OA
ATOM     23  H13 <0> d           0.002  -0.004   0.002  0.00  0.00     0.210 HD
ENDBRANCH   6  22
TORSDOF 3
