REMARK  2 active torsions:
REMARK  status: ('A' for Active; 'I' for Inactive)
REMARK    1  A    between atoms: C1_1  and  C2_2 
REMARK    2  A    between atoms: C2_2  and  C3_3 
ROOT
ATOM      1  C3  <0> d           0.718  -0.497  -1.257  0.00  0.00    -0.037 C 
ATOM      2  H1  <0> d           0.267  -0.066  -2.150  0.00  0.00     0.042 H 
ATOM      3  C4  <0> d           0.700  -2.045  -1.327  0.00  0.00    -0.041 C 
ATOM      4  C5  <0> d           2.119  -2.436  -1.756  0.00  0.00     0.015 C 
ATOM      5  H2  <0> d           2.639  -2.955  -0.951  0.00  0.00     0.072 H 
ATOM      6  C6  <0> d           2.119  -3.279  -3.041  0.00  0.00    -0.038 C 
ATOM      7  C7  <0> d           3.422  -2.786  -3.721  0.00  0.00     0.011 C 
ATOM      8  C8  <0> d           3.624  -1.389  -3.169  0.00  0.00     0.220 C 
ATOM      9  O1  <0> d           4.414  -0.578  -3.605  0.00  0.00    -0.273 OA
ATOM     10  N1  <0> d           2.812  -1.178  -2.108  0.00  0.00    -0.347 N 
ATOM     11  C9  <0> d           2.235  -0.166  -1.192  0.00  0.00     0.002 C 
ATOM     12  H8  <0> d           0.470  -2.466  -0.348  0.00  0.00     0.036 H 
ATOM     13  H9  <0> d          -0.026  -2.383  -2.066  0.00  0.00     0.036 H 
ATOM     14  H10 <0> d           2.174  -4.343  -2.813  0.00  0.00     0.036 H 
ATOM     15  H11 <0> d           1.247  -3.056  -3.656  0.00  0.00     0.036 H 
ATOM     16  H12 <0> d           4.260  -3.428  -3.450  0.00  0.00     0.047 H 
ATOM     17  H13 <0> d           3.299  -2.754  -4.803  0.00  0.00     0.047 H 
ATOM     18  H14 <0> d           2.428   0.844  -1.554  0.00  0.00     0.065 H 
ATOM     19  H15 <0> d           2.618  -0.297  -0.180  0.00  0.00     0.065 H 
ENDROOT
BRANCH   1  20
ATOM     20  C2  <0> d           0.002  -0.004   0.002  0.00  0.00    -0.064 C 
ATOM     21  H6  <0> d           0.529  -0.365   0.885  0.00  0.00     0.033 H 
ATOM     22  H7  <0> d          -1.020  -0.381   0.010  0.00  0.00     0.033 H 
BRANCH  20  23
ATOM     23  C1  <0> d          -0.019   1.526   0.010  0.00  0.00    -0.076 C 
ATOM     24  H3  <0> d           1.004   1.903   0.003  0.00  0.00     0.027 H 
ATOM     25  H4  <0> d          -0.546   1.887  -0.873  0.00  0.00     0.027 H 
ATOM     26  H5  <0> d          -0.529   1.877   0.907  0.00  0.00     0.027 H 
ENDBRANCH  20  23
ENDBRANCH   1  20
TORSDOF 2
