REMARK  1 active torsions:
REMARK  status: ('A' for Active; 'I' for Inactive)
REMARK    1  A    between atoms: C3_3  and  N2_11 
ROOT
ATOM      1  C1  <0> d          -2.104   4.819  -2.279  0.00  0.00    -0.079 A 
ATOM      2  C2  <0> d          -2.133   5.517  -1.086  0.00  0.00    -0.055 A 
ATOM      3  C3  <0> d          -1.699   4.914   0.087  0.00  0.00     0.061 A 
ATOM      4  C4  <0> d          -1.233   3.602   0.062  0.00  0.00     0.121 A 
ATOM      5  C5  <0> d          -1.208   2.907  -1.141  0.00  0.00     0.064 A 
ATOM      6  C6  <0> d          -1.643   3.517  -2.309  0.00  0.00    -0.055 A 
ATOM      7  N1  <0> d          -0.742   1.582  -1.171  0.00  0.00    -0.386 N 
ATOM      8  C7  <0> d          -0.013   1.086   0.008  0.00  0.00     0.013 C 
ATOM      9  C8  <0> d          -0.750   1.590   1.257  0.00  0.00     0.041 C 
ATOM     10  O1  <0> d          -0.804   3.018   1.214  0.00  0.00    -0.345 OA
ATOM     11  H1  <0> d          -2.442   5.293  -3.189  0.00  0.00     0.083 H 
ATOM     12  H2  <0> d          -2.495   6.534  -1.065  0.00  0.00     0.087 H 
ATOM     13  H3  <0> d          -1.621   2.974  -3.243  0.00  0.00     0.087 H 
ATOM     14  H4  <0> d          -0.906   0.921  -2.035  0.00  0.00     0.159 HD
ATOM     15  H5  <0> d           0.005  -0.014  -0.008  0.00  0.00     0.067 H 
ATOM     16  H6  <0> d           1.018   1.470  -0.010  0.00  0.00     0.067 H 
ATOM     17  H7  <0> d          -1.769   1.178   1.273  0.00  0.00     0.077 H 
ATOM     18  H8  <0> d          -0.209   1.265   2.158  0.00  0.00     0.077 H 
ENDROOT
BRANCH   3  19
ATOM     19  N2  <0> d          -1.731   5.623   1.293  0.00  0.00    -0.397 N 
ATOM     20  H9  <0> d          -1.387   5.145   2.222  0.00  0.00     0.156 HD
ATOM     21  H10 <0> d          -2.100   6.659   1.312  0.00  0.00     0.156 HD
ENDBRANCH   3  19
TORSDOF 1
