REMARK  2 active torsions:
REMARK  status: ('A' for Active; 'I' for Inactive)
REMARK    1  A    between atoms: C1_1  and  C2_2 
REMARK    2  A    between atoms: C2_2  and  C3_3 
ROOT
ATOM      1  C3  <0> d           0.002  -0.004   0.002  0.00  0.00    -0.019 A 
ATOM      2  C4  <0> d          -0.184  -0.716   1.176  0.00  0.00    -0.073 A 
ATOM      3  C5  <0> d          -0.158  -2.101   1.121  0.00  0.00    -0.065 A 
ATOM      4  C6  <0> d           0.053  -2.729  -0.095  0.00  0.00     0.004 A 
ATOM      5  N1  <0> d           0.227  -2.030  -1.196  0.00  0.00    -0.249 NA
ATOM      6  C7  <0> d           0.203  -0.702  -1.188  0.00  0.00     0.142 A 
ATOM      7  C8  <0> d           0.391   0.019  -2.411  0.00  0.00     0.120 C 
ATOM      8  N2  <0> d           0.540   0.591  -3.381  0.00  0.00    -0.190 NA
ATOM      9  H6  <0> d          -0.347  -0.203   2.112  0.00  0.00     0.084 H 
ATOM     10  H7  <0> d          -0.300  -2.685   2.019  0.00  0.00     0.085 H 
ATOM     11  H8  <0> d           0.074  -3.808  -0.141  0.00  0.00     0.114 H 
ENDROOT
BRANCH   1  12
ATOM     12  C2  <0> d          -0.018   1.503   0.010  0.00  0.00    -0.041 C 
ATOM     13  H4  <0> d          -0.545   1.864  -0.873  0.00  0.00     0.039 H 
ATOM     14  H5  <0> d          -0.529   1.854   0.907  0.00  0.00     0.039 H 
BRANCH  12  15
ATOM     15  C1  <0> d           1.417   2.032  -0.001  0.00  0.00    -0.073 C 
ATOM     16  H1  <0> d           1.944   1.671   0.882  0.00  0.00     0.028 H 
ATOM     17  H2  <0> d           1.927   1.681  -0.897  0.00  0.00     0.028 H 
ATOM     18  H3  <0> d           1.402   3.122   0.005  0.00  0.00     0.028 H 
ENDBRANCH  12  15
ENDBRANCH   1  12
TORSDOF 2
