REMARK  5 active torsions:
REMARK  status: ('A' for Active; 'I' for Inactive)
REMARK    1  A    between atoms: C1_1  and  C2_2 
REMARK    2  A    between atoms: C2_2  and  C3_4 
REMARK    3  A    between atoms: C2_2  and  O3_7 
REMARK    4  A    between atoms: O3_7  and  C4_8 
REMARK    5  A    between atoms: C4_8  and  C5_9 
ROOT
ATOM      1  C2  <0> d          -0.068   1.127   2.404  0.00  0.00     0.118 C 
ATOM      2  H1  <0> d           0.397   0.152   2.194  0.00  0.00     0.099 H 
ENDROOT
BRANCH   1   3
ATOM      3  C1  <0> d           0.968   2.166   2.838  0.00  0.00    -0.043 C 
ATOM      4  H2  <0> d           1.736   2.266   2.057  0.00  0.00     0.031 H 
ATOM      5  H3  <0> d           1.440   1.842   3.777  0.00  0.00     0.031 H 
ATOM      6  H4  <0> d           0.472   3.135   2.992  0.00  0.00     0.031 H 
ENDBRANCH   1   3
BRANCH   1   7
ATOM      7  C3  <0> d          -1.120   0.989   3.474  0.00  0.00     0.202 C 
ATOM      8  O1  <0> d          -2.277   1.226   3.218  0.00  0.00    -0.646 OA
ATOM      9  O2  <0> d          -0.772   0.603   4.712  0.00  0.00    -0.646 OA
ENDBRANCH   1   7
BRANCH   1  10
ATOM     10  O3  <0> d          -0.682   1.547   1.184  0.00  0.00    -0.372 OA
BRANCH  10  11
ATOM     11  C4  <0> d          -0.013   1.086   0.008  0.00  0.00     0.035 C 
ATOM     12  H5  <0> d           1.019   1.467   0.000  0.00  0.00     0.080 H 
ATOM     13  H6  <0> d           0.002  -0.014   0.002  0.00  0.00     0.080 H 
BRANCH  11  14
ATOM     14  C5  <0> d          -0.742   1.585  -1.213  0.00  0.00    -0.089 C 
ATOM     15  C6  <0> d          -0.069   2.095  -2.215  0.00  0.00    -0.123 C 
ATOM     16  H8  <0> d          -0.601   2.459  -3.106  0.00  0.00     0.066 H 
ATOM     17  H9  <0> d           1.028   2.159  -2.164  0.00  0.00     0.066 H 
ATOM     18  H7  <0> d          -1.839   1.521  -1.263  0.00  0.00     0.078 H 
ENDBRANCH  11  14
ENDBRANCH  10  11
ENDBRANCH   1  10
TORSDOF 5
