REMARK  0 active torsions:
REMARK  status: ('A' for Active; 'I' for Inactive)
REMARK       I    between atoms: N1_4  and  C6_7 
REMARK       I    between atoms: C6_7  and  N2_9 
ROOT
ATOM      1  C1  <0> d          -0.042   3.955   1.097  0.00  0.00    -0.062 C 
ATOM      2  C2  <0> d           1.221   3.094   1.177  0.00  0.00    -0.050 C 
ATOM      3  C3  <0> d           1.238   2.109   0.004  0.00  0.00    -0.001 C 
ATOM      4  N1  <0> d          -0.016   1.343   0.011  0.00  0.00    -0.334 N 
ATOM      5  C4  <0> d          -1.290   2.075   0.021  0.00  0.00    -0.001 C 
ATOM      6  C5  <0> d          -1.279   3.060   1.200  0.00  0.00    -0.050 C 
ATOM      7  C6  <0> d           0.002  -0.004   0.002  0.00  0.00     0.316 C 
ATOM      8  O1  <0> d           1.058  -0.597  -0.104  0.00  0.00    -0.247 OA
ATOM      9  N2  <0> d          -1.150  -0.694   0.111  0.00  0.00    -0.352 N 
ATOM     10  H1  <0> d          -0.044   4.673   1.918  0.00  0.00     0.033 H 
ATOM     11  H2  <0> d          -0.058   4.489   0.147  0.00  0.00     0.033 H 
ATOM     12  H3  <0> d           1.225   2.540   2.117  0.00  0.00     0.035 H 
ATOM     13  H4  <0> d           2.102   3.734   1.128  0.00  0.00     0.035 H 
ATOM     14  H5  <0> d           2.082   1.428   0.110  0.00  0.00     0.064 H 
ATOM     15  H6  <0> d           1.326   2.657  -0.934  0.00  0.00     0.064 H 
ATOM     16  H7  <0> d          -1.405   2.622  -0.915  0.00  0.00     0.064 H 
ATOM     17  H8  <0> d          -2.115   1.371   0.139  0.00  0.00     0.064 H 
ATOM     18  H9  <0> d          -1.251   2.507   2.139  0.00  0.00     0.035 H 
ATOM     19  H10 <0> d          -2.177   3.676   1.167  0.00  0.00     0.035 H 
ATOM     20  H11 <0> d          -1.998  -0.224   0.122  0.00  0.00     0.160 HD
ATOM     21  H12 <0> d          -1.132  -1.662   0.179  0.00  0.00     0.160 HD
ENDROOT
TORSDOF 0
