REMARK  4 active torsions:
REMARK  status: ('A' for Active; 'I' for Inactive)
REMARK    1  A    between atoms: C1_1  and  C2_2 
REMARK    2  A    between atoms: C2_2  and  C3_3 
REMARK    3  A    between atoms: C3_3  and  S1_4 
REMARK    4  A    between atoms: S1_4  and  C4_5 
ROOT
ATOM      1  C3  <0> d           3.701  -1.685  -0.042  0.00  0.00    -0.016 C 
ATOM      2  H6  <0> d           3.975  -1.113   0.856  0.00  0.00     0.049 H 
ATOM      3  H7  <0> d           3.958  -1.103  -0.940  0.00  0.00     0.049 H 
ENDROOT
BRANCH   1   4
ATOM      4  C2  <0> d           4.466  -3.010  -0.057  0.00  0.00    -0.060 C 
ATOM      5  H4  <0> d           4.192  -3.582  -0.955  0.00  0.00     0.033 H 
ATOM      6  H5  <0> d           4.209  -3.592   0.841  0.00  0.00     0.033 H 
BRANCH   4   7
ATOM      7  C1  <0> d           5.970  -2.730  -0.070  0.00  0.00    -0.076 C 
ATOM      8  H1  <0> d           6.520  -3.683  -0.080  0.00  0.00     0.027 H 
ATOM      9  H2  <0> d           6.244  -2.158   0.829  0.00  0.00     0.027 H 
ATOM     10  H3  <0> d           6.227  -2.149  -0.967  0.00  0.00     0.027 H 
ENDBRANCH   4   7
ENDBRANCH   1   4
BRANCH   1  11
ATOM     11  S1  <0> d           1.921  -2.016  -0.027  0.00  0.00    -0.091 SA
BRANCH  11  12
ATOM     12  C4  <0> d           1.303  -0.366  -0.012  0.00  0.00     0.183 A 
ATOM     13  N3  <0> d           2.028   0.733  -0.013  0.00  0.00    -0.215 NA
ATOM     14  C5  <0> d           1.226   1.799   0.000  0.00  0.00     0.108 A 
ATOM     15  N2  <0> d          -0.017   1.400   0.009  0.00  0.00    -0.166 NA
ATOM     16  H8  <0> d           1.438   2.776   0.003  0.00  0.00     0.149 H 
ATOM     17  N1  <0> d           0.002  -0.004   0.002  0.00  0.00    -0.254 N 
ATOM     18  H9  <0> d          -0.943  -0.567   0.008  0.00  0.00     0.191 HD
ENDBRANCH  11  12
ENDBRANCH   1  11
TORSDOF 4
