REMARK  2 active torsions:
REMARK  status: ('A' for Active; 'I' for Inactive)
REMARK    1  A    between atoms: C3_3  and  C5_5 
REMARK       I    between atoms: C5_5  and  N1_7 
REMARK    2  A    between atoms: N1_7  and  C6_8 
ROOT
ATOM      1  C5  <0> d          -0.613   2.136  -1.237  0.00  0.00     0.222 C 
ATOM      2  O1  <0> d          -1.017   1.416  -2.125  0.00  0.00    -0.273 OA
ATOM      3  N1  <0> d          -0.694   3.475  -1.365  0.00  0.00    -0.356 N 
ATOM      4  H8  <0> d          -0.328   4.128  -0.560  0.00  0.00     0.162 HD
ENDROOT
BRANCH   1   5
ATOM      5  C3  <0> d          -0.019   1.534   0.011  0.00  0.00     0.024 C 
ATOM      6  C2  <0> d           0.002  -0.004   0.002  0.00  0.00    -0.054 C 
ATOM      7  C1  <0> d           1.394   0.090   0.649  0.00  0.00    -0.064 C 
ATOM      8  H3  <0> d           0.079  -0.534  -0.959  0.00  0.00     0.034 H 
ATOM      9  H4  <0> d          -0.677  -0.554   0.671  0.00  0.00     0.034 H 
ATOM     10  C4  <0> d           1.518   1.476  -0.004  0.00  0.00    -0.054 C 
ATOM     11  H1  <0> d           2.201  -0.562   0.282  0.00  0.00     0.033 H 
ATOM     12  H2  <0> d           1.472   0.191   1.741  0.00  0.00     0.033 H 
ATOM     13  H6  <0> d           2.086   2.145   0.659  0.00  0.00     0.034 H 
ATOM     14  H7  <0> d           2.042   1.383  -0.967  0.00  0.00     0.034 H 
ATOM     15  H5  <0> d          -0.583   2.115   0.755  0.00  0.00     0.054 H 
ENDBRANCH   1   5
BRANCH   3  16
ATOM     16  C6  <0> d          -1.272   4.061  -2.578  0.00  0.00     0.012 A 
ATOM     17  C8  <0> d          -1.874   5.463  -2.467  0.00  0.00    -0.044 A 
ATOM     18  C7  <0> d          -0.546   5.256  -3.200  0.00  0.00    -0.044 A 
ATOM     19  H12 <0> d          -2.864   5.476  -2.945  0.00  0.00     0.036 H 
ATOM     20  H13 <0> d          -1.975   5.736  -1.406  0.00  0.00     0.036 H 
ATOM     21  H10 <0> d           0.450   5.357  -2.744  0.00  0.00     0.036 H 
ATOM     22  H11 <0> d          -0.439   5.097  -4.283  0.00  0.00     0.036 H 
ATOM     23  H9  <0> d          -1.615   3.074  -2.921  0.00  0.00     0.072 H 
ENDBRANCH   3  16
TORSDOF 2
