REMARK  3 active torsions:
REMARK  status: ('A' for Active; 'I' for Inactive)
REMARK    1  A    between atoms: C1_1  and  C2_2 
REMARK    2  A    between atoms: C2_2  and  C3_3 
REMARK    3  A    between atoms: C2_2  and  N1_4 
ROOT
ATOM      1  N1  <0> d          -0.730   3.176   0.026  0.00  0.00    -0.352 N 
ATOM      2  C4  <0> d          -1.102   1.859   0.017  0.00  0.00    -0.019 A 
ATOM      3  C5  <0> d          -0.013   1.076   0.008  0.00  0.00    -0.056 A 
ATOM      4  C6  <0> d           1.153   1.963   0.002  0.00  0.00    -0.008 A 
ATOM      5  C7  <0> d           0.643   3.275   0.013  0.00  0.00     0.044 A 
ATOM      6  C8  <0> d           1.526   4.349   0.010  0.00  0.00    -0.056 A 
ATOM      7  C9  <0> d           2.885   4.118  -0.005  0.00  0.00    -0.081 A 
ATOM      8  C10 <0> d           3.383   2.823  -0.016  0.00  0.00    -0.082 A 
ATOM      9  C11 <0> d           2.533   1.752  -0.013  0.00  0.00    -0.071 A 
ATOM     10  H8  <0> d          -2.122   1.504   0.019  0.00  0.00     0.111 H 
ATOM     11  H9  <0> d           0.002  -0.004   0.002  0.00  0.00     0.086 H 
ATOM     12  H10 <0> d           1.149   5.361   0.019  0.00  0.00     0.087 H 
ATOM     13  H11 <0> d           3.569   4.954  -0.008  0.00  0.00     0.083 H 
ATOM     14  H12 <0> d           4.450   2.659  -0.027  0.00  0.00     0.083 H 
ATOM     15  H13 <0> d           2.927   0.747  -0.023  0.00  0.00     0.084 H 
ENDROOT
BRANCH   1  16
ATOM     16  C2  <0> d          -1.655   4.312   0.041  0.00  0.00     0.009 C 
ATOM     17  H4  <0> d          -1.087   5.243   0.041  0.00  0.00     0.072 H 
BRANCH  16  18
ATOM     18  C1  <0> d          -2.548   4.259  -1.200  0.00  0.00    -0.057 C 
ATOM     19  H1  <0> d          -3.236   5.104  -1.189  0.00  0.00     0.030 H 
ATOM     20  H2  <0> d          -1.929   4.306  -2.096  0.00  0.00     0.030 H 
ATOM     21  H3  <0> d          -3.116   3.328  -1.200  0.00  0.00     0.030 H 
ENDBRANCH  16  18
BRANCH  16  22
ATOM     22  C3  <0> d          -2.524   4.246   1.298  0.00  0.00    -0.057 C 
ATOM     23  H5  <0> d          -1.888   4.284   2.183  0.00  0.00     0.030 H 
ATOM     24  H6  <0> d          -3.212   5.091   1.310  0.00  0.00     0.030 H 
ATOM     25  H7  <0> d          -3.092   3.315   1.299  0.00  0.00     0.030 H 
ENDBRANCH  16  22
ENDBRANCH   1  16
TORSDOF 3
