REMARK  2 active torsions:
REMARK  status: ('A' for Active; 'I' for Inactive)
REMARK    1  A    between atoms: C1_1  and  C2_2 
REMARK       I    between atoms: C2_2  and  N1_4 
REMARK    2  A    between atoms: N1_4  and  C3_5 
ROOT
ATOM      1  C3  <0> d          -1.227   1.756   0.019  0.00  0.00     0.147 A 
ATOM      2  C4  <0> d          -0.013   1.075   0.011  0.00  0.00     0.046 A 
ATOM      3  N2  <0> d           1.121   1.752   0.005  0.00  0.00    -0.268 NA
ATOM      4  C5  <0> d           1.103   3.074   0.013  0.00  0.00     0.019 A 
ATOM      5  C6  <0> d          -0.100   3.753   0.026  0.00  0.00     0.021 A 
ATOM      6  N3  <0> d          -1.240   3.082   0.031  0.00  0.00    -0.240 NA
ATOM      7  H5  <0> d           0.002  -0.004   0.005  0.00  0.00     0.120 H 
ATOM      8  H6  <0> d           2.032   3.625   0.008  0.00  0.00     0.117 H 
ATOM      9  H7  <0> d          -0.110   4.833   0.032  0.00  0.00     0.117 H 
ENDROOT
BRANCH   1  10
ATOM     10  N1  <0> d          -2.426   1.046   0.019  0.00  0.00    -0.311 N 
ATOM     11  C2  <0> d          -3.598   1.702   0.130  0.00  0.00     0.219 C 
ATOM     12  O1  <0> d          -3.616   2.915   0.137  0.00  0.00    -0.274 OA
ATOM     13  H4  <0> d          -2.417   0.079  -0.060  0.00  0.00     0.170 HD
BRANCH  11  14
ATOM     14  C1  <0> d          -4.887   0.929   0.246  0.00  0.00    -0.002 C 
ATOM     15  H1  <0> d          -4.673  -0.139   0.221  0.00  0.00     0.040 H 
ATOM     16  H2  <0> d          -5.378   1.180   1.186  0.00  0.00     0.040 H 
ATOM     17  H3  <0> d          -5.542   1.188  -0.587  0.00  0.00     0.040 H 
ENDBRANCH  11  14
ENDBRANCH   1  10
TORSDOF 2
