REMARK  2 active torsions:
REMARK  status: ('A' for Active; 'I' for Inactive)
REMARK    1  A    between atoms: C2_2  and  C3_3 
REMARK    2  A    between atoms: C3_3  and  C4_4 
ROOT
ATOM      1  C4  <0> d          -0.018   1.468   0.010  0.00  0.00     0.015 C 
ATOM      2  H1  <0> d          -0.145   2.193  -0.794  0.00  0.00     0.072 H 
ATOM      3  C5  <0> d           1.472   1.279   0.301  0.00  0.00    -0.046 C 
ATOM      4  C6  <0> d           1.691   0.833   1.735  0.00  0.00    -0.063 C 
ATOM      5  C7  <0> d           1.161  -0.558   2.032  0.00  0.00    -0.057 C 
ATOM      6  C8  <0> d          -0.366  -0.586   1.942  0.00  0.00     0.009 C 
ATOM      7  C9  <0> d          -0.759  -0.801   0.496  0.00  0.00     0.217 C 
ATOM      8  O1  <0> d          -1.232  -1.863   0.149  0.00  0.00    -0.274 OA
ATOM      9  N1  <0> d          -0.586   0.173  -0.399  0.00  0.00    -0.356 N 
ATOM     10  H7  <0> d           1.877   0.525  -0.375  0.00  0.00     0.036 H 
ATOM     11  H8  <0> d           1.992   2.223   0.136  0.00  0.00     0.036 H 
ATOM     12  H9  <0> d           1.198   1.542   2.399  0.00  0.00     0.033 H 
ATOM     13  H10 <0> d           2.761   0.850   1.945  0.00  0.00     0.033 H 
ATOM     14  H11 <0> d           1.467  -0.852   3.036  0.00  0.00     0.033 H 
ATOM     15  H12 <0> d           1.576  -1.261   1.310  0.00  0.00     0.033 H 
ATOM     16  H13 <0> d          -0.772   0.362   2.295  0.00  0.00     0.047 H 
ATOM     17  H14 <0> d          -0.754  -1.403   2.552  0.00  0.00     0.047 H 
ATOM     18  H15 <0> d          -0.836   0.027  -1.325  0.00  0.00     0.162 HD
ENDROOT
BRANCH   1  19
ATOM     19  C3  <0> d          -0.728   1.965   1.271  0.00  0.00    -0.032 C 
ATOM     20  H5  <0> d          -1.751   1.589   1.284  0.00  0.00     0.041 H 
ATOM     21  H6  <0> d          -0.198   1.605   2.152  0.00  0.00     0.041 H 
BRANCH  19  22
ATOM     22  C2  <0> d          -0.747   3.471   1.276  0.00  0.00    -0.110 C 
ATOM     23  C1  <0> d          -1.883   4.112   1.393  0.00  0.00    -0.125 C 
ATOM     24  H2  <0> d          -2.807   3.560   1.485  0.00  0.00     0.066 H 
ATOM     25  H3  <0> d          -1.897   5.192   1.397  0.00  0.00     0.066 H 
ATOM     26  H4  <0> d           0.177   4.023   1.184  0.00  0.00     0.075 H 
ENDBRANCH  19  22
ENDBRANCH   1  19
TORSDOF 2
