REMARK  1 active torsions:
REMARK  status: ('A' for Active; 'I' for Inactive)
REMARK    1  A    between atoms: N1_3  and  N4_6 
ROOT
ATOM      1  C1  <0> d           1.244   1.732  -0.001  0.00  0.00     0.043 A 
ATOM      2  C2  <0> d           2.043   0.640  -0.014  0.00  0.00     0.036 A 
ATOM      3  N1  <0> d           1.216  -0.432  -0.012  0.00  0.00    -0.190 N 
ATOM      4  N2  <0> d           0.002  -0.004   0.002  0.00  0.00    -0.051 NA
ATOM      5  N3  <0> d          -0.015   1.282   0.009  0.00  0.00    -0.142 NA
ATOM      6  H1  <0> d           1.562   2.765   0.002  0.00  0.00     0.119 H 
ATOM      7  H2  <0> d           3.123   0.625  -0.025  0.00  0.00     0.119 H 
ENDROOT
BRANCH   3   8
ATOM      8  N4  <0> d           1.603  -1.742  -0.023  0.00  0.00    -0.225 NA
ATOM      9  H3  <0> d           1.697  -2.083  -0.968  0.00  0.00     0.145 HD
ATOM     10  H4  <0> d           2.460  -1.870   0.494  0.00  0.00     0.145 HD
ENDBRANCH   3   8
TORSDOF 1
