REMARK  1 active torsions:
REMARK  status: ('A' for Active; 'I' for Inactive)
REMARK    1  A    between atoms: C1_1  and  N1_2 
ROOT
ATOM      1  N1  <0> d           2.025  -0.123  -1.371  0.00  0.00    -0.299 N 
ATOM      2  C2  <0> d           0.611  -0.529  -1.298  0.00  0.00     0.007 C 
ATOM      3  C3  <0> d           0.002  -0.004   0.002  0.00  0.00    -0.034 C 
ATOM      4  C4  <0> d          -0.019   1.524   0.010  0.00  0.00     0.006 C 
ATOM      5  N2  <0> d           1.365   2.029  -0.000  0.00  0.00    -0.303 N 
ATOM      6  S1  <0> d           2.356   1.506  -1.235  0.00  0.00     0.316 S 
ATOM      7  O1  <0> d           3.695   1.621  -0.773  0.00  0.00    -0.183 OA
ATOM      8  O2  <0> d           1.898   2.125  -2.429  0.00  0.00    -0.183 OA
ATOM      9  H4  <0> d           0.543  -1.617  -1.318  0.00  0.00     0.065 H 
ATOM     10  H5  <0> d           0.068  -0.115  -2.147  0.00  0.00     0.065 H 
ATOM     11  H6  <0> d           0.594  -0.360   0.845  0.00  0.00     0.037 H 
ATOM     12  H7  <0> d          -1.018  -0.378   0.098  0.00  0.00     0.037 H 
ATOM     13  H8  <0> d          -0.545   1.886  -0.873  0.00  0.00     0.065 H 
ATOM     14  H9  <0> d          -0.528   1.876   0.908  0.00  0.00     0.065 H 
ATOM     15  H10 <0> d           1.686   2.639   0.682  0.00  0.00     0.173 HD
ENDROOT
BRANCH   1  16
ATOM     16  C1  <0> d           3.094  -1.107  -1.555  0.00  0.00    -0.007 C 
ATOM     17  H1  <0> d           3.277  -1.250  -2.620  0.00  0.00     0.057 H 
ATOM     18  H2  <0> d           4.005  -0.749  -1.075  0.00  0.00     0.057 H 
ATOM     19  H3  <0> d           2.796  -2.056  -1.108  0.00  0.00     0.057 H 
ENDBRANCH   1  16
TORSDOF 1
