REMARK  4 active torsions:
REMARK  status: ('A' for Active; 'I' for Inactive)
REMARK    1  A    between atoms: C1_1  and  C2_2 
REMARK    2  A    between atoms: C2_2  and  C3_3 
REMARK    3  A    between atoms: C3_3  and  N1_4 
REMARK    4  A    between atoms: N1_4  and  C4_5 
ROOT
ATOM      1  N1  <0> d          -0.011   0.966   0.007  0.00  0.00    -0.390 N 
ATOM      2  H8  <0> d           0.002  -0.004   0.002  0.00  0.00     0.159 HD
ENDROOT
BRANCH   1   3
ATOM      3  C3  <0> d           1.248   1.716  -0.001  0.00  0.00    -0.008 C 
ATOM      4  H6  <0> d           1.288   2.348  -0.888  0.00  0.00     0.063 H 
ATOM      5  H7  <0> d           1.305   2.338   0.892  0.00  0.00     0.063 H 
BRANCH   3   6
ATOM      6  C2  <0> d           2.424   0.737  -0.017  0.00  0.00    -0.054 C 
ATOM      7  H4  <0> d           2.383   0.105   0.870  0.00  0.00     0.034 H 
ATOM      8  H5  <0> d           2.366   0.115  -0.910  0.00  0.00     0.034 H 
BRANCH   6   9
ATOM      9  C1  <0> d           3.738   1.520  -0.025  0.00  0.00    -0.075 C 
ATOM     10  H1  <0> d           3.779   2.152  -0.912  0.00  0.00     0.027 H 
ATOM     11  H2  <0> d           3.796   2.143   0.867  0.00  0.00     0.027 H 
ATOM     12  H3  <0> d           4.576   0.823  -0.037  0.00  0.00     0.027 H 
ENDBRANCH   6   9
ENDBRANCH   3   6
ENDBRANCH   1   3
BRANCH   1  13
ATOM     13  C4  <0> d          -1.231   1.648   0.017  0.00  0.00     0.028 A 
ATOM     14  C9  <0> d          -2.425   0.939   0.019  0.00  0.00    -0.055 A 
ATOM     15  C8  <0> d          -3.629   1.615   0.029  0.00  0.00    -0.044 A 
ATOM     16  H12 <0> d          -2.412  -0.141   0.012  0.00  0.00     0.087 H 
ATOM     17  C7  <0> d          -3.647   3.000   0.037  0.00  0.00     0.116 A 
ATOM     18  H11 <0> d          -4.558   1.064   0.030  0.00  0.00     0.088 H 
ATOM     19  C6  <0> d          -2.458   3.709   0.035  0.00  0.00    -0.044 A 
ATOM     20  F1  <0> d          -4.826   3.659   0.046  0.00  0.00    -0.206 F 
ATOM     21  C5  <0> d          -1.251   3.037   0.030  0.00  0.00    -0.055 A 
ATOM     22  H10 <0> d          -2.474   4.789   0.041  0.00  0.00     0.088 H 
ATOM     23  H9  <0> d          -0.324   3.591   0.033  0.00  0.00     0.087 H 
ENDBRANCH   1  13
TORSDOF 4
