REMARK  2 active torsions:
REMARK  status: ('A' for Active; 'I' for Inactive)
REMARK    1  A    between atoms: C1_1  and  C2_2 
REMARK    2  A    between atoms: C3_3  and  C7_8 
ROOT
ATOM      1  C2  <0> d           2.463   3.729   0.109  0.00  0.00     0.047 A 
ATOM      2  C3  <0> d           1.271   3.088  -0.234  0.00  0.00     0.065 A 
ATOM      3  C4  <0> d           0.096   3.845  -0.320  0.00  0.00    -0.063 A 
ATOM      4  C5  <0> d           0.171   5.203  -0.064  0.00  0.00    -0.065 A 
ATOM      5  C6  <0> d           1.392   5.764   0.265  0.00  0.00     0.003 A 
ATOM      6  N1  <0> d           2.483   5.025   0.339  0.00  0.00    -0.265 NA
ATOM      7  H4  <0> d          -0.844   3.382  -0.579  0.00  0.00     0.085 H 
ATOM      8  H5  <0> d          -0.714   5.819  -0.121  0.00  0.00     0.085 H 
ATOM      9  H6  <0> d           1.454   6.824   0.465  0.00  0.00     0.114 H 
ENDROOT
BRANCH   1  10
ATOM     10  C1  <0> d           3.737   2.932   0.213  0.00  0.00    -0.035 C 
ATOM     11  H1  <0> d           4.176   2.817  -0.779  0.00  0.00     0.035 H 
ATOM     12  H2  <0> d           4.440   3.452   0.863  0.00  0.00     0.035 H 
ATOM     13  H3  <0> d           3.518   1.948   0.628  0.00  0.00     0.035 H 
ENDBRANCH   1  10
BRANCH   2  14
ATOM     14  C7  <0> d           1.248   1.635  -0.497  0.00  0.00     0.211 C 
ATOM     15  O1  <0> d           2.288   1.007  -0.531  0.00  0.00    -0.644 OA
ATOM     16  O2  <0> d           0.075   1.005  -0.699  0.00  0.00    -0.644 OA
ENDBRANCH   2  14
TORSDOF 2
