REMARK  3 active torsions:
REMARK  status: ('A' for Active; 'I' for Inactive)
REMARK    1  A    between atoms: C1_1  and  C2_2 
REMARK    2  A    between atoms: C2_2  and  C3_4 
REMARK    3  A    between atoms: C2_2  and  O1_12 
ROOT
ATOM      1  C3  <0> d           1.401   1.607  -0.003  0.00  0.00     0.011 A 
ATOM      2  C4  <0> d           1.704   2.770  -0.686  0.00  0.00    -0.034 A 
ATOM      3  C5  <0> d           3.002   3.249  -0.695  0.00  0.00     0.117 A 
ATOM      4  C6  <0> d           3.998   2.564  -0.020  0.00  0.00    -0.043 A 
ATOM      5  C7  <0> d           3.696   1.402   0.663  0.00  0.00    -0.042 A 
ATOM      6  C8  <0> d           2.396   0.925   0.676  0.00  0.00     0.125 A 
ATOM      7  F1  <0> d           2.099  -0.209   1.349  0.00  0.00    -0.205 F 
ATOM      8  F2  <0> d           3.298   4.386  -1.363  0.00  0.00    -0.206 F 
ATOM      9  H5  <0> d           0.927   3.304  -1.213  0.00  0.00     0.089 H 
ATOM     10  H6  <0> d           5.011   2.938  -0.028  0.00  0.00     0.088 H 
ATOM     11  H7  <0> d           4.472   0.868   1.190  0.00  0.00     0.088 H 
ENDROOT
BRANCH   1  12
ATOM     12  C2  <0> d          -0.013   1.086   0.008  0.00  0.00     0.060 C 
ATOM     13  H1  <0> d           0.002  -0.004   0.002  0.00  0.00     0.090 H 
BRANCH  12  14
ATOM     14  C1  <0> d          -0.729   1.579   1.267  0.00  0.00    -0.049 C 
ATOM     15  H2  <0> d          -0.744   2.669   1.273  0.00  0.00     0.031 H 
ATOM     16  H3  <0> d          -1.751   1.202   1.275  0.00  0.00     0.031 H 
ATOM     17  H4  <0> d          -0.202   1.218   2.150  0.00  0.00     0.031 H 
ENDBRANCH  12  14
BRANCH  12  18
ATOM     18  O1  <0> d          -0.704   1.559  -1.150  0.00  0.00    -0.391 OA
ATOM     19  H8  <0> d          -0.756   2.523  -1.210  0.00  0.00     0.210 HD
ENDBRANCH  12  18
ENDBRANCH   1  12
TORSDOF 3
