REMARK  3 active torsions:
REMARK  status: ('A' for Active; 'I' for Inactive)
REMARK    1  A    between atoms: C1_1  and  C2_2 
REMARK    2  A    between atoms: C4_5  and  C10_14 
REMARK    3  A    between atoms: C6_7  and  C9_13 
ROOT
ATOM      1  C2  <0> d          -0.047   3.850  -0.381  0.00  0.00    -0.038 C 
ATOM      2  H1  <0> d           0.130   3.687  -1.444  0.00  0.00     0.042 H 
ATOM      3  C3  <0> d          -1.344   3.157   0.041  0.00  0.00    -0.041 C 
ATOM      4  C4  <0> d          -1.164   1.667   0.017  0.00  0.00    -0.087 C 
ATOM      5  C5  <0> d          -0.013   1.076   0.008  0.00  0.00    -0.096 C 
ATOM      6  C6  <0> d           1.303   1.797  -0.001  0.00  0.00    -0.025 C 
ATOM      7  H2  <0> d           1.721   1.774  -1.007  0.00  0.00     0.047 H 
ATOM      8  C7  <0> d           1.109   3.252   0.432  0.00  0.00     0.040 C 
ATOM      9  H3  <0> d           2.022   3.817   0.240  0.00  0.00     0.064 H 
ATOM     10  C8  <0> d           0.784   3.303   1.866  0.00  0.00     0.065 C 
ATOM     11  N1  <0> d           0.532   3.342   2.973  0.00  0.00    -0.197 NA
ATOM     12  H7  <0> d          -1.613   3.475   1.048  0.00  0.00     0.040 H 
ATOM     13  H8  <0> d          -2.141   3.431  -0.649  0.00  0.00     0.040 H 
ATOM     14  H9  <0> d           0.002  -0.004   0.002  0.00  0.00     0.077 H 
ENDROOT
BRANCH   1  15
ATOM     15  C1  <0> d          -0.150   5.351  -0.101  0.00  0.00    -0.071 C 
ATOM     16  H4  <0> d           0.782   5.839  -0.385  0.00  0.00     0.028 H 
ATOM     17  H5  <0> d          -0.972   5.772  -0.679  0.00  0.00     0.028 H 
ATOM     18  H6  <0> d          -0.335   5.510   0.962  0.00  0.00     0.028 H 
ENDBRANCH   1  15
BRANCH   6  19
ATOM     19  C9  <0> d           2.267   1.106   0.965  0.00  0.00    -0.068 C 
ATOM     20  H10 <0> d           2.417   0.072   0.652  0.00  0.00     0.028 H 
ATOM     21  H11 <0> d           3.224   1.628   0.960  0.00  0.00     0.028 H 
ATOM     22  H12 <0> d           1.849   1.123   1.971  0.00  0.00     0.028 H 
ENDBRANCH   6  19
BRANCH   4  23
ATOM     23  C10 <0> d          -2.401   0.806   0.007  0.00  0.00    -0.055 C 
ATOM     24  H13 <0> d          -2.112  -0.245  -0.006  0.00  0.00     0.033 H 
ATOM     25  H14 <0> d          -2.991   1.009   0.901  0.00  0.00     0.033 H 
ATOM     26  H15 <0> d          -2.994   1.031  -0.879  0.00  0.00     0.033 H 
ENDBRANCH   4  23
TORSDOF 3
