REMARK  2 active torsions:
REMARK  status: ('A' for Active; 'I' for Inactive)
REMARK    1  A    between atoms: C5_5  and  C9_9 
REMARK    2  A    between atoms: C9_9  and  O1_10 
ROOT
ATOM      1  C1  <0> d          -0.753   1.593  -1.232  0.00  0.00    -0.065 C 
ATOM      2  C2  <0> d          -0.013   1.086   0.008  0.00  0.00    -0.065 C 
ATOM      3  C3  <0> d          -0.729   1.579   1.267  0.00  0.00    -0.065 C 
ATOM      4  C4  <0> d          -0.413   3.060   1.486  0.00  0.00    -0.060 C 
ATOM      5  C5  <0> d           1.081   3.303   1.259  0.00  0.00    -0.034 C 
ATOM      6  C6  <0> d           1.273   4.169   0.013  0.00  0.00    -0.060 C 
ATOM      7  C7  <0> d           1.057   3.316  -1.239  0.00  0.00    -0.065 C 
ATOM      8  C8  <0> d          -0.441   3.076  -1.440  0.00  0.00    -0.065 C 
ATOM      9  H1  <0> d          -0.429   1.027  -2.105  0.00  0.00     0.033 H 
ATOM     10  H2  <0> d          -1.826   1.463  -1.092  0.00  0.00     0.033 H 
ATOM     11  H3  <0> d           0.002  -0.004   0.002  0.00  0.00     0.033 H 
ATOM     12  H4  <0> d           1.010   1.463   0.000  0.00  0.00     0.033 H 
ATOM     13  H5  <0> d          -1.805   1.451   1.147  0.00  0.00     0.033 H 
ATOM     14  H6  <0> d          -0.389   1.004   2.128  0.00  0.00     0.033 H 
ATOM     15  H7  <0> d          -0.675   3.341   2.506  0.00  0.00     0.033 H 
ATOM     16  H8  <0> d          -0.989   3.662   0.784  0.00  0.00     0.033 H 
ATOM     17  H9  <0> d           1.587   2.348   1.119  0.00  0.00     0.043 H 
ATOM     18  H10 <0> d           2.284   4.576   0.005  0.00  0.00     0.033 H 
ATOM     19  H11 <0> d           0.552   4.987   0.024  0.00  0.00     0.033 H 
ATOM     20  H12 <0> d           1.565   2.360  -1.119  0.00  0.00     0.033 H 
ATOM     21  H13 <0> d           1.461   3.836  -2.107  0.00  0.00     0.033 H 
ATOM     22  H14 <0> d          -0.723   3.367  -2.452  0.00  0.00     0.033 H 
ATOM     23  H15 <0> d          -1.004   3.670  -0.721  0.00  0.00     0.033 H 
ENDROOT
BRANCH   5  24
ATOM     24  C9  <0> d           1.672   4.019   2.474  0.00  0.00     0.020 C 
ATOM     25  H16 <0> d           2.713   4.271   2.277  0.00  0.00     0.074 H 
ATOM     26  H17 <0> d           1.108   4.932   2.668  0.00  0.00     0.074 H 
BRANCH  24  27
ATOM     27  O1  <0> d           1.597   3.162   3.615  0.00  0.00    -0.400 OA
ATOM     28  H18 <0> d           1.955   3.553   4.425  0.00  0.00     0.209 HD
ENDBRANCH  24  27
ENDBRANCH   5  24
TORSDOF 2
