REMARK  1 active torsions:
REMARK  status: ('A' for Active; 'I' for Inactive)
REMARK    1  A    between atoms: C2_2  and  C4_7 
ROOT
ATOM      1  C1  <0> d          -0.013   1.086   0.008  0.00  0.00    -0.016 A 
ATOM      2  C2  <0> d          -1.150   1.781  -0.743  0.00  0.00     0.067 A 
ATOM      3  H1  <0> d          -0.922   2.722  -1.244  0.00  0.00     0.061 H 
ATOM      4  C3  <0> d          -1.136   1.773   0.788  0.00  0.00     0.127 A 
ATOM      5 Cl1  <0> d          -2.333   0.718   1.627  0.00  0.00    -0.101 Cl
ATOM      6 Cl2  <0> d          -0.742   3.321   1.625  0.00  0.00    -0.101 Cl
ATOM      7  H2  <0> d           0.002  -0.004   0.002  0.00  0.00     0.039 H 
ATOM      8  H3  <0> d           0.964   1.569   0.001  0.00  0.00     0.039 H 
ENDROOT
BRANCH   2   9
ATOM      9  C4  <0> d          -2.164   0.907  -1.434  0.00  0.00     0.180 C 
ATOM     10  O1  <0> d          -2.061  -0.296  -1.382  0.00  0.00    -0.648 OA
ATOM     11  O2  <0> d          -3.183   1.464  -2.107  0.00  0.00    -0.648 OA
ENDBRANCH   2   9
TORSDOF 1
