REMARK  2 active torsions:
REMARK  status: ('A' for Active; 'I' for Inactive)
REMARK    1  A    between atoms: C1_1  and  C2_2 
REMARK    2  A    between atoms: C3_3  and  C7_11 
ROOT
ATOM      1  C2  <0> d          -1.215   2.141   0.019  0.00  0.00    -0.009 A 
ATOM      2  C3  <0> d          -1.146   3.539   0.032  0.00  0.00     0.060 A 
ATOM      3  N1  <0> d           0.000   4.158   0.024  0.00  0.00    -0.151 NA
ATOM      4  N2  <0> d           1.133   3.558   0.010  0.00  0.00    -0.105 NA
ATOM      5  C4  <0> d           1.224   2.213   0.002  0.00  0.00     0.306 A 
ATOM      6  O1  <0> d           2.311   1.661  -0.011  0.00  0.00    -0.263 OA
ATOM      7  C5  <0> d          -0.017   1.428   0.010  0.00  0.00     0.123 A 
ATOM      8  C6  <0> d           0.002  -0.004   0.002  0.00  0.00     0.106 C 
ATOM      9  N3  <0> d           0.018  -1.140  -0.004  0.00  0.00    -0.191 NA
ENDROOT
BRANCH   1  10
ATOM     10  C1  <0> d          -2.543   1.429   0.021  0.00  0.00    -0.048 C 
ATOM     11  H1  <0> d          -3.357   2.169   0.029  0.00  0.00     0.033 H 
ATOM     12  H2  <0> d          -2.617   0.793   0.916  0.00  0.00     0.033 H 
ATOM     13  H3  <0> d          -2.625   0.803  -0.880  0.00  0.00     0.033 H 
ENDBRANCH   1  10
BRANCH   2  14
ATOM     14  C7  <0> d          -2.421   4.342   0.048  0.00  0.00    -0.033 C 
ATOM     15  H4  <0> d          -2.179   5.415   0.056  0.00  0.00     0.035 H 
ATOM     16  H5  <0> d          -3.002   4.091   0.948  0.00  0.00     0.035 H 
ATOM     17  H6  <0> d          -3.014   4.107  -0.849  0.00  0.00     0.035 H 
ENDBRANCH   2  14
TORSDOF 2
