REMARK  4 active torsions:
REMARK  status: ('A' for Active; 'I' for Inactive)
REMARK    1  A    between atoms: C1_1  and  C2_2 
REMARK    2  A    between atoms: C2_2  and  C3_3 
REMARK    3  A    between atoms: C3_3  and  C4_5 
REMARK    4  A    between atoms: C3_3  and  N1_7 
ROOT
ATOM      1  C3  <0> d          -2.164   1.050   1.278  0.00  0.00     0.099 C 
ATOM      2  H1  <0> d          -2.664   1.336   0.353  0.00  0.00     0.090 H 
ENDROOT
BRANCH   1   3
ATOM      3  C2  <0> d          -0.729   1.579   1.267  0.00  0.00    -0.040 C 
ATOM      4  H5  <0> d          -0.202   1.218   2.150  0.00  0.00     0.036 H 
ATOM      5  H6  <0> d          -0.744   2.669   1.273  0.00  0.00     0.036 H 
BRANCH   3   6
ATOM      6  C1  <0> d          -0.013   1.086   0.008  0.00  0.00    -0.074 C 
ATOM      7  H2  <0> d           0.002  -0.004   0.002  0.00  0.00     0.027 H 
ATOM      8  H3  <0> d           1.010   1.463   0.000  0.00  0.00     0.027 H 
ATOM      9  H4  <0> d          -0.540   1.447  -0.875  0.00  0.00     0.027 H 
ENDBRANCH   3   6
ENDBRANCH   1   3
BRANCH   1  10
ATOM     10  C4  <0> d          -2.144  -0.453   1.393  0.00  0.00     0.197 C 
ATOM     11  O1  <0> d          -1.091  -1.040   1.460  0.00  0.00    -0.646 OA
ATOM     12  O2  <0> d          -3.298  -1.139   1.422  0.00  0.00    -0.646 OA
ENDBRANCH   1  10
BRANCH   1  13
ATOM     13  N1  <0> d          -2.886   1.618   2.419  0.00  0.00    -0.352 N 
ATOM     14  C8  <0> d          -4.009   2.387   2.346  0.00  0.00    -0.020 A 
ATOM     15  C7  <0> d          -4.376   2.718   3.600  0.00  0.00    -0.067 A 
ATOM     16  H10 <0> d          -4.518   2.680   1.439  0.00  0.00     0.111 H 
ATOM     17  C6  <0> d          -3.445   2.132   4.481  0.00  0.00    -0.067 A 
ATOM     18  H9  <0> d          -5.227   3.322   3.879  0.00  0.00     0.085 H 
ATOM     19  C5  <0> d          -2.548   1.460   3.731  0.00  0.00    -0.020 A 
ATOM     20  H8  <0> d          -3.451   2.203   5.558  0.00  0.00     0.085 H 
ATOM     21  H7  <0> d          -1.706   0.896   4.104  0.00  0.00     0.111 H 
ENDBRANCH   1  13
TORSDOF 4
