REMARK  3 active torsions:
REMARK  status: ('A' for Active; 'I' for Inactive)
REMARK    1  A    between atoms: C1_1  and  N1_2 
REMARK    2  A    between atoms: N1_2  and  C2_3 
REMARK    3  A    between atoms: C7_8  and  N2_9 
ROOT
ATOM      1  C2  <0> d           1.218  -0.687  -0.013  0.00  0.00     0.054 A 
ATOM      2  C3  <0> d           1.230  -2.074  -0.020  0.00  0.00    -0.055 A 
ATOM      3  C4  <0> d           0.038  -2.775  -0.012  0.00  0.00    -0.081 A 
ATOM      4  C5  <0> d          -1.167  -2.098   0.003  0.00  0.00    -0.081 A 
ATOM      5  C6  <0> d          -1.188  -0.716   0.015  0.00  0.00    -0.056 A 
ATOM      6  C7  <0> d           0.002  -0.004   0.002  0.00  0.00     0.052 A 
ATOM      7  H5  <0> d           2.170  -2.605  -0.032  0.00  0.00     0.087 H 
ATOM      8  H6  <0> d           0.050  -3.855  -0.017  0.00  0.00     0.083 H 
ATOM      9  H7  <0> d          -2.095  -2.651   0.009  0.00  0.00     0.083 H 
ATOM     10  H8  <0> d          -2.131  -0.190   0.031  0.00  0.00     0.087 H 
ENDROOT
BRANCH   1  11
ATOM     11  N1  <0> d           2.423   0.025  -0.021  0.00  0.00    -0.392 N 
ATOM     12  H4  <0> d           2.413   0.996  -0.016  0.00  0.00     0.159 HD
BRANCH  11  13
ATOM     13  C1  <0> d           3.700  -0.694  -0.037  0.00  0.00    -0.021 C 
ATOM     14  H1  <0> d           4.521   0.023  -0.041  0.00  0.00     0.056 H 
ATOM     15  H2  <0> d           3.772  -1.325   0.849  0.00  0.00     0.056 H 
ATOM     16  H3  <0> d           3.755  -1.315  -0.931  0.00  0.00     0.056 H 
ENDBRANCH  11  13
ENDBRANCH   1  11
BRANCH   6  17
ATOM     17  N2  <0> d          -0.017   1.396   0.010  0.00  0.00    -0.397 N 
ATOM     18  H9  <0> d           0.816   1.892   0.004  0.00  0.00     0.156 HD
ATOM     19  H10 <0> d          -0.863   1.869   0.016  0.00  0.00     0.156 HD
ENDBRANCH   6  17
TORSDOF 3
