REMARK  4 active torsions:
REMARK  status: ('A' for Active; 'I' for Inactive)
REMARK    1  A    between atoms: C1_1  and  C2_2 
REMARK    2  A    between atoms: C2_2  and  C3_3 
REMARK    3  A    between atoms: C3_3  and  C4_4 
REMARK    4  A    between atoms: C6_6  and  N2_9 
ROOT
ATOM      1  C3  <0> d          -2.582   1.513   0.021  0.00  0.00    -0.023 C 
ATOM      2  H6  <0> d          -3.055   1.835  -0.907  0.00  0.00     0.042 H 
ATOM      3  H7  <0> d          -2.649   0.428   0.104  0.00  0.00     0.042 H 
ENDROOT
BRANCH   1   4
ATOM      4  C2  <0> d          -3.296   2.161   1.208  0.00  0.00    -0.063 C 
ATOM      5  H4  <0> d          -2.823   1.839   2.136  0.00  0.00     0.033 H 
ATOM      6  H5  <0> d          -3.229   3.246   1.125  0.00  0.00     0.033 H 
BRANCH   4   7
ATOM      7  C1  <0> d          -4.766   1.739   1.212  0.00  0.00    -0.076 C 
ATOM      8  H1  <0> d          -5.275   2.201   2.058  0.00  0.00     0.027 H 
ATOM      9  H2  <0> d          -5.239   2.061   0.284  0.00  0.00     0.027 H 
ATOM     10  H3  <0> d          -4.833   0.654   1.296  0.00  0.00     0.027 H 
ENDBRANCH   4   7
ENDBRANCH   1   4
BRANCH   1  11
ATOM     11  C4  <0> d          -1.133   1.929   0.017  0.00  0.00     0.066 A 
ATOM     12  N1  <0> d          -0.672   3.148   0.025  0.00  0.00    -0.131 NA
ATOM     13  O1  <0> d           0.536   3.172   0.014  0.00  0.00    -0.196 OA
ATOM     14  C6  <0> d           1.052   1.933   0.002  0.00  0.00     0.168 A 
ATOM     15  C5  <0> d          -0.013   1.076   0.008  0.00  0.00    -0.006 A 
ATOM     16  H8  <0> d           0.002  -0.004   0.002  0.00  0.00     0.093 H 
BRANCH  14  17
ATOM     17  N2  <0> d           2.392   1.591  -0.013  0.00  0.00    -0.378 N 
ATOM     18  H9  <0> d           2.655   0.658  -0.021  0.00  0.00     0.158 HD
ATOM     19  H10 <0> d           3.069   2.286  -0.016  0.00  0.00     0.158 HD
ENDBRANCH  14  17
ENDBRANCH   1  11
TORSDOF 4
