REMARK  1 active torsions:
REMARK  status: ('A' for Active; 'I' for Inactive)
REMARK    1  A    between atoms: C1_1  and  C2_2 
ROOT
ATOM      1  C2  <0> d           1.162   2.072   0.002  0.00  0.00     0.075 A 
ATOM      2  C3  <0> d          -0.016   1.347   0.009  0.00  0.00     0.194 A 
ATOM      3  C4  <0> d          -1.224   2.046   0.019  0.00  0.00     0.220 A 
ATOM      4  N1  <0> d          -1.198   3.373   0.031  0.00  0.00    -0.327 N 
ATOM      5  C5  <0> d          -0.053   4.025   0.024  0.00  0.00     0.066 A 
ATOM      6  N2  <0> d           1.105   3.396   0.010  0.00  0.00    -0.246 NA
ATOM      7  O1  <0> d          -2.405   1.380   0.021  0.00  0.00    -0.169 OA
ATOM      8  F1  <0> d           0.002  -0.004   0.007  0.00  0.00    -0.199 F 
ATOM      9  H4  <0> d          -0.079   5.025   0.030  0.00  0.00     0.143 H 
ATOM     10  H5  <0> d          -2.147   3.929   0.047  0.00  0.00     0.169 HD
ENDROOT
BRANCH   1  11
ATOM     11  C1  <0> d           2.493   1.366  -0.014  0.00  0.00    -0.032 C 
ATOM     12  H1  <0> d           3.303   2.111  -0.018  0.00  0.00     0.035 H 
ATOM     13  H2  <0> d           2.566   0.741  -0.917  0.00  0.00     0.035 H 
ATOM     14  H3  <0> d           2.583   0.731   0.879  0.00  0.00     0.035 H 
ENDBRANCH   1  11
TORSDOF 1
