REMARK  7 active torsions:
REMARK  status: ('A' for Active; 'I' for Inactive)
REMARK    1  A    between atoms: C1_1  and  C2_2 
REMARK    2  A    between atoms: C2_2  and  C3_3 
REMARK    3  A    between atoms: C3_3  and  C4_5 
REMARK    4  A    between atoms: C3_3  and  O2_10 
REMARK    5  A    between atoms: C4_5  and  C5_7 
REMARK    6  A    between atoms: C4_5  and  C6_8 
REMARK    7  A    between atoms: C6_8  and  O1_9 
ROOT
ATOM      1  C3  <0> d          -0.729   1.579   1.267  0.00  0.00     0.040 C 
ATOM      2  H1  <0> d          -0.822   2.665   1.230  0.00  0.00     0.083 H 
ENDROOT
BRANCH   1   3
ATOM      3  C2  <0> d          -0.013   1.086   0.008  0.00  0.00    -0.044 C 
ATOM      4  H6  <0> d           0.002  -0.004   0.002  0.00  0.00     0.036 H 
ATOM      5  H7  <0> d           1.010   1.463   0.000  0.00  0.00     0.036 H 
BRANCH   3   6
ATOM      6  C1  <0> d          -0.753   1.593  -1.232  0.00  0.00    -0.074 C 
ATOM      7  H3  <0> d          -1.775   1.215  -1.224  0.00  0.00     0.027 H 
ATOM      8  H4  <0> d          -0.767   2.683  -1.226  0.00  0.00     0.027 H 
ATOM      9  H5  <0> d          -0.242   1.241  -2.128  0.00  0.00     0.027 H 
ENDBRANCH   3   6
ENDBRANCH   1   3
BRANCH   1  10
ATOM     10  C4  <0> d           0.079   1.179   2.503  0.00  0.00    -0.012 C 
ATOM     11  H2  <0> d           1.071   1.627   2.450  0.00  0.00     0.046 H 
BRANCH  10  12
ATOM     12  C5  <0> d           0.210  -0.345   2.555  0.00  0.00    -0.069 C 
ATOM     13  H8  <0> d           0.785  -0.630   3.436  0.00  0.00     0.028 H 
ATOM     14  H9  <0> d          -0.782  -0.793   2.608  0.00  0.00     0.028 H 
ATOM     15  H10 <0> d           0.720  -0.696   1.658  0.00  0.00     0.028 H 
ENDBRANCH  10  12
BRANCH  10  16
ATOM     16  C6  <0> d          -0.637   1.672   3.762  0.00  0.00     0.022 C 
ATOM     17  H11 <0> d          -0.810   2.745   3.685  0.00  0.00     0.074 H 
ATOM     18  H12 <0> d          -1.593   1.157   3.862  0.00  0.00     0.074 H 
BRANCH  16  19
ATOM     19  O1  <0> d           0.172   1.401   4.908  0.00  0.00    -0.400 OA
ATOM     20  H13 <0> d          -0.221   1.688   5.744  0.00  0.00     0.209 HD
ENDBRANCH  16  19
ENDBRANCH  10  16
ENDBRANCH   1  10
BRANCH   1  21
ATOM     21  O2  <0> d          -2.030   0.991   1.336  0.00  0.00    -0.395 OA
ATOM     22  H14 <0> d          -2.023   0.025   1.372  0.00  0.00     0.210 HD
ENDBRANCH   1  21
TORSDOF 7
