REMARK  6 active torsions:
REMARK  status: ('A' for Active; 'I' for Inactive)
REMARK    1  A    between atoms: C1_1  and  C2_2 
REMARK    2  A    between atoms: C2_2  and  C3_3 
REMARK    3  A    between atoms: C3_3  and  C4_5 
REMARK    4  A    between atoms: C3_3  and  O1_12 
REMARK    5  A    between atoms: N1_7  and  C8_11 
REMARK    6  A    between atoms: C6_9  and  C7_10 
ROOT
ATOM      1  C4  <0> d           2.052   1.121   1.219  0.00  0.00     0.013 A 
ATOM      2  C5  <0> d           1.845  -0.018   1.920  0.00  0.00     0.009 A 
ATOM      3  N1  <0> d           2.733  -0.043   2.936  0.00  0.00    -0.284 N 
ATOM      4  N2  <0> d           3.510   1.120   2.857  0.00  0.00    -0.178 NA
ATOM      5  C6  <0> d           3.105   1.813   1.825  0.00  0.00     0.061 A 
ATOM      6  H7  <0> d           1.103  -0.773   1.704  0.00  0.00     0.115 H 
ENDROOT
BRANCH   1   7
ATOM      7  C3  <0> d           1.286   1.562  -0.002  0.00  0.00     0.064 C 
ATOM      8  H1  <0> d           1.123   2.649   0.020  0.00  0.00     0.090 H 
BRANCH   7   9
ATOM      9  C2  <0> d           2.040   1.127  -1.261  0.00  0.00    -0.040 C 
ATOM     10  H5  <0> d           2.063   0.029  -1.313  0.00  0.00     0.036 H 
ATOM     11  H6  <0> d           3.069   1.515  -1.224  0.00  0.00     0.036 H 
BRANCH   9  12
ATOM     12  C1  <0> d           1.329   1.682  -2.497  0.00  0.00    -0.074 C 
ATOM     13  H2  <0> d           1.871   1.370  -3.402  0.00  0.00     0.027 H 
ATOM     14  H3  <0> d           1.306   2.780  -2.445  0.00  0.00     0.027 H 
ATOM     15  H4  <0> d           0.300   1.294  -2.533  0.00  0.00     0.027 H 
ENDBRANCH   9  12
ENDBRANCH   7   9
BRANCH   7  16
ATOM     16  O1  <0> d          -0.011   0.963   0.007  0.00  0.00    -0.391 OA
ATOM     17  H14 <0> d          -0.702   1.160   0.840  0.00  0.00     0.210 HD
ENDBRANCH   7  16
ENDBRANCH   1   7
BRANCH   5  18
ATOM     18  C7  <0> d           3.673   3.133   1.368  0.00  0.00    -0.033 C 
ATOM     19  H8  <0> d           4.493   3.431   2.039  0.00  0.00     0.035 H 
ATOM     20  H9  <0> d           2.884   3.899   1.391  0.00  0.00     0.035 H 
ATOM     21  H10 <0> d           4.057   3.032   0.343  0.00  0.00     0.035 H 
ENDBRANCH   5  18
BRANCH   3  22
ATOM     22  C8  <0> d           2.860  -1.098   3.944  0.00  0.00     0.002 C 
ATOM     23  H11 <0> d           3.670  -0.842   4.643  0.00  0.00     0.059 H 
ATOM     24  H12 <0> d           3.092  -2.052   3.449  0.00  0.00     0.059 H 
ATOM     25  H13 <0> d           1.914  -1.193   4.497  0.00  0.00     0.059 H 
ENDBRANCH   3  22
TORSDOF 6
