REMARK  3 active torsions:
REMARK  status: ('A' for Active; 'I' for Inactive)
REMARK    1  A    between atoms: C2_2  and  C3_3 
REMARK    2  A    between atoms: C3_3  and  C4_4 
REMARK    3  A    between atoms: C4_4  and  C5_5 
ROOT
ATOM      1  C5  <0> d          -2.613  -2.512  -1.168  0.00  0.00    -0.058 A 
ATOM      2  C6  <0> d          -2.700  -3.709  -0.482  0.00  0.00    -0.074 A 
ATOM      3  C7  <0> d          -3.887  -4.417  -0.473  0.00  0.00    -0.045 A 
ATOM      4  C8  <0> d          -4.990  -3.927  -1.152  0.00  0.00     0.116 A 
ATOM      5  C9  <0> d          -4.902  -2.728  -1.839  0.00  0.00    -0.045 A 
ATOM      6  C10 <0> d          -3.715  -2.019  -1.842  0.00  0.00    -0.074 A 
ATOM      7  F1  <0> d          -6.150  -4.618  -1.145  0.00  0.00    -0.206 F 
ATOM      8  H8  <0> d          -1.840  -4.091   0.047  0.00  0.00     0.084 H 
ATOM      9  H9  <0> d          -3.954  -5.352   0.062  0.00  0.00     0.088 H 
ATOM     10  H10 <0> d          -5.761  -2.345  -2.369  0.00  0.00     0.088 H 
ATOM     11  H11 <0> d          -3.648  -1.081  -2.374  0.00  0.00     0.084 H 
ENDROOT
BRANCH   1  12
ATOM     12  C4  <0> d          -1.319  -1.741  -1.176  0.00  0.00    -0.038 C 
ATOM     13  H6  <0> d          -1.238  -1.177  -2.106  0.00  0.00     0.040 H 
ATOM     14  H7  <0> d          -0.482  -2.435  -1.099  0.00  0.00     0.040 H 
BRANCH  12  15
ATOM     15  C3  <0> d          -1.293  -0.775   0.010  0.00  0.00    -0.047 C 
ATOM     16  H4  <0> d          -1.374  -1.339   0.939  0.00  0.00     0.039 H 
ATOM     17  H5  <0> d          -2.130  -0.081  -0.068  0.00  0.00     0.039 H 
BRANCH  15  18
ATOM     18  C2  <0> d           0.002  -0.004   0.002  0.00  0.00    -0.112 C 
ATOM     19  C1  <0> d          -0.016   1.306   0.009  0.00  0.00    -0.125 C 
ATOM     20  H1  <0> d           0.912   1.859   0.003  0.00  0.00     0.066 H 
ATOM     21  H2  <0> d          -0.958   1.833   0.017  0.00  0.00     0.066 H 
ATOM     22  H3  <0> d           0.945  -0.531  -0.010  0.00  0.00     0.075 H 
ENDBRANCH  15  18
ENDBRANCH  12  15
ENDBRANCH   1  12
TORSDOF 3
