REMARK  4 active torsions:
REMARK  status: ('A' for Active; 'I' for Inactive)
REMARK    1  A    between atoms: C1_1  and  C2_2 
REMARK    2  A    between atoms: C3_3  and  C4_4 
REMARK    3  A    between atoms: C4_4  and  C5_6 
REMARK    4  A    between atoms: C4_4  and  O1_12 
ROOT
ATOM      1  C5  <0> d           1.423   1.615  -0.003  0.00  0.00    -0.026 C 
ATOM      2  C6  <0> d           1.402   3.145   0.006  0.00  0.00    -0.059 C 
ATOM      3  C7  <0> d           2.837   3.675  -0.005  0.00  0.00    -0.065 C 
ATOM      4  C8  <0> d           3.554   3.181  -1.264  0.00  0.00    -0.065 C 
ATOM      5  C9  <0> d           3.574   1.652  -1.272  0.00  0.00    -0.065 C 
ATOM      6  C10 <0> d           2.139   1.122  -1.262  0.00  0.00    -0.059 C 
ATOM      7  H7  <0> d           1.955   1.251   0.888  0.00  0.00     0.044 H 
ATOM      8  H8  <0> d           0.870   3.510  -0.886  0.00  0.00     0.033 H 
ATOM      9  H9  <0> d           0.887   3.500   0.911  0.00  0.00     0.033 H 
ATOM     10  H10 <0> d           2.822   4.775   0.001  0.00  0.00     0.033 H 
ATOM     11  H11 <0> d           3.369   3.311   0.886  0.00  0.00     0.033 H 
ATOM     12  H12 <0> d           3.022   3.546  -2.155  0.00  0.00     0.033 H 
ATOM     13  H13 <0> d           4.585   3.562  -1.272  0.00  0.00     0.033 H 
ATOM     14  H14 <0> d           4.089   1.297  -2.178  0.00  0.00     0.033 H 
ATOM     15  H15 <0> d           4.106   1.287  -0.381  0.00  0.00     0.033 H 
ATOM     16  H16 <0> d           2.154   0.022  -1.268  0.00  0.00     0.033 H 
ATOM     17  H17 <0> d           1.607   1.486  -2.153  0.00  0.00     0.033 H 
ENDROOT
BRANCH   1  18
ATOM     18  C4  <0> d          -0.013   1.086   0.008  0.00  0.00     0.055 C 
ATOM     19  H1  <0> d          -0.041  -0.013  -0.045  0.00  0.00     0.089 H 
BRANCH  18  20
ATOM     20  C3  <0> d          -0.718   1.572   1.248  0.00  0.00    -0.080 C 
ATOM     21  C2  <0> d          -1.847   2.228   1.145  0.00  0.00    -0.108 C 
ATOM     22  H5  <0> d          -2.281   2.423   0.153  0.00  0.00     0.075 H 
ATOM     23  H6  <0> d          -0.285   1.376   2.240  0.00  0.00     0.080 H 
BRANCH  21  24
ATOM     24  C1  <0> d          -2.553   2.713   2.384  0.00  0.00    -0.060 C 
ATOM     25  H2  <0> d          -3.477   3.238   2.099  0.00  0.00     0.032 H 
ATOM     26  H3  <0> d          -1.895   3.402   2.934  0.00  0.00     0.032 H 
ATOM     27  H4  <0> d          -2.802   1.855   3.025  0.00  0.00     0.032 H 
ENDBRANCH  21  24
ENDBRANCH  18  20
BRANCH  18  28
ATOM     28  O1  <0> d          -0.704   1.559  -1.150  0.00  0.00    -0.391 OA
ATOM     29  H18 <0> d          -0.334   1.304  -2.154  0.00  0.00     0.210 HD
ENDBRANCH  18  28
ENDBRANCH   1  18
TORSDOF 4
