REMARK  5 active torsions:
REMARK  status: ('A' for Active; 'I' for Inactive)
REMARK    1  A    between atoms: C1_1  and  C2_2 
REMARK    2  A    between atoms: C2_2  and  C3_3 
REMARK    3  A    between atoms: C2_2  and  C4_4 
REMARK    4  A    between atoms: C2_2  and  C5_5 
REMARK    5  A    between atoms: C5_5  and  C6_7 
ROOT
ATOM      1  C6  <0> d          -1.329   1.939   0.019  0.00  0.00     0.070 C 
ATOM      2  C7  <0> d          -2.435   0.967   0.019  0.00  0.00     0.066 C 
ATOM      3  N1  <0> d          -3.289   0.218   0.019  0.00  0.00    -0.197 NA
ATOM      4  H10 <0> d          -1.386   2.509   0.839  0.00  0.00     0.066 H 
ATOM      5  H11 <0> d          -1.400   2.570  -0.867  0.00  0.00     0.066 H 
ENDROOT
BRANCH   1   6
ATOM      6  C5  <0> d          -0.014   1.203   0.009  0.00  0.00     0.147 C 
ATOM      7  O1  <0> d           0.002  -0.004   0.002  0.00  0.00    -0.296 OA
BRANCH   6   8
ATOM      8  C2  <0> d           1.280   1.975   0.000  0.00  0.00     0.010 C 
BRANCH   8   9
ATOM      9  C1  <0> d           2.457   0.996  -0.016  0.00  0.00    -0.063 C 
ATOM     10  H1  <0> d           2.399   0.374  -0.909  0.00  0.00     0.029 H 
ATOM     11  H2  <0> d           3.393   1.554  -0.022  0.00  0.00     0.029 H 
ATOM     12  H3  <0> d           2.416   0.364   0.871  0.00  0.00     0.029 H 
ENDBRANCH   8   9
BRANCH   8  13
ATOM     13  C3  <0> d           1.338   2.862  -1.245  0.00  0.00    -0.063 C 
ATOM     14  H4  <0> d           0.500   3.559  -1.233  0.00  0.00     0.029 H 
ATOM     15  H5  <0> d           2.274   3.420  -1.251  0.00  0.00     0.029 H 
ATOM     16  H6  <0> d           1.280   2.239  -2.138  0.00  0.00     0.029 H 
ENDBRANCH   8  13
BRANCH   8  17
ATOM     17  C4  <0> d           1.361   2.849   1.254  0.00  0.00    -0.063 C 
ATOM     18  H7  <0> d           1.321   2.216   2.141  0.00  0.00     0.029 H 
ATOM     19  H8  <0> d           2.298   3.406   1.248  0.00  0.00     0.029 H 
ATOM     20  H9  <0> d           0.523   3.546   1.265  0.00  0.00     0.029 H 
ENDBRANCH   8  17
ENDBRANCH   6   8
ENDBRANCH   1   6
TORSDOF 5
