REMARK  2 active torsions:
REMARK  status: ('A' for Active; 'I' for Inactive)
REMARK    1  A    between atoms: C3_3  and  C6_8 
REMARK    2  A    between atoms: C6_8  and  C7_9 
ROOT
ATOM      1  C1  <0> d          -1.506   3.553   0.116  0.00  0.00    -0.045 C 
ATOM      2  C2  <0> d          -0.823   3.123  -1.186  0.00  0.00    -0.057 C 
ATOM      3  C3  <0> d          -0.754   1.593  -1.232  0.00  0.00    -0.024 C 
ATOM      4  H1  <0> d          -1.771   1.177  -1.251  0.00  0.00     0.044 H 
ATOM      5  C4  <0> d          -0.013   1.086   0.008  0.00  0.00     0.023 C 
ATOM      6  O1  <0> d          -0.682   1.547   1.183  0.00  0.00    -0.391 OA
ATOM      7  C5  <0> d          -0.736   2.970   1.304  0.00  0.00     0.019 C 
ATOM      8  H2  <0> d          -2.540   3.180   0.131  0.00  0.00     0.036 H 
ATOM      9  H3  <0> d          -1.510   4.651   0.186  0.00  0.00     0.036 H 
ATOM     10  H4  <0> d          -1.402   3.494  -2.044  0.00  0.00     0.033 H 
ATOM     11  H5  <0> d           0.194   3.541  -1.222  0.00  0.00     0.033 H 
ATOM     12  H6  <0> d           0.002  -0.014   0.002  0.00  0.00     0.074 H 
ATOM     13  H7  <0> d           1.019   1.467  -0.000  0.00  0.00     0.074 H 
ATOM     14  H8  <0> d           0.286   3.376   1.313  0.00  0.00     0.074 H 
ATOM     15  H9  <0> d          -1.246   3.240   2.240  0.00  0.00     0.074 H 
ENDROOT
BRANCH   3  16
ATOM     16  C6  <0> d          -0.004   1.153  -2.491  0.00  0.00     0.021 C 
ATOM     17  H10 <0> d          -0.486   1.592  -3.377  0.00  0.00     0.049 H 
ATOM     18  H11 <0> d           1.040   1.494  -2.434  0.00  0.00     0.049 H 
BRANCH  16  19
ATOM     19  C7  <0> d          -0.036  -0.350  -2.595  0.00  0.00     0.172 C 
ATOM     20  O2  <0> d          -0.601  -1.002  -1.749  0.00  0.00    -0.648 OA
ATOM     21  O3  <0> d           0.562  -0.964  -3.628  0.00  0.00    -0.648 OA
ENDBRANCH  16  19
ENDBRANCH   3  16
TORSDOF 2
