REMARK  1 active torsions:
REMARK  status: ('A' for Active; 'I' for Inactive)
REMARK    1  A    between atoms: C1_1  and  C2_2 
ROOT
ATOM      1  C2  <0> d           0.010  -2.808  -0.377  0.00  0.00     0.021 C 
ATOM      2  H1  <0> d           0.097  -3.853  -0.079  0.00  0.00     0.074 H 
ATOM      3  C3  <0> d          -1.167  -2.154   0.362  0.00  0.00     0.011 C 
ATOM      4  N1  <0> d          -1.199  -0.728   0.005  0.00  0.00    -0.386 N 
ATOM      5  C4  <0> d           0.002  -0.004   0.002  0.00  0.00     0.054 A 
ATOM      6  C5  <0> d          -0.017   1.381   0.010  0.00  0.00    -0.055 A 
ATOM      7  C6  <0> d           1.173   2.087   0.002  0.00  0.00    -0.081 A 
ATOM      8  C7  <0> d           2.381   1.414  -0.013  0.00  0.00    -0.081 A 
ATOM      9  C8  <0> d           2.408   0.031  -0.019  0.00  0.00    -0.055 A 
ATOM     10  C9  <0> d           1.220  -0.682  -0.011  0.00  0.00     0.055 A 
ATOM     11  N2  <0> d           1.238  -2.085  -0.015  0.00  0.00    -0.382 N 
ATOM     12  H5  <0> d          -2.100  -2.629   0.062  0.00  0.00     0.067 H 
ATOM     13  H6  <0> d          -1.030  -2.260   1.438  0.00  0.00     0.067 H 
ATOM     14  H7  <0> d          -2.037  -0.295  -0.225  0.00  0.00     0.159 HD
ATOM     15  H8  <0> d          -0.959   1.910   0.017  0.00  0.00     0.087 H 
ATOM     16  H9  <0> d           1.159   3.167   0.008  0.00  0.00     0.083 H 
ATOM     17  H10 <0> d           3.307   1.970  -0.020  0.00  0.00     0.083 H 
ATOM     18  H11 <0> d           3.353  -0.491  -0.031  0.00  0.00     0.087 H 
ATOM     19  H12 <0> d           2.046  -2.569   0.216  0.00  0.00     0.160 HD
ENDROOT
BRANCH   1  20
ATOM     20  C1  <0> d          -0.216  -2.718  -1.887  0.00  0.00    -0.056 C 
ATOM     21  H2  <0> d           0.631  -3.164  -2.408  0.00  0.00     0.030 H 
ATOM     22  H3  <0> d          -1.128  -3.255  -2.151  0.00  0.00     0.030 H 
ATOM     23  H4  <0> d          -0.313  -1.672  -2.179  0.00  0.00     0.030 H 
ENDBRANCH   1  20
TORSDOF 1
