REMARK  1 active torsions:
REMARK  status: ('A' for Active; 'I' for Inactive)
REMARK    1  A    between atoms: C1_1  and  C2_2 
ROOT
ATOM      1  C2  <0> d           0.002  -0.004   0.002  0.00  0.00    -0.060 A 
ATOM      2  C3  <0> d           0.006  -0.688  -1.200  0.00  0.00    -0.074 A 
ATOM      3  C4  <0> d           0.025  -2.070  -1.209  0.00  0.00    -0.043 A 
ATOM      4  C5  <0> d           0.041  -2.770  -0.015  0.00  0.00     0.138 A 
ATOM      5  C6  <0> d           0.037  -2.084   1.189  0.00  0.00     0.073 A 
ATOM      6  C7  <0> d           0.023  -0.701   1.196  0.00  0.00    -0.053 A 
ATOM      7 Cl1  <0> d           0.056  -2.960   2.688  0.00  0.00    -0.081 Cl
ATOM      8  F1  <0> d           0.059  -4.121  -0.023  0.00  0.00    -0.204 F 
ATOM      9  H4  <0> d          -0.007  -0.142  -2.131  0.00  0.00     0.084 H 
ATOM     10  H5  <0> d           0.028  -2.604  -2.148  0.00  0.00     0.088 H 
ATOM     11  H6  <0> d           0.025  -0.165   2.133  0.00  0.00     0.087 H 
ENDROOT
BRANCH   1  12
ATOM     12  C1  <0> d          -0.018   1.503   0.010  0.00  0.00    -0.051 C 
ATOM     13  H1  <0> d           1.004   1.880   0.003  0.00  0.00     0.033 H 
ATOM     14  H2  <0> d          -0.545   1.864  -0.873  0.00  0.00     0.033 H 
ATOM     15  H3  <0> d          -0.529   1.854   0.907  0.00  0.00     0.033 H 
ENDBRANCH   1  12
TORSDOF 1
