REMARK  2 active torsions:
REMARK  status: ('A' for Active; 'I' for Inactive)
REMARK    1  A    between atoms: C1_1  and  O1_2 
REMARK    2  A    between atoms: O1_2  and  C2_3 
ROOT
ATOM      1  C2  <0> d           1.175   2.087   0.002  0.00  0.00     0.068 A 
ATOM      2  C3  <0> d          -0.017   1.377   0.010  0.00  0.00    -0.048 A 
ATOM      3  C4  <0> d           0.002  -0.004   0.002  0.00  0.00    -0.043 A 
ATOM      4  C5  <0> d           1.210  -0.681  -0.013  0.00  0.00     0.116 A 
ATOM      5  C6  <0> d           2.401   0.026  -0.021  0.00  0.00    -0.043 A 
ATOM      6  C7  <0> d           2.385   1.407  -0.013  0.00  0.00    -0.048 A 
ATOM      7  F1  <0> d           1.227  -2.031  -0.020  0.00  0.00    -0.206 F 
ATOM      8  H4  <0> d          -0.959   1.905   0.017  0.00  0.00     0.087 H 
ATOM      9  H5  <0> d          -0.926  -0.556   0.008  0.00  0.00     0.088 H 
ATOM     10  H6  <0> d           3.342  -0.503  -0.033  0.00  0.00     0.088 H 
ATOM     11  H7  <0> d           3.314   1.958  -0.018  0.00  0.00     0.087 H 
ENDROOT
BRANCH   1  12
ATOM     12  O1  <0> d           1.158   3.446   0.009  0.00  0.00    -0.356 OA
BRANCH  12  13
ATOM     13  C1  <0> d           2.423   4.111   0.001  0.00  0.00     0.010 C 
ATOM     14  H1  <0> d           2.976   3.829  -0.896  0.00  0.00     0.066 H 
ATOM     15  H2  <0> d           2.267   5.189   0.007  0.00  0.00     0.066 H 
ATOM     16  H3  <0> d           2.992   3.820   0.884  0.00  0.00     0.066 H 
ENDBRANCH  12  13
ENDBRANCH   1  12
TORSDOF 2
