REMARK  5 active torsions:
REMARK  status: ('A' for Active; 'I' for Inactive)
REMARK    1  A    between atoms: C1_1  and  C2_2 
REMARK    2  A    between atoms: C2_2  and  C3_3 
REMARK    3  A    between atoms: C2_2  and  C4_4 
REMARK    4  A    between atoms: C4_4  and  C5_6 
REMARK    5  A    between atoms: C4_4  and  O1_8 
ROOT
ATOM      1  C5  <0> d          -2.069   0.974   1.338  0.00  0.00    -0.085 C 
ATOM      2  C6  <0> d          -3.137   0.491   1.395  0.00  0.00    -0.151 C 
ATOM      3  H9  <0> d          -4.093   0.059   1.446  0.00  0.00     0.166 H 
ENDROOT
BRANCH   1   4
ATOM      4  C4  <0> d          -0.729   1.579   1.267  0.00  0.00     0.096 C 
ATOM      5  H1  <0> d          -0.154   1.294   2.148  0.00  0.00     0.103 H 
BRANCH   4   6
ATOM      6  C2  <0> d          -0.013   1.086   0.008  0.00  0.00    -0.026 C 
ATOM      7  H5  <0> d           0.002  -0.004   0.002  0.00  0.00     0.044 H 
BRANCH   6   8
ATOM      8  C1  <0> d           1.423   1.615  -0.003  0.00  0.00    -0.070 C 
ATOM      9  H2  <0> d           1.408   2.705   0.003  0.00  0.00     0.028 H 
ATOM     10  H3  <0> d           1.950   1.254   0.880  0.00  0.00     0.028 H 
ATOM     11  H4  <0> d           1.933   1.264  -0.900  0.00  0.00     0.028 H 
ENDBRANCH   6   8
BRANCH   6  12
ATOM     12  C3  <0> d          -0.753   1.593  -1.232  0.00  0.00    -0.070 C 
ATOM     13  H6  <0> d          -0.767   2.683  -1.226  0.00  0.00     0.028 H 
ATOM     14  H7  <0> d          -0.242   1.241  -2.128  0.00  0.00     0.028 H 
ATOM     15  H8  <0> d          -1.775   1.215  -1.224  0.00  0.00     0.028 H 
ENDBRANCH   6  12
ENDBRANCH   4   6
BRANCH   4  16
ATOM     16  O1  <0> d          -0.851   3.002   1.218  0.00  0.00    -0.383 OA
ATOM     17  H10 <0> d          -1.353   3.328   0.459  0.00  0.00     0.211 HD
ENDBRANCH   4  16
ENDBRANCH   1   4
TORSDOF 5
