REMARK  3 active torsions:
REMARK  status: ('A' for Active; 'I' for Inactive)
REMARK    1  A    between atoms: C1_1  and  C2_2 
REMARK    2  A    between atoms: C4_4  and  O2_10 
REMARK    3  A    between atoms: C7_7  and  C8_8 
ROOT
ATOM      1  C2  <0> d           3.128   2.414  -1.201  0.00  0.00    -0.042 A 
ATOM      2  C3  <0> d           2.008   1.613  -1.218  0.00  0.00    -0.044 A 
ATOM      3  C4  <0> d           1.351   1.308  -0.032  0.00  0.00     0.066 A 
ATOM      4  C5  <0> d           1.818   1.814   1.176  0.00  0.00    -0.050 A 
ATOM      5  C6  <0> d           2.941   2.611   1.203  0.00  0.00    -0.063 A 
ATOM      6  C7  <0> d           3.604   2.921   0.012  0.00  0.00     0.046 A 
ATOM      7  H4  <0> d           1.639   1.222  -2.155  0.00  0.00     0.088 H 
ATOM      8  H5  <0> d           1.302   1.578   2.095  0.00  0.00     0.087 H 
ATOM      9  H6  <0> d           3.305   3.000   2.142  0.00  0.00     0.085 H 
ENDROOT
BRANCH   1  10
ATOM     10  C1  <0> d           3.839   2.744  -2.488  0.00  0.00    -0.050 C 
ATOM     11  H1  <0> d           3.501   3.714  -2.852  0.00  0.00     0.033 H 
ATOM     12  H2  <0> d           4.914   2.778  -2.310  0.00  0.00     0.033 H 
ATOM     13  H3  <0> d           3.618   1.979  -3.232  0.00  0.00     0.033 H 
ENDBRANCH   1  10
BRANCH   6  14
ATOM     14  C8  <0> d           4.803   3.779   0.035  0.00  0.00     0.209 C 
ATOM     15  O1  <0> d           5.312   4.140  -1.008  0.00  0.00    -0.644 OA
ATOM     16  O3  <0> d           5.335   4.162   1.212  0.00  0.00    -0.644 OA
ENDBRANCH   6  14
BRANCH   3  17
ATOM     17  O2  <0> d           0.247   0.519  -0.053  0.00  0.00    -0.361 OA
ATOM     18  H7  <0> d           0.437  -0.424   0.039  0.00  0.00     0.217 HD
ENDBRANCH   3  17
TORSDOF 3
