REMARK  3 active torsions:
REMARK  status: ('A' for Active; 'I' for Inactive)
REMARK    1  A    between atoms: C1_1  and  C2_2 
REMARK    2  A    between atoms: C2_2  and  C3_4 
REMARK    3  A    between atoms: C7_8  and  O2_10 
ROOT
ATOM      1  C3  <0> d           3.108   2.414  -1.209  0.00  0.00     0.012 A 
ATOM      2  C4  <0> d           3.745   2.697   0.004  0.00  0.00    -0.069 A 
ATOM      3  C5  <0> d           3.120   2.397   1.196  0.00  0.00    -0.079 A 
ATOM      4  C6  <0> d           1.862   1.822   1.197  0.00  0.00    -0.051 A 
ATOM      5  C7  <0> d           1.223   1.532  -0.001  0.00  0.00     0.066 A 
ATOM      6  C8  <0> d           1.839   1.829  -1.205  0.00  0.00    -0.038 A 
ATOM      7  H4  <0> d           4.726   3.150   0.007  0.00  0.00     0.085 H 
ATOM      8  H5  <0> d           3.613   2.615   2.132  0.00  0.00     0.083 H 
ATOM      9  H6  <0> d           1.376   1.594   2.134  0.00  0.00     0.087 H 
ATOM     10  H7  <0> d           1.341   1.608  -2.138  0.00  0.00     0.089 H 
ENDROOT
BRANCH   1  11
ATOM     11  C2  <0> d           3.771   2.733  -2.484  0.00  0.00     0.155 C 
ATOM     12  O1  <0> d           3.216   2.488  -3.534  0.00  0.00    -0.293 OA
BRANCH  11  13
ATOM     13  C1  <0> d           5.139   3.365  -2.484  0.00  0.00    -0.017 C 
ATOM     14  H1  <0> d           5.837   2.649  -2.493  0.00  0.00     0.038 H 
ATOM     15  H2  <0> d           5.250   3.991  -3.369  0.00  0.00     0.038 H 
ATOM     16  H3  <0> d           5.258   3.977  -1.589  0.00  0.00     0.038 H 
ENDBRANCH  11  13
ENDBRANCH   1  11
BRANCH   5  17
ATOM     17  O2  <0> d          -0.011   0.963   0.007  0.00  0.00    -0.361 OA
ATOM     18  H8  <0> d           0.002  -0.004   0.002  0.00  0.00     0.217 HD
ENDBRANCH   5  17
TORSDOF 3
