REMARK  1 active torsions:
REMARK  status: ('A' for Active; 'I' for Inactive)
REMARK    1  A    between atoms: C5_9  and  N5_10 
ROOT
ATOM      1  C1  <0> d          -1.226   3.143   0.031  0.00  0.00    -0.053 A 
ATOM      2  C2  <0> d          -0.056   3.838   0.023  0.00  0.00    -0.033 A 
ATOM      3  C3  <0> d           1.162   3.135   0.008  0.00  0.00     0.175 A 
ATOM      4  N1  <0> d           2.434   3.513  -0.003  0.00  0.00    -0.109 NA
ATOM      5  N2  <0> d           3.202   2.482  -0.016  0.00  0.00    -0.022 NA
ATOM      6  N3  <0> d           2.509   1.394  -0.015  0.00  0.00    -0.040 NA
ATOM      7  N4  <0> d           1.159   1.768   0.001  0.00  0.00    -0.203 N 
ATOM      8  C4  <0> d          -0.013   1.076   0.008  0.00  0.00     0.033 A 
ATOM      9  C5  <0> d          -1.200   1.735   0.017  0.00  0.00     0.043 A 
ATOM     10  H1  <0> d          -2.170   3.668   0.043  0.00  0.00     0.087 H 
ATOM     11  H2  <0> d          -0.064   4.918   0.029  0.00  0.00     0.089 H 
ATOM     12  H3  <0> d           0.002  -0.004   0.002  0.00  0.00     0.118 H 
ENDROOT
BRANCH   9  13
ATOM     13  N5  <0> d          -2.400   1.013   0.019  0.00  0.00    -0.398 N 
ATOM     14  H4  <0> d          -2.382   0.043   0.014  0.00  0.00     0.156 HD
ATOM     15  H5  <0> d          -3.248   1.483   0.026  0.00  0.00     0.156 HD
ENDBRANCH   9  13
TORSDOF 1
