REMARK  6 active torsions:
REMARK  status: ('A' for Active; 'I' for Inactive)
REMARK    1  A    between atoms: C1_1  and  C2_2 
REMARK    2  A    between atoms: C2_2  and  C3_3 
REMARK    3  A    between atoms: C4_4  and  C5_5 
REMARK    4  A    between atoms: C6_6  and  C7_7 
REMARK    5  A    between atoms: C7_7  and  C8_8 
REMARK    6  A    between atoms: C8_8  and  O1_9 
ROOT
ATOM      1  C5  <0> d          -3.772  -1.397   0.031  0.00  0.00    -0.015 C 
ATOM      2  C6  <0> d          -4.873  -1.803   0.039  0.00  0.00    -0.090 C 
ENDROOT
BRANCH   1   3
ATOM      3  C4  <0> d          -2.480  -0.920   0.021  0.00  0.00    -0.015 C 
ATOM      4  C3  <0> d          -1.379  -0.514   0.013  0.00  0.00    -0.093 C 
BRANCH   4   5
ATOM      5  C2  <0> d           0.002  -0.004   0.002  0.00  0.00    -0.012 C 
ATOM      6  H4  <0> d           0.512  -0.356  -0.895  0.00  0.00     0.051 H 
ATOM      7  H5  <0> d           0.529  -0.365   0.885  0.00  0.00     0.051 H 
BRANCH   5   8
ATOM      8  C1  <0> d          -0.019   1.526   0.010  0.00  0.00    -0.066 C 
ATOM      9  H1  <0> d           1.004   1.903   0.003  0.00  0.00     0.028 H 
ATOM     10  H2  <0> d          -0.546   1.887  -0.873  0.00  0.00     0.028 H 
ATOM     11  H3  <0> d          -0.529   1.877   0.907  0.00  0.00     0.028 H 
ENDBRANCH   5   8
ENDBRANCH   4   5
ENDBRANCH   1   3
BRANCH   2  12
ATOM     12  C7  <0> d          -6.255  -2.312   0.049  0.00  0.00     0.011 C 
ATOM     13  H6  <0> d          -6.765  -1.961   0.946  0.00  0.00     0.055 H 
ATOM     14  H7  <0> d          -6.782  -1.951  -0.834  0.00  0.00     0.055 H 
BRANCH  12  15
ATOM     15  C8  <0> d          -6.234  -3.842   0.041  0.00  0.00     0.026 C 
ATOM     16  H8  <0> d          -5.724  -4.194  -0.856  0.00  0.00     0.075 H 
ATOM     17  H9  <0> d          -5.707  -4.203   0.924  0.00  0.00     0.075 H 
BRANCH  15  18
ATOM     18  O1  <0> d          -7.574  -4.337   0.051  0.00  0.00    -0.400 OA
ATOM     19  H10 <0> d          -7.638  -5.302   0.046  0.00  0.00     0.209 HD
ENDBRANCH  15  18
ENDBRANCH  12  15
ENDBRANCH   2  12
TORSDOF 6
