REMARK  8 active torsions:
REMARK  status: ('A' for Active; 'I' for Inactive)
REMARK    1  A    between atoms: C1_1  and  C2_2 
REMARK    2  A    between atoms: C2_2  and  C3_3 
REMARK    3  A    between atoms: C3_3  and  C4_4 
REMARK    4  A    between atoms: C3_3  and  C5_5 
REMARK    5  A    between atoms: C3_3  and  O1_9 
REMARK    6  A    between atoms: C5_5  and  C6_6 
REMARK    7  A    between atoms: C6_6  and  C7_7 
REMARK    8  A    between atoms: C6_6  and  C8_8 
ROOT
ATOM      1  C3  <0> d          -0.023  -0.252  -0.045  0.00  0.00     0.054 C 
ENDROOT
BRANCH   1   2
ATOM      2  C2  <0> d          -1.508  -0.616  -0.096  0.00  0.00    -0.040 C 
ATOM      3  H4  <0> d          -1.978  -0.107  -0.938  0.00  0.00     0.036 H 
ATOM      4  H5  <0> d          -1.614  -1.694  -0.218  0.00  0.00     0.036 H 
BRANCH   2   5
ATOM      5  C1  <0> d          -2.184  -0.180   1.205  0.00  0.00    -0.074 C 
ATOM      6  H1  <0> d          -2.078   0.898   1.327  0.00  0.00     0.027 H 
ATOM      7  H2  <0> d          -3.243  -0.439   1.169  0.00  0.00     0.027 H 
ATOM      8  H3  <0> d          -1.714  -0.689   2.047  0.00  0.00     0.027 H 
ENDBRANCH   2   5
ENDBRANCH   1   2
BRANCH   1   9
ATOM      9  C4  <0> d           0.127   1.242   0.250  0.00  0.00    -0.048 C 
ATOM     10  H6  <0> d           1.183   1.486   0.364  0.00  0.00     0.031 H 
ATOM     11  H7  <0> d          -0.292   1.819  -0.575  0.00  0.00     0.031 H 
ATOM     12  H8  <0> d          -0.404   1.485   1.170  0.00  0.00     0.031 H 
ENDBRANCH   1   9
BRANCH   1  13
ATOM     13  C5  <0> d           0.628  -0.573  -1.393  0.00  0.00    -0.034 C 
ATOM     14  H9  <0> d           0.616  -1.651  -1.554  0.00  0.00     0.037 H 
ATOM     15  H10 <0> d           0.072  -0.080  -2.191  0.00  0.00     0.037 H 
BRANCH  13  16
ATOM     16  C6  <0> d           2.074  -0.074  -1.393  0.00  0.00    -0.059 C 
ATOM     17  H11 <0> d           2.093   0.983  -1.127  0.00  0.00     0.039 H 
BRANCH  16  18
ATOM     18  C7  <0> d           2.889  -0.871  -0.373  0.00  0.00    -0.073 C 
ATOM     19  H12 <0> d           2.735  -1.937  -0.539  0.00  0.00     0.028 H 
ATOM     20  H13 <0> d           3.947  -0.634  -0.489  0.00  0.00     0.028 H 
ATOM     21  H14 <0> d           2.567  -0.610   0.634  0.00  0.00     0.028 H 
ENDBRANCH  16  18
BRANCH  16  22
ATOM     22  C8  <0> d           2.677  -0.260  -2.787  0.00  0.00    -0.073 C 
ATOM     23  H15 <0> d           2.578  -1.302  -3.089  0.00  0.00     0.028 H 
ATOM     24  H16 <0> d           2.151   0.377  -3.498  0.00  0.00     0.028 H 
ATOM     25  H17 <0> d           3.732   0.014  -2.765  0.00  0.00     0.028 H 
ENDBRANCH  16  22
ENDBRANCH  13  16
ENDBRANCH   1  13
BRANCH   1  26
ATOM     26  O1  <0> d           0.618  -1.008   0.985  0.00  0.00    -0.390 OA
ATOM     27  H18 <0> d           0.562  -1.965   0.863  0.00  0.00     0.210 HD
ENDBRANCH   1  26
TORSDOF 8
