REMARK  4 active torsions:
REMARK  status: ('A' for Active; 'I' for Inactive)
REMARK    1  A    between atoms: C1_1  and  C2_2 
REMARK    2  A    between atoms: C2_2  and  C3_3 
REMARK    3  A    between atoms: C3_3  and  C4_5 
REMARK    4  A    between atoms: C3_3  and  O1_11 
ROOT
ATOM      1  C4  <0> d           0.870  -2.011   1.172  0.00  0.00    -0.030 A 
ATOM      2  C5  <0> d          -0.201  -2.813   1.519  0.00  0.00    -0.074 A 
ATOM      3  C6  <0> d          -0.084  -4.189   1.456  0.00  0.00    -0.082 A 
ATOM      4  C7  <0> d           1.105  -4.763   1.044  0.00  0.00    -0.083 A 
ATOM      5  C8  <0> d           2.175  -3.961   0.695  0.00  0.00    -0.082 A 
ATOM      6  C9  <0> d           2.057  -2.585   0.755  0.00  0.00    -0.074 A 
ATOM      7  H7  <0> d          -1.129  -2.364   1.841  0.00  0.00     0.084 H 
ATOM      8  H8  <0> d          -0.920  -4.815   1.728  0.00  0.00     0.083 H 
ATOM      9  H9  <0> d           1.196  -5.838   0.995  0.00  0.00     0.083 H 
ATOM     10  H10 <0> d           3.104  -4.409   0.374  0.00  0.00     0.083 H 
ATOM     11  H11 <0> d           2.892  -1.958   0.479  0.00  0.00     0.084 H 
ENDROOT
BRANCH   1  12
ATOM     12  C3  <0> d           0.742  -0.511   1.242  0.00  0.00     0.060 C 
ATOM     13  H1  <0> d           1.735  -0.063   1.280  0.00  0.00     0.090 H 
BRANCH  12  14
ATOM     14  C2  <0> d           0.002  -0.004   0.002  0.00  0.00    -0.041 C 
ATOM     15  H5  <0> d          -1.020  -0.381   0.010  0.00  0.00     0.036 H 
ATOM     16  H6  <0> d           0.512  -0.356  -0.895  0.00  0.00     0.036 H 
BRANCH  14  17
ATOM     17  C1  <0> d          -0.019   1.526   0.010  0.00  0.00    -0.074 C 
ATOM     18  H2  <0> d           1.004   1.903   0.003  0.00  0.00     0.027 H 
ATOM     19  H3  <0> d          -0.546   1.887  -0.873  0.00  0.00     0.027 H 
ATOM     20  H4  <0> d          -0.529   1.877   0.907  0.00  0.00     0.027 H 
ENDBRANCH  14  17
ENDBRANCH  12  14
BRANCH  12  21
ATOM     21  O1  <0> d           0.010  -0.149   2.414  0.00  0.00    -0.391 OA
ATOM     22  H12 <0> d          -0.885  -0.514   2.447  0.00  0.00     0.210 HD
ENDBRANCH  12  21
ENDBRANCH   1  12
TORSDOF 4
