REMARK  2 active torsions:
REMARK  status: ('A' for Active; 'I' for Inactive)
REMARK    1  A    between atoms: C2_2  and  C5_8 
REMARK    2  A    between atoms: C3_5  and  C4_6 
ROOT
ATOM      1  C1  <0> d           1.333   1.719  -0.001  0.00  0.00    -0.015 A 
ATOM      2  C2  <0> d          -0.016   1.297   0.009  0.00  0.00     0.069 A 
ATOM      3  N1  <0> d           0.002  -0.004   0.002  0.00  0.00    -0.132 NA
ATOM      4  O1  <0> d           1.129  -0.442  -0.011  0.00  0.00    -0.206 OA
ATOM      5  C3  <0> d           2.042   0.548  -0.015  0.00  0.00     0.179 A 
ATOM      6  H1  <0> d           1.714   2.729   0.000  0.00  0.00     0.091 H 
ENDROOT
BRANCH   2   7
ATOM      7  C5  <0> d          -1.236   2.181   0.020  0.00  0.00    -0.009 A 
ATOM      8  C7  <0> d          -1.730   2.686   1.377  0.00  0.00    -0.056 A 
ATOM      9  C6  <0> d          -1.042   3.649   0.406  0.00  0.00    -0.056 A 
ATOM     10  H5  <0> d          -2.807   2.793   1.513  0.00  0.00     0.034 H 
ATOM     11  H6  <0> d          -1.173   2.379   2.262  0.00  0.00     0.034 H 
ATOM     12  H3  <0> d          -0.031   3.975   0.653  0.00  0.00     0.034 H 
ATOM     13  H4  <0> d          -1.665   4.388  -0.096  0.00  0.00     0.034 H 
ATOM     14  H2  <0> d          -1.987   1.955  -0.737  0.00  0.00     0.049 H 
ENDBRANCH   2   7
BRANCH   5  15
ATOM     15  C4  <0> d           3.508   0.401  -0.030  0.00  0.00     0.236 C 
ATOM     16  O2  <0> d           4.218   1.387  -0.032  0.00  0.00    -0.642 OA
ATOM     17  O3  <0> d           4.062  -0.828  -0.042  0.00  0.00    -0.642 OA
ENDBRANCH   5  15
TORSDOF 2
