REMARK  1 active torsions:
REMARK  status: ('A' for Active; 'I' for Inactive)
REMARK    1  A    between atoms: C7_9  and  N2_10 
ROOT
ATOM      1  C1  <0> d          -0.017   1.376   0.010  0.00  0.00    -0.049 A 
ATOM      2  C2  <0> d           1.177   2.050   0.002  0.00  0.00     0.003 A 
ATOM      3  N1  <0> d           2.321   1.385  -0.013  0.00  0.00    -0.272 NA
ATOM      4  C3  <0> d           2.395   0.076  -0.021  0.00  0.00     0.015 A 
ATOM      5  C4  <0> d           1.226  -0.715  -0.013  0.00  0.00     0.025 A 
ATOM      6  C5  <0> d           0.002  -0.004   0.002  0.00  0.00     0.020 A 
ATOM      7  S1  <0> d          -1.225  -1.282   0.006  0.00  0.00    -0.099 SA
ATOM      8  C6  <0> d          -0.147  -2.703  -0.012  0.00  0.00    -0.018 A 
ATOM      9  C7  <0> d           1.085  -2.164  -0.020  0.00  0.00     0.045 A 
ATOM     10  H1  <0> d          -0.953   1.914   0.026  0.00  0.00     0.087 H 
ATOM     11  H2  <0> d           1.183   3.130   0.008  0.00  0.00     0.114 H 
ATOM     12  H3  <0> d           3.363  -0.403  -0.033  0.00  0.00     0.116 H 
ATOM     13  H4  <0> d          -0.420  -3.748  -0.015  0.00  0.00     0.098 H 
ENDROOT
BRANCH   9  14
ATOM     14  N2  <0> d           2.223  -2.991  -0.036  0.00  0.00    -0.398 N 
ATOM     15  H5  <0> d           3.109  -2.597  -0.042  0.00  0.00     0.156 HD
ATOM     16  H6  <0> d           2.122  -3.956  -0.040  0.00  0.00     0.156 HD
ENDBRANCH   9  14
TORSDOF 1
