REMARK  1 active torsions:
REMARK  status: ('A' for Active; 'I' for Inactive)
REMARK    1  A    between atoms: C1_1  and  C2_2 
ROOT
ATOM      1  C2  <0> d           0.002  -0.004   0.002  0.00  0.00     0.031 A 
ATOM      2  C3  <0> d           0.009  -0.802  -1.092  0.00  0.00     0.026 A 
ATOM      3  N1  <0> d           0.028  -2.074  -0.692  0.00  0.00    -0.239 NA
ATOM      4  C4  <0> d           0.035  -2.112   0.631  0.00  0.00     0.151 A 
ATOM      5  N2  <0> d           0.024  -0.818   1.092  0.00  0.00    -0.307 N 
ATOM      6  C5  <0> d           0.032  -0.591   2.440  0.00  0.00     0.004 A 
ATOM      7  C6  <0> d           0.054  -1.636   3.295  0.00  0.00     0.017 A 
ATOM      8  N3  <0> d           0.068  -2.895   2.850  0.00  0.00    -0.268 NA
ATOM      9  C7  <0> d           0.053  -3.165   1.567  0.00  0.00     0.046 A 
ATOM     10  H4  <0> d          -0.001  -0.465  -2.118  0.00  0.00     0.117 H 
ATOM     11  H5  <0> d           0.022   0.420   2.820  0.00  0.00     0.114 H 
ATOM     12  H6  <0> d           0.061  -1.450   4.359  0.00  0.00     0.116 H 
ATOM     13  H7  <0> d           0.066  -4.191   1.228  0.00  0.00     0.120 H 
ENDROOT
BRANCH   1  14
ATOM     14  C1  <0> d          -0.018   1.503   0.010  0.00  0.00    -0.036 C 
ATOM     15  H1  <0> d           1.004   1.880   0.003  0.00  0.00     0.035 H 
ATOM     16  H2  <0> d          -0.545   1.864  -0.873  0.00  0.00     0.035 H 
ATOM     17  H3  <0> d          -0.529   1.854   0.907  0.00  0.00     0.035 H 
ENDBRANCH   1  14
TORSDOF 1
