REMARK  2 active torsions:
REMARK  status: ('A' for Active; 'I' for Inactive)
REMARK    1  A    between atoms: C1_1  and  C2_2 
REMARK    2  A    between atoms: C5_8  and  C8_12 
ROOT
ATOM      1  C2  <0> d           2.398   1.366  -0.014  0.00  0.00    -0.034 A 
ATOM      2  C3  <0> d           2.392   0.006  -0.021  0.00  0.00    -0.010 A 
ATOM      3  C4  <0> d           1.164  -0.682  -0.013  0.00  0.00     0.246 A 
ATOM      4  O1  <0> d           1.153  -1.902  -0.019  0.00  0.00    -0.268 OA
ATOM      5  N1  <0> d           0.002  -0.004   0.002  0.00  0.00    -0.326 N 
ATOM      6  H1  <0> d          -0.836  -0.493   0.007  0.00  0.00     0.169 HD
ATOM      7  C5  <0> d          -0.016   1.343   0.009  0.00  0.00     0.029 A 
ATOM      8  C6  <0> d           1.164   2.058   0.002  0.00  0.00     0.072 A 
ATOM      9  C7  <0> d           1.140   3.490   0.009  0.00  0.00     0.102 C 
ATOM     10  N2  <0> d           1.121   4.626   0.015  0.00  0.00    -0.191 NA
ATOM     11  H5  <0> d           3.322  -0.543  -0.034  0.00  0.00     0.092 H 
ENDROOT
BRANCH   1  12
ATOM     12  C1  <0> d           3.701   2.124  -0.022  0.00  0.00    -0.050 C 
ATOM     13  H2  <0> d           4.532   1.419  -0.034  0.00  0.00     0.033 H 
ATOM     14  H3  <0> d           3.748   2.756  -0.909  0.00  0.00     0.033 H 
ATOM     15  H4  <0> d           3.765   2.746   0.871  0.00  0.00     0.033 H 
ENDBRANCH   1  12
BRANCH   7  16
ATOM     16  C8  <0> d          -1.334   2.074   0.020  0.00  0.00    -0.036 C 
ATOM     17  H6  <0> d          -2.150   1.351   0.019  0.00  0.00     0.035 H 
ATOM     18  H7  <0> d          -1.399   2.694   0.913  0.00  0.00     0.035 H 
ATOM     19  H8  <0> d          -1.407   2.704  -0.867  0.00  0.00     0.035 H 
ENDBRANCH   7  16
TORSDOF 2
