REMARK  5 active torsions:
REMARK  status: ('A' for Active; 'I' for Inactive)
REMARK    1  A    between atoms: C1_1  and  C2_2 
REMARK    2  A    between atoms: C2_2  and  C3_3 
REMARK    3  A    between atoms: C2_2  and  C4_4 
REMARK    4  A    between atoms: C5_7  and  S1_9 
REMARK    5  A    between atoms: S1_9  and  C6_10 
ROOT
ATOM      1  C4  <0> d           0.707  -0.490  -1.238  0.00  0.00     0.173 A 
ATOM      2  N1  <0> d           0.358  -0.245  -2.467  0.00  0.00    -0.126 NA
ATOM      3  N2  <0> d           1.184  -0.815  -3.271  0.00  0.00    -0.115 NA
ATOM      4  C5  <0> d           2.097  -1.451  -2.577  0.00  0.00     0.230 A 
ATOM      5  O1  <0> d           1.818  -1.253  -1.275  0.00  0.00    -0.268 OA
ENDROOT
BRANCH   1   6
ATOM      6  C2  <0> d           0.002  -0.004   0.002  0.00  0.00     0.005 C 
ATOM      7  H4  <0> d           0.529  -0.365   0.885  0.00  0.00     0.051 H 
BRANCH   6   8
ATOM      8  C1  <0> d          -0.019   1.526   0.010  0.00  0.00    -0.066 C 
ATOM      9  H1  <0> d           1.004   1.903   0.003  0.00  0.00     0.028 H 
ATOM     10  H2  <0> d          -0.546   1.887  -0.873  0.00  0.00     0.028 H 
ATOM     11  H3  <0> d          -0.529   1.877   0.907  0.00  0.00     0.028 H 
ENDBRANCH   6   8
BRANCH   6  12
ATOM     12  C3  <0> d          -1.433  -0.534   0.013  0.00  0.00    -0.066 C 
ATOM     13  H5  <0> d          -1.960  -0.173  -0.870  0.00  0.00     0.028 H 
ATOM     14  H6  <0> d          -1.419  -1.623   0.007  0.00  0.00     0.028 H 
ATOM     15  H7  <0> d          -1.944  -0.182   0.910  0.00  0.00     0.028 H 
ENDBRANCH   6  12
ENDBRANCH   1   6
BRANCH   4  16
ATOM     16  S1  <0> d           3.444  -2.383  -3.227  0.00  0.00    -0.087 SA
BRANCH  16  17
ATOM     17  C6  <0> d           3.248  -2.241  -5.025  0.00  0.00    -0.027 C 
ATOM     18  H8  <0> d           2.283  -2.654  -5.319  0.00  0.00     0.042 H 
ATOM     19  H9  <0> d           3.298  -1.192  -5.314  0.00  0.00     0.042 H 
ATOM     20  H10 <0> d           4.046  -2.793  -5.521  0.00  0.00     0.042 H 
ENDBRANCH  16  17
ENDBRANCH   4  16
TORSDOF 5
