REMARK  1 active torsions:
REMARK  status: ('A' for Active; 'I' for Inactive)
REMARK    1  A    between atoms: C6_6  and  N1_7 
ROOT
ATOM      1  C1  <0> d          -3.416   2.547   0.031  0.00  0.00    -0.055 A 
ATOM      2  C2  <0> d          -2.508   1.507   0.021  0.00  0.00    -0.052 A 
ATOM      3  C3  <0> d          -1.149   1.777   0.016  0.00  0.00     0.071 A 
ATOM      4  C4  <0> d          -0.696   3.096   0.025  0.00  0.00     0.110 A 
ATOM      5  C5  <0> d          -1.609   4.138   0.038  0.00  0.00    -0.023 A 
ATOM      6  C6  <0> d          -2.970   3.864   0.036  0.00  0.00     0.028 A 
ATOM      7  O1  <0> d           0.659   3.057   0.012  0.00  0.00    -0.259 OA
ATOM      8  C7  <0> d           1.065   1.778   0.001  0.00  0.00     0.370 A 
ATOM      9  O2  <0> d           2.223   1.409  -0.012  0.00  0.00    -0.238 OA
ATOM     10  N2  <0> d          -0.011   0.966   0.007  0.00  0.00    -0.300 N 
ATOM     11  H1  <0> d           0.002  -0.004   0.002  0.00  0.00     0.171 HD
ATOM     12  H2  <0> d          -4.476   2.338   0.035  0.00  0.00     0.087 H 
ATOM     13  H3  <0> d          -2.856   0.485   0.017  0.00  0.00     0.087 H 
ATOM     14  H4  <0> d          -1.264   5.161   0.041  0.00  0.00     0.091 H 
ENDROOT
BRANCH   6  15
ATOM     15  N1  <0> d          -3.893   4.914   0.046  0.00  0.00    -0.399 N 
ATOM     16  H5  <0> d          -4.844   4.724   0.050  0.00  0.00     0.156 HD
ATOM     17  H6  <0> d          -3.583   5.833   0.050  0.00  0.00     0.156 HD
ENDBRANCH   6  15
TORSDOF 1
