REMARK  2 active torsions:
REMARK  status: ('A' for Active; 'I' for Inactive)
REMARK    1  A    between atoms: C1_1  and  O1_2 
REMARK    2  A    between atoms: O1_2  and  C2_3 
ROOT
ATOM      1  C2  <0> d           0.002  -0.004   0.002  0.00  0.00     0.150 A 
ATOM      2  C3  <0> d           1.198  -0.659  -0.013  0.00  0.00     0.032 A 
ATOM      3  C4  <0> d           2.387   0.091  -0.020  0.00  0.00     0.253 A 
ATOM      4  O2  <0> d           3.468  -0.472  -0.034  0.00  0.00    -0.268 OA
ATOM      5  N1  <0> d           2.324   1.438  -0.012  0.00  0.00    -0.275 N 
ATOM      6  H1  <0> d           3.168   1.974  -0.018  0.00  0.00     0.173 HD
ATOM      7  C5  <0> d           1.134   2.065   0.002  0.00  0.00     0.329 A 
ATOM      8  O3  <0> d           1.098   3.280   0.009  0.00  0.00    -0.247 OA
ATOM      9  N2  <0> d          -0.017   1.368   0.010  0.00  0.00    -0.289 N 
ATOM     10  H2  <0> d          -0.891   1.853   0.021  0.00  0.00     0.172 HD
ATOM     11  H6  <0> d           1.231  -1.738  -0.019  0.00  0.00     0.098 H 
ENDROOT
BRANCH   1  12
ATOM     12  O1  <0> d          -1.155  -0.700   0.010  0.00  0.00    -0.341 OA
BRANCH  12  13
ATOM     13  C1  <0> d          -2.367   0.056   0.026  0.00  0.00     0.012 C 
ATOM     14  H3  <0> d          -2.394   0.680   0.919  0.00  0.00     0.067 H 
ATOM     15  H4  <0> d          -2.412   0.689  -0.860  0.00  0.00     0.067 H 
ATOM     16  H5  <0> d          -3.219  -0.623   0.031  0.00  0.00     0.067 H 
ENDBRANCH  12  13
ENDBRANCH   1  12
TORSDOF 2
