REMARK  3 active torsions:
REMARK  status: ('A' for Active; 'I' for Inactive)
REMARK    1  A    between atoms: C1_1  and  C2_2 
REMARK    2  A    between atoms: C2_2  and  O1_3 
REMARK    3  A    between atoms: O1_3  and  C3_4 
ROOT
ATOM      1  O1  <0> d           2.388   3.198  -0.004  0.00  0.00    -0.329 OA
ENDROOT
BRANCH   1   2
ATOM      2  C2  <0> d           3.814   3.107  -0.018  0.00  0.00     0.025 C 
ATOM      3  H4  <0> d           4.152   2.566   0.866  0.00  0.00     0.074 H 
ATOM      4  H5  <0> d           4.135   2.575  -0.914  0.00  0.00     0.074 H 
BRANCH   2   5
ATOM      5  C1  <0> d           4.415   4.513  -0.017  0.00  0.00    -0.056 C 
ATOM      6  H1  <0> d           5.503   4.444  -0.027  0.00  0.00     0.030 H 
ATOM      7  H2  <0> d           4.077   5.054  -0.901  0.00  0.00     0.030 H 
ATOM      8  H3  <0> d           4.094   5.045   0.879  0.00  0.00     0.030 H 
ENDBRANCH   2   5
ENDBRANCH   1   2
BRANCH   1   9
ATOM      9  C3  <0> d           1.696   2.032  -0.003  0.00  0.00     0.208 A 
ATOM     10  S1  <0> d          -0.022   1.783   0.012  0.00  0.00    -0.055 SA
ATOM     11  C5  <0> d           0.002  -0.004   0.002  0.00  0.00    -0.024 A 
ATOM     12  C4  <0> d           1.337  -0.237  -0.012  0.00  0.00     0.012 A 
ATOM     13  H7  <0> d          -0.820  -0.705   0.006  0.00  0.00     0.097 H 
ATOM     14  N1  <0> d           2.156   0.797  -0.014  0.00  0.00    -0.230 NA
ATOM     15  H6  <0> d           1.721  -1.247  -0.021  0.00  0.00     0.115 H 
ENDBRANCH   1   9
TORSDOF 3
