REMARK  0 active torsions:
REMARK  status: ('A' for Active; 'I' for Inactive)
ROOT
ATOM      1  C1  <0> d           0.002  -0.004   0.002  0.00  0.00    -0.051 C 
ATOM      2  C2  <0> d           0.846  -0.076  -1.323  0.00  0.00    -0.036 C 
ATOM      3  H1  <0> d           1.028  -1.070  -1.733  0.00  0.00     0.046 H 
ATOM      4  C3  <0> d           2.108   0.739  -0.898  0.00  0.00    -0.043 C 
ATOM      5  C4  <0> d           1.513   1.871  -0.002  0.00  0.00     0.037 C 
ATOM      6  H2  <0> d           1.706   2.854  -0.432  0.00  0.00     0.063 H 
ATOM      7  C5  <0> d          -0.019   1.568   0.011  0.00  0.00    -0.022 C 
ATOM      8  H3  <0> d          -0.599   2.045   0.801  0.00  0.00     0.048 H 
ATOM      9  C6  <0> d          -0.464   1.831  -1.433  0.00  0.00    -0.101 C 
ATOM     10  C7  <0> d           0.035   0.884  -2.202  0.00  0.00    -0.102 C 
ATOM     11  C8  <0> d           2.070   1.781   1.357  0.00  0.00     0.064 C 
ATOM     12  N1  <0> d           2.499   1.712   2.407  0.00  0.00    -0.197 NA
ATOM     13  H4  <0> d           0.533  -0.419   0.859  0.00  0.00     0.035 H 
ATOM     14  H5  <0> d          -0.993  -0.434  -0.111  0.00  0.00     0.035 H 
ATOM     15  H6  <0> d           2.803   0.109  -0.342  0.00  0.00     0.035 H 
ATOM     16  H7  <0> d           2.599   1.170  -1.771  0.00  0.00     0.035 H 
ATOM     17  H8  <0> d          -1.081   2.654  -1.764  0.00  0.00     0.077 H 
ATOM     18  H9  <0> d          -0.104   0.798  -3.269  0.00  0.00     0.076 H 
ENDROOT
TORSDOF 0
