REMARK  8 active torsions:
REMARK  status: ('A' for Active; 'I' for Inactive)
REMARK    1  A    between atoms: C1_1  and  C2_2 
REMARK    2  A    between atoms: C3_3  and  C4_4 
REMARK    3  A    between atoms: C4_4  and  C5_5 
REMARK    4  A    between atoms: C5_5  and  C6_6 
REMARK    5  A    between atoms: C7_7  and  C8_8 
REMARK    6  A    between atoms: C7_7  and  C9_9 
REMARK    7  A    between atoms: C9_9  and  C10_10 
REMARK    8  A    between atoms: C10_10  and  O1_11 
ROOT
ATOM      1  C6  <0> d          -0.059   1.075   2.530  0.00  0.00    -0.100 C 
ATOM      2  C7  <0> d           0.494   1.933   3.350  0.00  0.00    -0.086 C 
ATOM      3  H8  <0> d           0.042   0.015   2.710  0.00  0.00     0.077 H 
ENDROOT
BRANCH   1   4
ATOM      4  C5  <0> d          -0.834   1.566   1.335  0.00  0.00    -0.040 C 
ATOM      5  H6  <0> d          -0.738   2.649   1.259  0.00  0.00     0.040 H 
ATOM      6  H7  <0> d          -1.886   1.303   1.451  0.00  0.00     0.040 H 
BRANCH   4   7
ATOM      7  C4  <0> d          -0.282   0.915   0.065  0.00  0.00    -0.006 C 
ATOM      8  H4  <0> d          -0.379  -0.168   0.141  0.00  0.00     0.052 H 
ATOM      9  H5  <0> d           0.769   1.178  -0.051  0.00  0.00     0.052 H 
BRANCH   7  10
ATOM     10  C3  <0> d          -1.040   1.395  -1.102  0.00  0.00    -0.107 C 
ATOM     11  C2  <0> d          -1.645   1.778  -2.033  0.00  0.00    -0.111 C 
BRANCH  11  12
ATOM     12  C1  <0> d          -2.402   2.258  -3.200  0.00  0.00    -0.021 C 
ATOM     13  H1  <0> d          -2.305   3.341  -3.275  0.00  0.00     0.044 H 
ATOM     14  H2  <0> d          -2.009   1.794  -4.104  0.00  0.00     0.044 H 
ATOM     15  H3  <0> d          -3.454   1.994  -3.084  0.00  0.00     0.044 H 
ENDBRANCH  11  12
ENDBRANCH   7  10
ENDBRANCH   4   7
ENDBRANCH   1   4
BRANCH   2  16
ATOM     16  C8  <0> d           1.387   1.446   4.462  0.00  0.00    -0.055 C 
ATOM     17  H9  <0> d           2.417   1.399   4.107  0.00  0.00     0.033 H 
ATOM     18  H10 <0> d           1.324   2.133   5.306  0.00  0.00     0.033 H 
ATOM     19  H11 <0> d           1.065   0.453   4.777  0.00  0.00     0.033 H 
ENDBRANCH   2  16
BRANCH   2  20
ATOM     20  C9  <0> d           0.238   3.409   3.182  0.00  0.00    -0.025 C 
ATOM     21  H12 <0> d          -0.724   3.557   2.692  0.00  0.00     0.042 H 
ATOM     22  H13 <0> d           0.226   3.889   4.160  0.00  0.00     0.042 H 
BRANCH  20  23
ATOM     23  C10 <0> d           1.346   4.024   2.324  0.00  0.00     0.020 C 
ATOM     24  H14 <0> d           2.309   3.876   2.814  0.00  0.00     0.074 H 
ATOM     25  H15 <0> d           1.358   3.544   1.346  0.00  0.00     0.074 H 
BRANCH  23  26
ATOM     26  O1  <0> d           1.103   5.423   2.165  0.00  0.00    -0.401 OA
ATOM     27  H16 <0> d           1.768   5.880   1.631  0.00  0.00     0.209 HD
ENDBRANCH  23  26
ENDBRANCH  20  23
ENDBRANCH   2  20
TORSDOF 8
