REMARK  6 active torsions:
REMARK  status: ('A' for Active; 'I' for Inactive)
REMARK    1  A    between atoms: C1_1  and  C2_2 
REMARK    2  A    between atoms: C2_2  and  C3_3 
REMARK    3  A    between atoms: C4_4  and  C5_5 
REMARK    4  A    between atoms: C5_5  and  C6_7 
REMARK    5  A    between atoms: C5_5  and  O1_9 
REMARK    6  A    between atoms: C6_7  and  C7_8 
ROOT
ATOM      1  C5  <0> d          -0.750   3.109   1.275  0.00  0.00     0.093 C 
ATOM      2  H1  <0> d          -1.198   3.471   0.350  0.00  0.00     0.103 H 
ENDROOT
BRANCH   1   3
ATOM      3  C4  <0> d          -1.541   3.583   2.422  0.00  0.00    -0.075 C 
ATOM      4  C3  <0> d          -2.173   3.961   3.337  0.00  0.00    -0.104 C 
BRANCH   4   5
ATOM      5  C2  <0> d          -2.964   4.434   4.484  0.00  0.00    -0.012 C 
ATOM      6  H5  <0> d          -2.979   5.524   4.490  0.00  0.00     0.051 H 
ATOM      7  H6  <0> d          -3.984   4.057   4.402  0.00  0.00     0.051 H 
BRANCH   5   8
ATOM      8  C1  <0> d          -2.336   3.925   5.783  0.00  0.00    -0.067 C 
ATOM      9  H2  <0> d          -2.321   2.836   5.777  0.00  0.00     0.028 H 
ATOM     10  H3  <0> d          -1.316   4.302   5.865  0.00  0.00     0.028 H 
ATOM     11  H4  <0> d          -2.922   4.276   6.632  0.00  0.00     0.028 H 
ENDBRANCH   5   8
ENDBRANCH   4   5
ENDBRANCH   1   3
BRANCH   1  12
ATOM     12  C6  <0> d          -0.729   1.579   1.267  0.00  0.00    -0.034 C 
ATOM     13  H7  <0> d          -1.751   1.202   1.275  0.00  0.00     0.037 H 
ATOM     14  H8  <0> d          -0.202   1.218   2.150  0.00  0.00     0.037 H 
BRANCH  12  15
ATOM     15  C7  <0> d          -0.013   1.086   0.008  0.00  0.00    -0.073 C 
ATOM     16  H9  <0> d           0.002  -0.004   0.002  0.00  0.00     0.027 H 
ATOM     17  H10 <0> d           1.010   1.463   0.000  0.00  0.00     0.027 H 
ATOM     18  H11 <0> d          -0.540   1.447  -0.875  0.00  0.00     0.027 H 
ENDBRANCH  12  15
ENDBRANCH   1  12
BRANCH   1  19
ATOM     19  O1  <0> d           0.587   3.603   1.383  0.00  0.00    -0.383 OA
ATOM     20  H12 <0> d           1.048   3.320   2.184  0.00  0.00     0.211 HD
ENDBRANCH   1  19
TORSDOF 6
