REMARK  1 active torsions:
REMARK  status: ('A' for Active; 'I' for Inactive)
REMARK    1  A    between atoms: C3_3  and  C6_7 
ROOT
ATOM      1  C1  <0> d          -0.017   1.379   0.010  0.00  0.00    -0.065 A 
ATOM      2  C2  <0> d           1.181   2.073   0.002  0.00  0.00    -0.068 A 
ATOM      3  C3  <0> d           2.373   1.339  -0.013  0.00  0.00     0.015 A 
ATOM      4  C4  <0> d           2.306  -0.056  -0.020  0.00  0.00     0.014 A 
ATOM      5  N1  <0> d           1.141  -0.670  -0.013  0.00  0.00    -0.272 NA
ATOM      6  C5  <0> d           0.002  -0.004   0.002  0.00  0.00     0.002 A 
ATOM      7  H1  <0> d          -0.956   1.912   0.026  0.00  0.00     0.085 H 
ATOM      8  H2  <0> d           1.195   3.153   0.007  0.00  0.00     0.085 H 
ATOM      9  H3  <0> d           3.217  -0.635  -0.032  0.00  0.00     0.116 H 
ATOM     10  H4  <0> d          -0.931  -0.548   0.008  0.00  0.00     0.114 H 
ENDROOT
BRANCH   3  11
ATOM     11  C6  <0> d           3.680   2.029  -0.023  0.00  0.00     0.086 A 
ATOM     12  O1  <0> d           3.870   3.362  -0.018  0.00  0.00    -0.322 OA
ATOM     13  C9  <0> d           5.187   3.625  -0.027  0.00  0.00     0.019 A 
ATOM     14  C8  <0> d           5.860   2.458  -0.046  0.00  0.00    -0.059 A 
ATOM     15  H7  <0> d           5.632   4.609  -0.023  0.00  0.00     0.123 H 
ATOM     16  C7  <0> d           4.899   1.427  -0.043  0.00  0.00    -0.048 A 
ATOM     17  H6  <0> d           6.933   2.336  -0.060  0.00  0.00     0.086 H 
ATOM     18  H5  <0> d           5.093   0.365  -0.055  0.00  0.00     0.087 H 
ENDBRANCH   3  11
TORSDOF 1
