REMARK  9 active torsions:
REMARK  status: ('A' for Active; 'I' for Inactive)
REMARK    1  A    between atoms: C1_1  and  C2_2 
REMARK    2  A    between atoms: C2_2  and  C3_3 
REMARK    3  A    between atoms: C3_3  and  C4_4 
REMARK    4  A    between atoms: C4_4  and  C5_5 
REMARK    5  A    between atoms: C4_4  and  C6_6 
REMARK    6  A    between atoms: C4_4  and  O1_11 
REMARK    7  A    between atoms: C6_6  and  C7_8 
REMARK    8  A    between atoms: C6_6  and  C8_9 
REMARK    9  A    between atoms: C8_9  and  C9_10 
ROOT
ATOM      1  C4  <0> d          -0.753   1.593  -1.232  0.00  0.00     0.057 C 
ENDROOT
BRANCH   1   2
ATOM      2  C3  <0> d          -2.221   1.167  -1.159  0.00  0.00    -0.037 C 
ATOM      3  H7  <0> d          -2.282   0.080  -1.118  0.00  0.00     0.037 H 
ATOM      4  H8  <0> d          -2.678   1.591  -0.264  0.00  0.00     0.037 H 
BRANCH   2   5
ATOM      5  C2  <0> d          -2.961   1.674  -2.398  0.00  0.00    -0.066 C 
ATOM      6  H5  <0> d          -2.899   2.762  -2.439  0.00  0.00     0.032 H 
ATOM      7  H6  <0> d          -2.504   1.251  -3.292  0.00  0.00     0.032 H 
BRANCH   5   8
ATOM      8  C1  <0> d          -4.429   1.249  -2.325  0.00  0.00    -0.076 C 
ATOM      9  H2  <0> d          -4.956   1.610  -3.208  0.00  0.00     0.027 H 
ATOM     10  H3  <0> d          -4.490   0.162  -2.284  0.00  0.00     0.027 H 
ATOM     11  H4  <0> d          -4.885   1.673  -1.431  0.00  0.00     0.027 H 
ENDBRANCH   5   8
ENDBRANCH   2   5
ENDBRANCH   1   2
BRANCH   1  12
ATOM     12  C5  <0> d          -0.666   3.119  -1.289  0.00  0.00    -0.048 C 
ATOM     13  H9  <0> d           0.380   3.422  -1.341  0.00  0.00     0.031 H 
ATOM     14  H10 <0> d          -1.193   3.480  -2.172  0.00  0.00     0.031 H 
ATOM     15  H11 <0> d          -1.123   3.543  -0.394  0.00  0.00     0.031 H 
ENDBRANCH   1  12
BRANCH   1  16
ATOM     16  C6  <0> d          -0.013   1.086   0.008  0.00  0.00    -0.029 C 
ATOM     17  H1  <0> d           0.002  -0.004   0.002  0.00  0.00     0.043 H 
BRANCH  16  18
ATOM     18  C7  <0> d          -0.729   1.579   1.267  0.00  0.00    -0.070 C 
ATOM     19  H12 <0> d          -0.744   2.669   1.273  0.00  0.00     0.028 H 
ATOM     20  H13 <0> d          -1.751   1.202   1.275  0.00  0.00     0.028 H 
ATOM     21  H14 <0> d          -0.202   1.218   2.150  0.00  0.00     0.028 H 
ENDBRANCH  16  18
BRANCH  16  22
ATOM     22  C8  <0> d           1.423   1.615  -0.003  0.00  0.00    -0.063 C 
ATOM     23  H15 <0> d           1.905   1.339  -0.940  0.00  0.00     0.033 H 
ATOM     24  H16 <0> d           1.410   2.701   0.093  0.00  0.00     0.033 H 
BRANCH  22  25
ATOM     25  C9  <0> d           2.199   1.009   1.168  0.00  0.00    -0.076 C 
ATOM     26  H17 <0> d           3.221   1.387   1.160  0.00  0.00     0.027 H 
ATOM     27  H18 <0> d           1.716   1.286   2.106  0.00  0.00     0.027 H 
ATOM     28  H19 <0> d           2.211  -0.076   1.073  0.00  0.00     0.027 H 
ENDBRANCH  22  25
ENDBRANCH  16  22
ENDBRANCH   1  16
BRANCH   1  29
ATOM     29  O1  <0> d          -0.154   1.037  -2.404  0.00  0.00    -0.390 OA
ATOM     30  H20 <0> d          -0.173   0.071  -2.436  0.00  0.00     0.210 HD
ENDBRANCH   1  29
TORSDOF 9
