REMARK  4 active torsions:
REMARK  status: ('A' for Active; 'I' for Inactive)
REMARK    1  A    between atoms: N1_4  and  C5_6 
REMARK    2  A    between atoms: C5_6  and  C6_7 
REMARK    3  A    between atoms: C6_7  and  C7_8 
REMARK    4  A    between atoms: C7_8  and  O1_9 
ROOT
ATOM      1  C5  <0> d           1.760  -1.804  -0.025  0.00  0.00     0.001 C 
ATOM      2  H5  <0> d           1.023  -2.425  -0.535  0.00  0.00     0.065 H 
ATOM      3  H6  <0> d           2.714  -1.869  -0.548  0.00  0.00     0.065 H 
ENDROOT
BRANCH   1   4
ATOM      4  N1  <0> d           1.303  -0.413  -0.013  0.00  0.00    -0.366 N 
ATOM      5  C3  <0> d           2.107   0.688  -0.014  0.00  0.00    -0.021 A 
ATOM      6  C2  <0> d           1.322   1.784  -0.001  0.00  0.00    -0.067 A 
ATOM      7  H3  <0> d           3.187   0.683  -0.025  0.00  0.00     0.111 H 
ATOM      8  C1  <0> d          -0.016   1.344   0.009  0.00  0.00    -0.067 A 
ATOM      9  H2  <0> d           1.658   2.811   0.001  0.00  0.00     0.085 H 
ATOM     10  C4  <0> d           0.002  -0.004   0.002  0.00  0.00    -0.021 A 
ATOM     11  H1  <0> d          -0.895   1.972   0.025  0.00  0.00     0.085 H 
ATOM     12  H4  <0> d          -0.864  -0.649   0.007  0.00  0.00     0.111 H 
ENDBRANCH   1   4
BRANCH   1  13
ATOM     13  C6  <0> d           1.934  -2.297   1.413  0.00  0.00    -0.030 C 
ATOM     14  H7  <0> d           2.671  -1.677   1.923  0.00  0.00     0.038 H 
ATOM     15  H8  <0> d           0.980  -2.233   1.937  0.00  0.00     0.038 H 
BRANCH  13  16
ATOM     16  C7  <0> d           2.411  -3.750   1.400  0.00  0.00     0.018 C 
ATOM     17  H9  <0> d           1.674  -4.371   0.890  0.00  0.00     0.074 H 
ATOM     18  H10 <0> d           3.365  -3.815   0.877  0.00  0.00     0.074 H 
BRANCH  16  19
ATOM     19  O1  <0> d           2.573  -4.210   2.744  0.00  0.00    -0.401 OA
ATOM     20  H11 <0> d           2.875  -5.127   2.812  0.00  0.00     0.209 HD
ENDBRANCH  16  19
ENDBRANCH  13  16
ENDBRANCH   1  13
TORSDOF 4
