REMARK  2 active torsions:
REMARK  status: ('A' for Active; 'I' for Inactive)
REMARK    1  A    between atoms: C4_5  and  O3_15 
REMARK    2  A    between atoms: C8_11  and  O1_13 
ROOT
ATOM      1  C1  <0> d           0.716  -0.493  -1.253  0.00  0.00    -0.036 C 
ATOM      2  C2  <0> d          -0.150  -0.339  -2.497  0.00  0.00    -0.036 C 
ATOM      3  C3  <0> d          -1.569  -0.845  -2.274  0.00  0.00     0.064 C 
ATOM      4  H1  <0> d          -2.180  -0.555  -3.142  0.00  0.00     0.087 H 
ATOM      5  C4  <0> d          -1.617  -2.361  -2.139  0.00  0.00     0.060 C 
ATOM      6  H2  <0> d          -2.666  -2.686  -2.171  0.00  0.00     0.086 H 
ATOM      7  C5  <0> d          -0.991  -2.841  -0.836  0.00  0.00    -0.036 C 
ATOM      8  C6  <0> d          -1.458  -2.025   0.361  0.00  0.00    -0.036 C 
ATOM      9  C7  <0> d          -1.427  -0.527   0.085  0.00  0.00     0.064 C 
ATOM     10  H3  <0> d          -1.936  -0.011   0.913  0.00  0.00     0.087 H 
ATOM     11  C8  <0> d           0.002  -0.004   0.002  0.00  0.00     0.060 C 
ATOM     12  H4  <0> d           0.558  -0.343   0.885  0.00  0.00     0.086 H 
ATOM     13  O2  <0> d          -2.135  -0.230  -1.117  0.00  0.00    -0.376 OA
ATOM     14  H5  <0> d           1.627   0.116  -1.389  0.00  0.00     0.036 H 
ATOM     15  H6  <0> d           1.046  -1.521  -1.135  0.00  0.00     0.036 H 
ATOM     16  H7  <0> d          -0.188   0.722  -2.778  0.00  0.00     0.037 H 
ATOM     17  H8  <0> d           0.308  -0.884  -3.329  0.00  0.00     0.037 H 
ATOM     18  H9  <0> d          -1.300  -3.891  -0.676  0.00  0.00     0.036 H 
ATOM     19  H10 <0> d           0.093  -2.848  -0.904  0.00  0.00     0.036 H 
ATOM     20  H11 <0> d          -2.480  -2.321   0.626  0.00  0.00     0.037 H 
ATOM     21  H12 <0> d          -0.814  -2.245   1.222  0.00  0.00     0.037 H 
ENDROOT
BRANCH   5  22
ATOM     22  O3  <0> d          -0.934  -2.963  -3.246  0.00  0.00    -0.393 OA
ATOM     23  H14 <0> d          -0.926  -3.929  -3.225  0.00  0.00     0.210 HD
ENDBRANCH   5  22
BRANCH  11  24
ATOM     24  O1  <0> d          -0.017   1.429   0.010  0.00  0.00    -0.393 OA
ATOM     25  H13 <0> d           0.861   1.834   0.004  0.00  0.00     0.210 HD
ENDBRANCH  11  24
TORSDOF 2
