REMARK  4 active torsions:
REMARK  status: ('A' for Active; 'I' for Inactive)
REMARK    1  A    between atoms: C1_1  and  C2_2 
REMARK    2  A    between atoms: C2_2  and  C3_3 
REMARK    3  A    between atoms: C3_3  and  C4_4 
REMARK    4  A    between atoms: C4_4  and  C5_5 
ROOT
ATOM      1  C5  <0> d          -0.729   1.579   1.267  0.00  0.00     0.048 C 
ATOM      2  H1  <0> d          -0.823   2.665   1.231  0.00  0.00     0.084 H 
ATOM      3  C6  <0> d           0.077   1.176   2.505  0.00  0.00    -0.040 C 
ATOM      4  C7  <0> d          -0.670   1.624   3.765  0.00  0.00    -0.054 C 
ATOM      5  C8  <0> d          -2.047   0.949   3.796  0.00  0.00     0.016 C 
ATOM      6  C9  <0> d          -2.739   1.216   2.477  0.00  0.00     0.259 C 
ATOM      7  O1  <0> d          -3.874   1.628   2.443  0.00  0.00    -0.265 OA
ATOM      8  O2  <0> d          -2.053   0.979   1.340  0.00  0.00    -0.316 OA
ATOM      9  H11 <0> d           0.200   0.093   2.522  0.00  0.00     0.036 H 
ATOM     10  H12 <0> d           1.056   1.654   2.473  0.00  0.00     0.036 H 
ATOM     11  H13 <0> d          -0.795   2.707   3.748  0.00  0.00     0.033 H 
ATOM     12  H14 <0> d          -0.102   1.334   4.649  0.00  0.00     0.033 H 
ATOM     13  H15 <0> d          -2.640   1.362   4.612  0.00  0.00     0.048 H 
ATOM     14  H16 <0> d          -1.927  -0.125   3.937  0.00  0.00     0.048 H 
ENDROOT
BRANCH   1  15
ATOM     15  C4  <0> d          -0.013   1.086   0.008  0.00  0.00    -0.040 C 
ATOM     16  H9  <0> d           0.002  -0.004   0.002  0.00  0.00     0.036 H 
ATOM     17  H10 <0> d           1.010   1.463   0.000  0.00  0.00     0.036 H 
BRANCH  15  18
ATOM     18  C3  <0> d          -0.753   1.593  -1.232  0.00  0.00    -0.063 C 
ATOM     19  H7  <0> d          -1.775   1.215  -1.224  0.00  0.00     0.033 H 
ATOM     20  H8  <0> d          -0.767   2.683  -1.226  0.00  0.00     0.033 H 
BRANCH  18  21
ATOM     21  C2  <0> d          -0.037   1.099  -2.490  0.00  0.00    -0.068 C 
ATOM     22  H5  <0> d           0.986   1.476  -2.498  0.00  0.00     0.032 H 
ATOM     23  H6  <0> d          -0.022   0.009  -2.496  0.00  0.00     0.032 H 
BRANCH  21  24
ATOM     24  C1  <0> d          -0.777   1.606  -3.730  0.00  0.00    -0.077 C 
ATOM     25  H2  <0> d          -0.266   1.254  -4.627  0.00  0.00     0.027 H 
ATOM     26  H3  <0> d          -1.799   1.229  -3.722  0.00  0.00     0.027 H 
ATOM     27  H4  <0> d          -0.791   2.696  -3.724  0.00  0.00     0.027 H 
ENDBRANCH  21  24
ENDBRANCH  18  21
ENDBRANCH  15  18
ENDBRANCH   1  15
TORSDOF 4
