REMARK  5 active torsions:
REMARK  status: ('A' for Active; 'I' for Inactive)
REMARK    1  A    between atoms: C3_3  and  N2_8 
REMARK    2  A    between atoms: C6_6  and  N1_7 
REMARK    3  A    between atoms: N2_8  and  C7_9 
REMARK    4  A    between atoms: C7_9  and  C8_10 
REMARK    5  A    between atoms: C8_10  and  O1_11 
ROOT
ATOM      1  C1  <0> d          -0.017   1.384   0.010  0.00  0.00    -0.056 A 
ATOM      2  C2  <0> d           1.170   2.091   0.002  0.00  0.00    -0.055 A 
ATOM      3  C3  <0> d           2.381   1.413  -0.013  0.00  0.00     0.028 A 
ATOM      4  C4  <0> d           2.400   0.025  -0.021  0.00  0.00    -0.055 A 
ATOM      5  C5  <0> d           1.214  -0.682  -0.013  0.00  0.00    -0.056 A 
ATOM      6  C6  <0> d           0.002  -0.004   0.002  0.00  0.00     0.025 A 
ATOM      7  H1  <0> d          -0.959   1.912   0.026  0.00  0.00     0.087 H 
ATOM      8  H2  <0> d           1.155   3.171   0.008  0.00  0.00     0.087 H 
ATOM      9  H3  <0> d           3.343  -0.502  -0.033  0.00  0.00     0.087 H 
ATOM     10  H4  <0> d           1.228  -1.762  -0.019  0.00  0.00     0.087 H 
ENDROOT
BRANCH   3  11
ATOM     11  N2  <0> d           3.584   2.130  -0.021  0.00  0.00    -0.388 N 
ATOM     12  H7  <0> d           3.571   3.099  -0.016  0.00  0.00     0.159 HD
BRANCH  11  13
ATOM     13  C7  <0> d           4.863   1.415  -0.037  0.00  0.00     0.012 C 
ATOM     14  H8  <0> d           4.938   0.784   0.849  0.00  0.00     0.067 H 
ATOM     15  H9  <0> d           4.920   0.793  -0.931  0.00  0.00     0.067 H 
BRANCH  13  16
ATOM     16  C8  <0> d           6.012   2.424  -0.043  0.00  0.00     0.031 C 
ATOM     17  H10 <0> d           6.960   1.896  -0.145  0.00  0.00     0.076 H 
ATOM     18  H11 <0> d           5.888   3.111  -0.880  0.00  0.00     0.076 H 
BRANCH  16  19
ATOM     19  O1  <0> d           6.006   3.160   1.182  0.00  0.00    -0.399 OA
ATOM     20  H12 <0> d           6.709   3.821   1.247  0.00  0.00     0.209 HD
ENDBRANCH  16  19
ENDBRANCH  13  16
ENDBRANCH  11  13
ENDBRANCH   3  11
BRANCH   6  21
ATOM     21  N1  <0> d          -1.201  -0.721   0.010  0.00  0.00    -0.399 N 
ATOM     22  H5  <0> d          -2.047  -0.247   0.021  0.00  0.00     0.156 HD
ATOM     23  H6  <0> d          -1.188  -1.690   0.005  0.00  0.00     0.156 HD
ENDBRANCH   6  21
TORSDOF 5
