REMARK  5 active torsions:
REMARK  status: ('A' for Active; 'I' for Inactive)
REMARK    1  A    between atoms: C1_1  and  C2_2 
REMARK    2  A    between atoms: C6_6  and  C8_9 
REMARK    3  A    between atoms: C7_7  and  O1_8 
REMARK    4  A    between atoms: C8_9  and  C9_10 
REMARK    5  A    between atoms: C8_9  and  C10_11 
ROOT
ATOM      1  C2  <0> d           2.396   0.022  -0.021  0.00  0.00    -0.028 A 
ATOM      2  C3  <0> d           1.207  -0.681  -0.013  0.00  0.00    -0.074 A 
ATOM      3  C4  <0> d           0.002  -0.004   0.002  0.00  0.00    -0.082 A 
ATOM      4  C5  <0> d          -0.017   1.379   0.010  0.00  0.00    -0.074 A 
ATOM      5  C6  <0> d           1.169   2.087   0.002  0.00  0.00    -0.021 A 
ATOM      6  C7  <0> d           2.380   1.409  -0.013  0.00  0.00     0.078 A 
ATOM      7  H4  <0> d           1.219  -1.761  -0.018  0.00  0.00     0.084 H 
ATOM      8  H5  <0> d          -0.926  -0.556   0.008  0.00  0.00     0.083 H 
ATOM      9  H6  <0> d          -0.960   1.905   0.017  0.00  0.00     0.084 H 
ENDROOT
BRANCH   5  10
ATOM     10  C8  <0> d           1.148   3.594   0.010  0.00  0.00    -0.033 C 
ATOM     11  H8  <0> d           2.185   3.960   0.002  0.00  0.00     0.046 H 
BRANCH  10  12
ATOM     12  C9  <0> d           0.408   4.099  -1.230  0.00  0.00    -0.069 C 
ATOM     13  H9  <0> d           0.393   5.199  -1.224  0.00  0.00     0.028 H 
ATOM     14  H10 <0> d          -0.624   3.718  -1.222  0.00  0.00     0.028 H 
ATOM     15  H11 <0> d           0.923   3.745  -2.135  0.00  0.00     0.028 H 
ENDBRANCH  10  12
BRANCH  10  16
ATOM     16  C10 <0> d           0.431   4.087   1.268  0.00  0.00    -0.069 C 
ATOM     17  H12 <0> d           0.416   5.187   1.274  0.00  0.00     0.028 H 
ATOM     18  H13 <0> d           0.964   3.723   2.160  0.00  0.00     0.028 H 
ATOM     19  H14 <0> d          -0.600   3.706   1.276  0.00  0.00     0.028 H 
ENDBRANCH  10  16
ENDBRANCH   5  10
BRANCH   6  20
ATOM     20  O1  <0> d           3.548   2.104  -0.021  0.00  0.00    -0.360 OA
ATOM     21  H7  <0> d           3.534   3.204  -0.015  0.00  0.00     0.217 HD
ENDBRANCH   6  20
BRANCH   1  22
ATOM     22  C1  <0> d           3.710  -0.717  -0.037  0.00  0.00    -0.049 C 
ATOM     23  H1  <0> d           3.521  -1.800  -0.040  0.00  0.00     0.033 H 
ATOM     24  H2  <0> d           4.292  -0.449   0.858  0.00  0.00     0.033 H 
ATOM     25  H3  <0> d           4.275  -0.440  -0.939  0.00  0.00     0.033 H 
ENDBRANCH   1  22
TORSDOF 5
