REMARK  3 active torsions:
REMARK  status: ('A' for Active; 'I' for Inactive)
REMARK    1  A    between atoms: C1_1  and  C2_2 
REMARK    2  A    between atoms: C2_2  and  C3_3 
REMARK    3  A    between atoms: C4_5  and  C7_11 
ROOT
ATOM      1  C3  <0> d           1.214   2.092   0.002  0.00  0.00     0.028 C 
ATOM      2  H1  <0> d           1.952   1.724   0.714  0.00  0.00     0.055 H 
ATOM      3  C4  <0> d           0.685   3.479   0.433  0.00  0.00    -0.030 C 
ATOM      4  H2  <0> d           0.782   3.616   1.510  0.00  0.00     0.043 H 
ATOM      5  C5  <0> d          -0.800   3.394   0.017  0.00  0.00    -0.001 C 
ATOM      6  N1  <0> d          -1.127   1.963   0.018  0.00  0.00    -0.360 N 
ATOM      7  C6  <0> d          -0.014   1.209   0.009  0.00  0.00     0.222 C 
ATOM      8  O1  <0> d           0.002  -0.004   0.002  0.00  0.00    -0.273 OA
ATOM      9  H8  <0> d          -1.424   3.926   0.736  0.00  0.00     0.064 H 
ATOM     10  H9  <0> d          -0.936   3.810  -0.981  0.00  0.00     0.064 H 
ATOM     11  H10 <0> d          -2.029   1.608   0.025  0.00  0.00     0.162 HD
ENDROOT
BRANCH   1  12
ATOM     12  C2  <0> d           1.815   2.161  -1.403  0.00  0.00    -0.057 C 
ATOM     13  H6  <0> d           1.046   2.464  -2.114  0.00  0.00     0.033 H 
ATOM     14  H7  <0> d           2.627   2.889  -1.415  0.00  0.00     0.033 H 
BRANCH  12  15
ATOM     15  C1  <0> d           2.358   0.785  -1.794  0.00  0.00    -0.076 C 
ATOM     16  H3  <0> d           1.546   0.058  -1.782  0.00  0.00     0.027 H 
ATOM     17  H4  <0> d           2.787   0.834  -2.795  0.00  0.00     0.027 H 
ATOM     18  H5  <0> d           3.127   0.483  -1.084  0.00  0.00     0.027 H 
ENDBRANCH  12  15
ENDBRANCH   1  12
BRANCH   3  19
ATOM     19  C7  <0> d           1.403   4.598  -0.325  0.00  0.00    -0.071 C 
ATOM     20  H11 <0> d           1.235   4.478  -1.395  0.00  0.00     0.028 H 
ATOM     21  H12 <0> d           1.012   5.564  -0.002  0.00  0.00     0.028 H 
ATOM     22  H13 <0> d           2.472   4.551  -0.116  0.00  0.00     0.028 H 
ENDBRANCH   3  19
TORSDOF 3
