REMARK  3 active torsions:
REMARK  status: ('A' for Active; 'I' for Inactive)
REMARK    1  A    between atoms: C1_1  and  N1_2 
REMARK    2  A    between atoms: N1_2  and  C2_3 
REMARK       I    between atoms: N1_2  and  C4_6 
REMARK    3  A    between atoms: C2_3  and  C3_4 
REMARK       I    between atoms: C4_6  and  N2_8 
ROOT
ATOM      1  N1  <0> d           0.002  -0.004   0.002  0.00  0.00    -0.329 N 
ATOM      2  C4  <0> d          -0.016   1.344   0.009  0.00  0.00     0.316 C 
ATOM      3  O2  <0> d           1.028   1.966   0.003  0.00  0.00    -0.247 OA
ATOM      4  N2  <0> d          -1.192   2.002   0.019  0.00  0.00    -0.352 N 
ATOM      5  H6  <0> d          -2.026   1.505   0.020  0.00  0.00     0.160 HD
ATOM      6  H7  <0> d          -1.206   2.971   0.024  0.00  0.00     0.160 HD
ENDROOT
BRANCH   1   7
ATOM      7  C1  <0> d          -1.256  -0.754   0.010  0.00  0.00    -0.014 C 
ATOM      8  H1  <0> d          -1.579  -0.934  -1.016  0.00  0.00     0.056 H 
ATOM      9  H2  <0> d          -1.108  -1.707   0.517  0.00  0.00     0.056 H 
ATOM     10  H3  <0> d          -2.019  -0.178   0.534  0.00  0.00     0.056 H 
ENDBRANCH   1   7
BRANCH   1  11
ATOM     11  C2  <0> d           1.281  -0.719  -0.014  0.00  0.00     0.079 C 
ATOM     12  H4  <0> d           1.158  -1.671  -0.532  0.00  0.00     0.081 H 
ATOM     13  H5  <0> d           2.027  -0.117  -0.532  0.00  0.00     0.081 H 
BRANCH  11  14
ATOM     14  C3  <0> d           1.732  -0.972   1.401  0.00  0.00     0.191 C 
ATOM     15  O1  <0> d           1.056  -0.594   2.328  0.00  0.00    -0.647 OA
ATOM     16  O3  <0> d           2.886  -1.618   1.632  0.00  0.00    -0.647 OA
ENDBRANCH  11  14
ENDBRANCH   1  11
TORSDOF 3
