REMARK  4 active torsions:
REMARK  status: ('A' for Active; 'I' for Inactive)
REMARK    1  A    between atoms: C1_1  and  C2_2 
REMARK    2  A    between atoms: C2_2  and  C3_3 
REMARK    3  A    between atoms: C3_3  and  C4_5 
REMARK    4  A    between atoms: C3_3  and  N1_9 
ROOT
ATOM      1  C3  <0> d           0.718  -0.497  -1.257  0.00  0.00     0.222 C 
ATOM      2  H1  <0> d           0.244  -0.064  -2.138  0.00  0.00     0.102 H 
ENDROOT
BRANCH   1   3
ATOM      3  C2  <0> d           0.002  -0.004   0.002  0.00  0.00    -0.031 C 
ATOM      4  H5  <0> d           0.529  -0.365   0.885  0.00  0.00     0.036 H 
ATOM      5  H6  <0> d          -1.020  -0.381   0.010  0.00  0.00     0.036 H 
BRANCH   3   6
ATOM      6  C1  <0> d          -0.019   1.526   0.010  0.00  0.00    -0.074 C 
ATOM      7  H2  <0> d           1.004   1.903   0.003  0.00  0.00     0.027 H 
ATOM      8  H3  <0> d          -0.546   1.887  -0.873  0.00  0.00     0.027 H 
ATOM      9  H4  <0> d          -0.529   1.877   0.907  0.00  0.00     0.027 H 
ENDBRANCH   3   6
ENDBRANCH   1   3
BRANCH   1  10
ATOM     10  C4  <0> d           0.630  -2.023  -1.329  0.00  0.00     0.417 C 
ATOM     11  F1  <0> d          -0.713  -2.411  -1.374  0.00  0.00    -0.169 F 
ATOM     12  F2  <0> d           1.285  -2.474  -2.480  0.00  0.00    -0.169 F 
ATOM     13  F3  <0> d           1.238  -2.579  -0.198  0.00  0.00    -0.169 F 
ENDBRANCH   1  10
BRANCH   1  14
ATOM     14  N1  <0> d           2.129  -0.090  -1.209  0.00  0.00     0.091 N 
ATOM     15  H7  <0> d           2.591  -0.479  -0.401  0.00  0.00     0.313 HD
ATOM     16  H8  <0> d           2.608  -0.348  -2.059  0.00  0.00     0.313 HD
ENDBRANCH   1  14
TORSDOF 4
