REMARK  3 active torsions:
REMARK  status: ('A' for Active; 'I' for Inactive)
REMARK    1  A    between atoms: C1_1  and  C2_2 
REMARK    2  A    between atoms: C5_6  and  C7_9 
REMARK    3  A    between atoms: C6_7  and  N2_8 
ROOT
ATOM      1  C2  <0> d           2.400   0.005  -0.021  0.00  0.00    -0.012 A 
ATOM      2  C3  <0> d           2.341   1.403  -0.013  0.00  0.00     0.070 A 
ATOM      3  C4  <0> d           1.092   2.027   0.003  0.00  0.00     0.023 A 
ATOM      4  N1  <0> d          -0.016   1.314   0.009  0.00  0.00    -0.262 NA
ATOM      5  C5  <0> d           0.002  -0.004   0.002  0.00  0.00     0.057 A 
ATOM      6  C6  <0> d           1.204  -0.704  -0.013  0.00  0.00     0.058 A 
ATOM      7  C8  <0> d           3.542   2.182  -0.020  0.00  0.00     0.101 C 
ATOM      8  N3  <0> d           4.496   2.800  -0.026  0.00  0.00    -0.191 NA
ATOM      9  H4  <0> d           1.033   3.105   0.009  0.00  0.00     0.117 H 
ENDROOT
BRANCH   1  10
ATOM     10  C1  <0> d           3.724  -0.714  -0.038  0.00  0.00    -0.048 C 
ATOM     11  H1  <0> d           4.034  -0.881  -1.069  0.00  0.00     0.033 H 
ATOM     12  H2  <0> d           4.473  -0.108   0.472  0.00  0.00     0.033 H 
ATOM     13  H3  <0> d           3.624  -1.672   0.472  0.00  0.00     0.033 H 
ENDBRANCH   1  10
BRANCH   6  14
ATOM     14  N2  <0> d           1.209  -2.101  -0.020  0.00  0.00    -0.397 N 
ATOM     15  H5  <0> d           0.370  -2.589  -0.015  0.00  0.00     0.156 HD
ATOM     16  H6  <0> d           2.050  -2.583  -0.031  0.00  0.00     0.156 HD
ENDBRANCH   6  14
BRANCH   5  17
ATOM     17  C7  <0> d          -1.299  -0.764   0.011  0.00  0.00    -0.033 C 
ATOM     18  H7  <0> d          -1.623  -0.942  -1.015  0.00  0.00     0.035 H 
ATOM     19  H8  <0> d          -1.159  -1.719   0.518  0.00  0.00     0.035 H 
ATOM     20  H9  <0> d          -2.057  -0.182   0.535  0.00  0.00     0.035 H 
ENDBRANCH   5  17
TORSDOF 3
