REMARK  3 active torsions:
REMARK  status: ('A' for Active; 'I' for Inactive)
REMARK    1  A    between atoms: C2_3  and  S1_6 
REMARK    2  A    between atoms: S1_6  and  C3_7 
REMARK    3  A    between atoms: C3_7  and  C4_8 
REMARK       I    between atoms: C4_8  and  N4_10 
ROOT
ATOM      1  S1  <0> d           3.799   0.891  -0.030  0.00  0.00    -0.081 SA
ENDROOT
BRANCH   1   2
ATOM      2  C2  <0> d           2.042   0.761  -0.013  0.00  0.00     0.184 A 
ATOM      3  N1  <0> d           1.313  -0.393  -0.013  0.00  0.00    -0.215 NA
ATOM      4  C1  <0> d           0.002  -0.004   0.002  0.00  0.00     0.108 A 
ATOM      5  H1  <0> d          -0.857  -0.516   0.007  0.00  0.00     0.149 H 
ATOM      6  N3  <0> d          -0.016   1.299   0.010  0.00  0.00    -0.166 NA
ATOM      7  N2  <0> d           1.185   1.756   0.001  0.00  0.00    -0.254 N 
ATOM      8  H6  <0> d           1.360   2.842   0.005  0.00  0.00     0.191 HD
ENDBRANCH   1   2
BRANCH   1   9
ATOM      9  C3  <0> d           3.981   2.692  -0.022  0.00  0.00     0.058 C 
ATOM     10  H2  <0> d           3.511   3.104   0.883  0.00  0.00     0.064 H 
ATOM     11  H3  <0> d           3.493   3.114  -0.913  0.00  0.00     0.064 H 
BRANCH   9  12
ATOM     12  C4  <0> d           5.445   3.049  -0.034  0.00  0.00     0.225 C 
ATOM     13  O1  <0> d           6.283   2.172  -0.047  0.00  0.00    -0.273 OA
ATOM     14  N4  <0> d           5.823   4.343  -0.031  0.00  0.00    -0.369 N 
ATOM     15  H4  <0> d           6.892   4.603  -0.040  0.00  0.00     0.159 HD
ATOM     16  H5  <0> d           5.063   5.138  -0.019  0.00  0.00     0.159 HD
ENDBRANCH   9  12
ENDBRANCH   1   9
TORSDOF 3
