REMARK  6 active torsions:
REMARK  status: ('A' for Active; 'I' for Inactive)
REMARK    1  A    between atoms: C1_1  and  C2_2 
REMARK    2  A    between atoms: C2_2  and  C3_3 
REMARK    3  A    between atoms: C3_3  and  C4_5 
REMARK    4  A    between atoms: C3_3  and  N1_6 
REMARK    5  A    between atoms: C5_7  and  C10_12 
REMARK    6  A    between atoms: C8_10  and  C9_11 
ROOT
ATOM      1  N1  <0> d          -1.387  -0.522  -0.091  0.00  0.00    -0.350 N 
ATOM      2  C5  <0> d          -2.370  -0.347   0.837  0.00  0.00     0.008 A 
ATOM      3  C6  <0> d          -3.498  -0.919   0.369  0.00  0.00    -0.060 A 
ATOM      4  C7  <0> d          -3.197  -1.476  -0.890  0.00  0.00    -0.060 A 
ATOM      5  C8  <0> d          -1.899  -1.218  -1.146  0.00  0.00     0.008 A 
ATOM      6  H10 <0> d          -4.455  -0.949   0.869  0.00  0.00     0.086 H 
ATOM      7  H11 <0> d          -3.881  -2.012  -1.531  0.00  0.00     0.086 H 
ENDROOT
BRANCH   1   8
ATOM      8  C3  <0> d          -0.006  -0.046   0.028  0.00  0.00     0.013 C 
ATOM      9  H1  <0> d           0.148   0.377   1.021  0.00  0.00     0.072 H 
BRANCH   8  10
ATOM     10  C2  <0> d           0.957  -1.216  -0.184  0.00  0.00    -0.049 C 
ATOM     11  H5  <0> d           0.712  -2.018   0.513  0.00  0.00     0.035 H 
ATOM     12  H6  <0> d           0.865  -1.582  -1.206  0.00  0.00     0.035 H 
BRANCH  10  13
ATOM     13  C1  <0> d           2.392  -0.747   0.063  0.00  0.00    -0.075 C 
ATOM     14  H2  <0> d           3.078  -1.580  -0.087  0.00  0.00     0.027 H 
ATOM     15  H3  <0> d           2.636   0.056  -0.633  0.00  0.00     0.027 H 
ATOM     16  H4  <0> d           2.483  -0.381   1.086  0.00  0.00     0.027 H 
ENDBRANCH  10  13
ENDBRANCH   8  10
BRANCH   8  17
ATOM     17  C4  <0> d           0.256   1.028  -1.030  0.00  0.00    -0.057 C 
ATOM     18  H7  <0> d           0.026   0.628  -2.018  0.00  0.00     0.030 H 
ATOM     19  H8  <0> d          -0.375   1.894  -0.833  0.00  0.00     0.030 H 
ATOM     20  H9  <0> d           1.304   1.326  -0.993  0.00  0.00     0.030 H 
ENDBRANCH   8  17
ENDBRANCH   1   8
BRANCH   5  21
ATOM     21  C9  <0> d          -1.144  -1.629  -2.383  0.00  0.00    -0.037 C 
ATOM     22  H12 <0> d          -0.753  -2.639  -2.253  0.00  0.00     0.035 H 
ATOM     23  H13 <0> d          -1.814  -1.607  -3.242  0.00  0.00     0.035 H 
ATOM     24  H14 <0> d          -0.317  -0.939  -2.550  0.00  0.00     0.035 H 
ENDBRANCH   5  21
BRANCH   2  25
ATOM     25  C10 <0> d          -2.223   0.366   2.156  0.00  0.00    -0.037 C 
ATOM     26  H15 <0> d          -2.363   1.437   2.008  0.00  0.00     0.035 H 
ATOM     27  H16 <0> d          -2.972  -0.005   2.855  0.00  0.00     0.035 H 
ATOM     28  H17 <0> d          -1.227   0.182   2.559  0.00  0.00     0.035 H 
ENDBRANCH   2  25
TORSDOF 6
