REMARK  4 active torsions:
REMARK  status: ('A' for Active; 'I' for Inactive)
REMARK    1  A    between atoms: C1_1  and  C2_2 
REMARK    2  A    between atoms: C3_3  and  C4_4 
REMARK    3  A    between atoms: C4_4  and  O2_6 
REMARK    4  A    between atoms: O2_6  and  C5_7 
ROOT
ATOM      1  C4  <0> d          -0.017   1.428   0.010  0.00  0.00     0.338 C 
ATOM      2  O1  <0> d           1.027   2.050   0.003  0.00  0.00    -0.249 OA
ENDROOT
BRANCH   1   3
ATOM      3  C3  <0> d           0.002  -0.004   0.002  0.00  0.00     0.002 C 
ATOM      4  C2  <0> d           0.018  -1.178  -0.004  0.00  0.00    -0.100 C 
BRANCH   4   5
ATOM      5  C1  <0> d           0.038  -2.650  -0.013  0.00  0.00    -0.021 C 
ATOM      6  H1  <0> d          -0.985  -3.027  -0.005  0.00  0.00     0.044 H 
ATOM      7  H2  <0> d           0.548  -3.001  -0.909  0.00  0.00     0.044 H 
ATOM      8  H3  <0> d           0.565  -3.011   0.871  0.00  0.00     0.044 H 
ENDBRANCH   4   5
ENDBRANCH   1   3
BRANCH   1   9
ATOM      9  O2  <0> d          -1.194   2.086   0.019  0.00  0.00    -0.316 OA
BRANCH   9  10
ATOM     10  C5  <0> d          -1.137   3.537   0.027  0.00  0.00     0.014 C 
ATOM     11  H4  <0> d          -0.606   3.875   0.916  0.00  0.00     0.067 H 
ATOM     12  H5  <0> d          -0.614   3.885  -0.864  0.00  0.00     0.067 H 
ATOM     13  H6  <0> d          -2.150   3.940   0.034  0.00  0.00     0.067 H 
ENDBRANCH   9  10
ENDBRANCH   1   9
TORSDOF 4
