REMARK  2 active torsions:
REMARK  status: ('A' for Active; 'I' for Inactive)
REMARK    1  A    between atoms: C2_4  and  N4_10 
REMARK    2  A    between atoms: C3_5  and  N3_9 
ROOT
ATOM      1  C1  <0> d          -0.016   1.300   0.009  0.00  0.00     0.069 A 
ATOM      2  N1  <0> d           1.119   2.025   0.002  0.00  0.00    -0.335 N 
ATOM      3  H1  <0> d           1.073   2.994   0.008  0.00  0.00     0.168 HD
ATOM      4  C2  <0> d           2.339   1.403  -0.013  0.00  0.00     0.132 A 
ATOM      5  C3  <0> d           2.381   0.023  -0.021  0.00  0.00     0.140 A 
ATOM      6  C4  <0> d           1.162  -0.685  -0.013  0.00  0.00     0.298 A 
ATOM      7  O1  <0> d           1.159  -1.909  -0.019  0.00  0.00    -0.264 OA
ATOM      8  N2  <0> d           0.002  -0.004   0.002  0.00  0.00    -0.203 NA
ATOM      9  H2  <0> d          -0.966   1.813   0.026  0.00  0.00     0.143 H 
ENDROOT
BRANCH   4  10
ATOM     10  N4  <0> d           3.504   2.142  -0.020  0.00  0.00    -0.383 N 
ATOM     11  H5  <0> d           3.464   3.111  -0.015  0.00  0.00     0.157 HD
ATOM     12  H6  <0> d           4.363   1.693  -0.031  0.00  0.00     0.157 HD
ENDBRANCH   4  10
BRANCH   5  13
ATOM     13  N3  <0> d           3.613  -0.661  -0.036  0.00  0.00    -0.392 N 
ATOM     14  H3  <0> d           4.445  -0.162  -0.042  0.00  0.00     0.156 HD
ATOM     15  H4  <0> d           3.629  -1.631  -0.042  0.00  0.00     0.156 HD
ENDBRANCH   5  13
TORSDOF 2
