REMARK  1 active torsions:
REMARK  status: ('A' for Active; 'I' for Inactive)
REMARK    1  A    between atoms: C1_1  and  N1_2 
ROOT
ATOM      1  N1  <0> d          -1.231   3.368   0.032  0.00  0.00    -0.326 N 
ATOM      2  C2  <0> d          -1.198   2.009   0.019  0.00  0.00     0.019 A 
ATOM      3  C3  <0> d          -0.016   1.347   0.009  0.00  0.00     0.132 A 
ATOM      4  C4  <0> d           1.189   2.066   0.002  0.00  0.00    -0.039 A 
ATOM      5  C5  <0> d           1.152   3.429   0.009  0.00  0.00    -0.014 A 
ATOM      6  C6  <0> d          -0.091   4.084   0.025  0.00  0.00     0.247 A 
ATOM      7  O1  <0> d          -0.138   5.304   0.032  0.00  0.00    -0.268 OA
ATOM      8  F1  <0> d           0.002  -0.004   0.002  0.00  0.00    -0.205 F 
ATOM      9  H4  <0> d          -2.123   1.452   0.020  0.00  0.00     0.116 H 
ATOM     10  H5  <0> d           2.135   1.545  -0.010  0.00  0.00     0.088 H 
ATOM     11  H6  <0> d           2.069   4.000   0.004  0.00  0.00     0.092 H 
ENDROOT
BRANCH   1  12
ATOM     12  C1  <0> d          -2.522   4.061   0.048  0.00  0.00    -0.011 C 
ATOM     13  H1  <0> d          -2.852   4.238  -0.976  0.00  0.00     0.057 H 
ATOM     14  H2  <0> d          -3.258   3.446   0.566  0.00  0.00     0.057 H 
ATOM     15  H3  <0> d          -2.416   5.014   0.566  0.00  0.00     0.057 H 
ENDBRANCH   1  12
TORSDOF 1
