REMARK  1 active torsions:
REMARK  status: ('A' for Active; 'I' for Inactive)
REMARK       I    between atoms: N1_4  and  C5_6 
REMARK    1  A    between atoms: C5_6  and  C6_8 
ROOT
ATOM      1  C6  <0> d           1.280   1.980   0.001  0.00  0.00     0.088 C 
ATOM      2  C7  <0> d           2.412   1.039  -0.015  0.00  0.00     0.068 C 
ATOM      3  N2  <0> d           3.285   0.312  -0.028  0.00  0.00    -0.197 NA
ATOM      4  H9  <0> d           1.321   2.612  -0.887  0.00  0.00     0.069 H 
ATOM      5  H10 <0> d           1.338   2.602   0.893  0.00  0.00     0.069 H 
ENDROOT
BRANCH   1   6
ATOM      6  C5  <0> d          -0.014   1.209   0.009  0.00  0.00     0.232 C 
ATOM      7  N1  <0> d          -1.191   1.867   0.018  0.00  0.00    -0.351 N 
ATOM      8  C3  <0> d          -2.525   1.240   0.021  0.00  0.00    -0.002 C 
ATOM      9  C4  <0> d          -1.355   3.328   0.033  0.00  0.00    -0.002 C 
ATOM     10  C2  <0> d          -3.462   2.306   0.644  0.00  0.00    -0.049 C 
ATOM     11  H5  <0> d          -2.838   1.010  -0.998  0.00  0.00     0.064 H 
ATOM     12  H6  <0> d          -2.519   0.337   0.631  0.00  0.00     0.064 H 
ATOM     13  C1  <0> d          -2.870   3.618   0.064  0.00  0.00    -0.049 C 
ATOM     14  H3  <0> d          -4.491   2.162   0.315  0.00  0.00     0.035 H 
ATOM     15  H4  <0> d          -3.396   2.295   1.732  0.00  0.00     0.035 H 
ATOM     16  H1  <0> d          -3.252   3.802  -0.940  0.00  0.00     0.035 H 
ATOM     17  H2  <0> d          -3.086   4.461   0.720  0.00  0.00     0.035 H 
ATOM     18  H7  <0> d          -0.877   3.745   0.919  0.00  0.00     0.064 H 
ATOM     19  H8  <0> d          -0.915   3.759  -0.866  0.00  0.00     0.064 H 
ATOM     20  O1  <0> d           0.002  -0.004   0.002  0.00  0.00    -0.272 OA
ENDBRANCH   1   6
TORSDOF 1
