REMARK  1 active torsions:
REMARK  status: ('A' for Active; 'I' for Inactive)
REMARK    1  A    between atoms: C3_3  and  C5_6 
ROOT
ATOM      1  C5  <0> d          -0.773   1.600   1.210  0.00  0.00     0.045 C 
ATOM      2  N1  <0> d          -1.960   1.993   0.869  0.00  0.00    -0.293 NA
ATOM      3  C6  <0> d          -2.211   1.823  -0.567  0.00  0.00     0.015 C 
ATOM      4  C7  <0> d          -0.814   1.625  -1.201  0.00  0.00    -0.043 C 
ATOM      5  C8  <0> d          -0.013   1.086   0.008  0.00  0.00    -0.022 C 
ATOM      6  H4  <0> d          -2.688   2.714  -0.976  0.00  0.00     0.067 H 
ATOM      7  H5  <0> d          -2.833   0.945  -0.741  0.00  0.00     0.067 H 
ATOM      8  H6  <0> d          -0.405   2.572  -1.553  0.00  0.00     0.035 H 
ATOM      9  H7  <0> d          -0.849   0.892  -2.007  0.00  0.00     0.035 H 
ATOM     10  H8  <0> d           0.019   0.087   0.036  0.00  0.00     0.042 H 
ATOM     11  H9  <0> d           1.003   1.481   0.000  0.00  0.00     0.042 H 
ENDROOT
BRANCH   1  12
ATOM     12  C3  <0> d          -0.239   1.645   2.574  0.00  0.00     0.029 A 
ATOM     13  C2  <0> d          -0.847   2.093   3.736  0.00  0.00    -0.064 A 
ATOM     14  C1  <0> d          -0.111   2.023   4.894  0.00  0.00    -0.075 A 
ATOM     15  H2  <0> d          -1.855   2.481   3.731  0.00  0.00     0.085 H 
ATOM     16  C4  <0> d           1.152   1.527   4.847  0.00  0.00    -0.044 A 
ATOM     17  H1  <0> d          -0.533   2.357   5.830  0.00  0.00     0.084 H 
ATOM     18  S1  <0> d           1.361   1.132   3.172  0.00  0.00    -0.100 SA
ATOM     19  H3  <0> d           1.855   1.406   5.658  0.00  0.00     0.095 H 
ENDBRANCH   1  12
TORSDOF 1
