REMARK  2 active torsions:
REMARK  status: ('A' for Active; 'I' for Inactive)
REMARK    1  A    between atoms: C1_1  and  C2_2 
REMARK    2  A    between atoms: C2_2  and  N1_3 
ROOT
ATOM      1  N1  <0> d          -2.233   4.067   0.044  0.00  0.00    -0.250 N 
ATOM      2  C3  <0> d          -1.230   3.127   0.030  0.00  0.00     0.085 A 
ATOM      3  C4  <0> d          -1.209   1.737   0.017  0.00  0.00    -0.053 A 
ATOM      4  C5  <0> d          -0.013   1.076   0.008  0.00  0.00    -0.081 A 
ATOM      5  C6  <0> d           1.184   1.781   0.000  0.00  0.00    -0.081 A 
ATOM      6  C7  <0> d           1.191   3.145   0.007  0.00  0.00    -0.051 A 
ATOM      7  C8  <0> d          -0.022   3.847   0.022  0.00  0.00     0.109 A 
ATOM      8  N2  <0> d          -0.328   5.160   0.032  0.00  0.00    -0.130 NA
ATOM      9  N3  <0> d          -1.604   5.321   0.044  0.00  0.00    -0.065 NA
ATOM     10  H6  <0> d          -2.135   1.181   0.019  0.00  0.00     0.087 H 
ATOM     11  H7  <0> d           0.002  -0.004   0.002  0.00  0.00     0.083 H 
ATOM     12  H8  <0> d           2.121   1.242  -0.011  0.00  0.00     0.083 H 
ATOM     13  H9  <0> d           2.127   3.682   0.001  0.00  0.00     0.087 H 
ENDROOT
BRANCH   1  14
ATOM     14  C2  <0> d          -3.675   3.810   0.056  0.00  0.00     0.016 C 
ATOM     15  H4  <0> d          -3.872   2.868   0.567  0.00  0.00     0.066 H 
ATOM     16  H5  <0> d          -4.184   4.620   0.578  0.00  0.00     0.066 H 
BRANCH  14  17
ATOM     17  C1  <0> d          -4.191   3.727  -1.382  0.00  0.00    -0.059 C 
ATOM     18  H1  <0> d          -3.994   4.670  -1.893  0.00  0.00     0.029 H 
ATOM     19  H2  <0> d          -3.682   2.917  -1.905  0.00  0.00     0.029 H 
ATOM     20  H3  <0> d          -5.264   3.536  -1.373  0.00  0.00     0.029 H 
ENDBRANCH  14  17
ENDBRANCH   1  14
TORSDOF 2
