REMARK  1 active torsions:
REMARK  status: ('A' for Active; 'I' for Inactive)
REMARK    1  A    between atoms: C2_2  and  C7_9 
REMARK       I    between atoms: C7_9  and  N1_11 
ROOT
ATOM      1  C1  <0> d          -1.248   3.131   0.031  0.00  0.00    -0.030 A 
ATOM      2  C2  <0> d          -0.050   3.848   0.023  0.00  0.00     0.037 A 
ATOM      3  C3  <0> d           1.166   3.164   0.007  0.00  0.00    -0.030 A 
ATOM      4  C4  <0> d           1.179   1.782   0.000  0.00  0.00     0.120 A 
ATOM      5  C5  <0> d          -0.013   1.076   0.008  0.00  0.00    -0.009 A 
ATOM      6  C6  <0> d          -1.223   1.750   0.017  0.00  0.00     0.120 A 
ATOM      7  F1  <0> d          -2.381   1.054   0.019  0.00  0.00    -0.206 F 
ATOM      8  F2  <0> d           2.356   1.119  -0.014  0.00  0.00    -0.206 F 
ATOM      9  H1  <0> d          -2.192   3.655   0.043  0.00  0.00     0.089 H 
ATOM     10  H2  <0> d           2.096   3.714   0.001  0.00  0.00     0.089 H 
ATOM     11  H3  <0> d           0.002  -0.004   0.002  0.00  0.00     0.092 H 
ENDROOT
BRANCH   2  12
ATOM     12  C7  <0> d          -0.070   5.326   0.030  0.00  0.00     0.249 C 
ATOM     13  O1  <0> d           0.974   5.948   0.022  0.00  0.00    -0.268 OA
ATOM     14  N1  <0> d          -1.246   5.984   0.045  0.00  0.00    -0.366 N 
ATOM     15  H4  <0> d          -2.080   5.488   0.051  0.00  0.00     0.159 HD
ATOM     16  H5  <0> d          -1.260   6.954   0.049  0.00  0.00     0.159 HD
ENDBRANCH   2  12
TORSDOF 1
