REMARK  8 active torsions:
REMARK  status: ('A' for Active; 'I' for Inactive)
REMARK    1  A    between atoms: C1_1  and  C2_2 
REMARK    2  A    between atoms: C2_2  and  O1_4 
REMARK    3  A    between atoms: C2_2  and  O2_6 
REMARK    4  A    between atoms: O1_4  and  C3_5 
REMARK    5  A    between atoms: O2_6  and  C4_7 
REMARK    6  A    between atoms: C4_7  and  C5_8 
REMARK    7  A    between atoms: C5_8  and  C6_9 
REMARK    8  A    between atoms: C5_8  and  C7_10 
ROOT
ATOM      1  C4  <0> d          -0.132  -1.940   0.850  0.00  0.00     0.025 C 
ATOM      2  H8  <0> d          -1.128  -2.299   0.593  0.00  0.00     0.075 H 
ATOM      3  H9  <0> d           0.595  -2.352   0.149  0.00  0.00     0.075 H 
ENDROOT
BRANCH   1   4
ATOM      4  O2  <0> d          -0.106  -0.513   0.777  0.00  0.00    -0.361 OA
BRANCH   4   5
ATOM      5  C2  <0> d          -0.545   0.013  -0.477  0.00  0.00     0.127 C 
ATOM      6  H1  <0> d          -1.352  -0.606  -0.869  0.00  0.00     0.128 H 
BRANCH   5   7
ATOM      7  C1  <0> d          -1.048   1.445  -0.282  0.00  0.00    -0.031 C 
ATOM      8  H2  <0> d          -0.240   2.063   0.109  0.00  0.00     0.034 H 
ATOM      9  H3  <0> d          -1.382   1.846  -1.239  0.00  0.00     0.034 H 
ATOM     10  H4  <0> d          -1.880   1.445   0.422  0.00  0.00     0.034 H 
ENDBRANCH   5   7
BRANCH   5  11
ATOM     11  O1  <0> d           0.545   0.013  -1.401  0.00  0.00    -0.367 OA
BRANCH  11  12
ATOM     12  C3  <0> d           0.889  -1.283  -1.895  0.00  0.00     0.007 C 
ATOM     13  H5  <0> d           1.469  -1.181  -2.812  0.00  0.00     0.066 H 
ATOM     14  H6  <0> d           1.482  -1.811  -1.147  0.00  0.00     0.066 H 
ATOM     15  H7  <0> d          -0.021  -1.846  -2.101  0.00  0.00     0.066 H 
ENDBRANCH  11  12
ENDBRANCH   5  11
ENDBRANCH   4   5
ENDBRANCH   1   4
BRANCH   1  16
ATOM     16  C5  <0> d           0.221  -2.385   2.270  0.00  0.00    -0.040 C 
ATOM     17  H10 <0> d          -0.451  -1.901   2.979  0.00  0.00     0.042 H 
BRANCH  16  18
ATOM     18  C6  <0> d           0.073  -3.903   2.381  0.00  0.00    -0.071 C 
ATOM     19  H11 <0> d           0.745  -4.386   1.672  0.00  0.00     0.028 H 
ATOM     20  H12 <0> d           0.324  -4.220   3.393  0.00  0.00     0.028 H 
ATOM     21  H13 <0> d          -0.956  -4.186   2.156  0.00  0.00     0.028 H 
ENDBRANCH  16  18
BRANCH  16  22
ATOM     22  C7  <0> d           1.665  -1.989   2.585  0.00  0.00    -0.071 C 
ATOM     23  H14 <0> d           2.337  -2.472   1.876  0.00  0.00     0.028 H 
ATOM     24  H15 <0> d           1.770  -0.907   2.507  0.00  0.00     0.028 H 
ATOM     25  H16 <0> d           1.916  -2.305   3.598  0.00  0.00     0.028 H 
ENDBRANCH  16  22
ENDBRANCH   1  16
TORSDOF 8
