REMARK  2 active torsions:
REMARK  status: ('A' for Active; 'I' for Inactive)
REMARK    1  A    between atoms: C1_1  and  N1_2 
REMARK    2  A    between atoms: N2_6  and  C6_10 
ROOT
ATOM      1  N1  <0> d          -0.842   3.061  -1.174  0.00  0.00     0.190 N 
ATOM      2  C2  <0> d          -0.756   1.595  -1.230  0.00  0.00     0.124 C 
ATOM      3  C3  <0> d          -0.013   1.086   0.008  0.00  0.00    -0.014 C 
ATOM      4  C4  <0> d          -0.733   1.581   1.266  0.00  0.00     0.124 C 
ATOM      5  N2  <0> d          -0.821   3.048   1.226  0.00  0.00     0.190 N 
ATOM      6  C5  <0> d          -1.550   3.501   0.035  0.00  0.00     0.644 C 
ATOM      7  F1  <0> d          -1.633   4.898   0.043  0.00  0.00    -0.147 F 
ATOM      8  F2  <0> d          -2.839   2.958   0.043  0.00  0.00    -0.147 F 
ATOM      9  H4  <0> d          -1.770   1.169  -1.253  0.00  0.00     0.080 H 
ATOM     10  H5  <0> d          -0.212   1.293  -2.138  0.00  0.00     0.080 H 
ATOM     11  H6  <0> d           0.003  -0.014   0.000  0.00  0.00     0.038 H 
ATOM     12  H7  <0> d           1.019   1.467  -0.002  0.00  0.00     0.038 H 
ATOM     13  H8  <0> d          -1.744   1.151   1.302  0.00  0.00     0.080 H 
ATOM     14  H9  <0> d          -0.169   1.269   2.158  0.00  0.00     0.080 H 
ENDROOT
BRANCH   1  15
ATOM     15  C1  <0> d          -1.481   3.597  -2.384  0.00  0.00     0.105 C 
ATOM     16  H1  <0> d          -0.932   3.253  -3.272  0.00  0.00     0.072 H 
ATOM     17  H2  <0> d          -1.468   4.697  -2.348  0.00  0.00     0.072 H 
ATOM     18  H3  <0> d          -2.522   3.244  -2.436  0.00  0.00     0.072 H 
ENDBRANCH   1  15
BRANCH   5  19
ATOM     19  C6  <0> d          -1.438   3.571   2.452  0.00  0.00     0.105 C 
ATOM     20  H10 <0> d          -1.492   4.668   2.396  0.00  0.00     0.072 H 
ATOM     21  H11 <0> d          -0.832   3.277   3.322  0.00  0.00     0.072 H 
ATOM     22  H12 <0> d          -2.453   3.159   2.556  0.00  0.00     0.072 H 
ENDBRANCH   5  19
TORSDOF 2
