REMARK  2 active torsions:
REMARK  status: ('A' for Active; 'I' for Inactive)
REMARK    1  A    between atoms: C1_1  and  C3_8 
REMARK    2  A    between atoms: C2_4  and  N4_7 
REMARK       I    between atoms: C3_8  and  N5_10 
ROOT
ATOM      1  C1  <0> d          -1.123   1.783   0.016  0.00  0.00     0.255 A 
ATOM      2  N1  <0> d          -0.011   0.966   0.007  0.00  0.00    -0.036 NA
ATOM      3  H1  <0> d           1.141   3.990   0.013  0.00  0.00     0.208 HD
ATOM      4  C2  <0> d           1.058   1.797   0.002  0.00  0.00     0.716 A 
ATOM      5  N2  <0> d           0.597   3.034   0.013  0.00  0.00    -0.106 N 
ATOM      6  N3  <0> d          -0.688   3.025   0.025  0.00  0.00    -0.133 NA
ENDROOT
BRANCH   1   7
ATOM      7  C3  <0> d          -2.527   1.348   0.016  0.00  0.00     0.289 C 
ATOM      8  O1  <0> d          -2.796   0.162   0.011  0.00  0.00    -0.264 OA
ATOM      9  N5  <0> d          -3.516   2.264   0.023  0.00  0.00    -0.363 N 
ATOM     10  H4  <0> d          -3.272   3.336   0.028  0.00  0.00     0.159 HD
ATOM     11  H5  <0> d          -4.566   1.938   0.023  0.00  0.00     0.159 HD
ENDBRANCH   1   7
BRANCH   4  12
ATOM     12  N4  <0> d           2.383   1.420  -0.013  0.00  0.00    -0.231 N 
ATOM     13  H2  <0> d           3.172   2.186  -0.017  0.00  0.00     0.174 HD
ATOM     14  H3  <0> d           2.651   0.353  -0.021  0.00  0.00     0.174 HD
ENDBRANCH   4  12
TORSDOF 2
