REMARK  4 active torsions:
REMARK  status: ('A' for Active; 'I' for Inactive)
REMARK    1  A    between atoms: C1_1  and  C2_2 
REMARK    2  A    between atoms: N1_5  and  C5_7 
REMARK    3  A    between atoms: C5_7  and  C6_8 
REMARK    4  A    between atoms: C5_7  and  C7_9 
ROOT
ATOM      1  C2  <0> d          -1.155   1.883   0.017  0.00  0.00     0.052 A 
ATOM      2  C3  <0> d          -0.013   1.076   0.008  0.00  0.00    -0.041 A 
ATOM      3  C4  <0> d           1.071   1.887   0.002  0.00  0.00     0.001 A 
ATOM      4  N1  <0> d           0.630   3.162   0.013  0.00  0.00    -0.277 N 
ATOM      5  N2  <0> d          -0.771   3.134   0.026  0.00  0.00    -0.178 NA
ATOM      6  H4  <0> d           0.002  -0.004   0.002  0.00  0.00     0.088 H 
ATOM      7  H5  <0> d           2.103   1.570  -0.010  0.00  0.00     0.114 H 
ENDROOT
BRANCH   4   8
ATOM      8  C5  <0> d           1.468   4.364   0.011  0.00  0.00     0.027 C 
ATOM      9  H6  <0> d           0.907   5.197  -0.413  0.00  0.00     0.074 H 
BRANCH   8  10
ATOM     10  C6  <0> d           1.877   4.703   1.446  0.00  0.00    -0.056 C 
ATOM     11  H7  <0> d           0.984   4.883   2.045  0.00  0.00     0.030 H 
ATOM     12  H8  <0> d           2.437   3.870   1.870  0.00  0.00     0.030 H 
ATOM     13  H9  <0> d           2.500   5.597   1.444  0.00  0.00     0.030 H 
ENDBRANCH   8  10
BRANCH   8  14
ATOM     14  C7  <0> d           2.720   4.111  -0.830  0.00  0.00    -0.056 C 
ATOM     15  H10 <0> d           2.429   3.869  -1.852  0.00  0.00     0.030 H 
ATOM     16  H11 <0> d           3.344   5.005  -0.832  0.00  0.00     0.030 H 
ATOM     17  H12 <0> d           3.281   3.278  -0.406  0.00  0.00     0.030 H 
ENDBRANCH   8  14
ENDBRANCH   4   8
BRANCH   1  18
ATOM     18  C1  <0> d          -2.581   1.397   0.020  0.00  0.00    -0.034 C 
ATOM     19  H1  <0> d          -2.921   1.274   1.049  0.00  0.00     0.035 H 
ATOM     20  H2  <0> d          -3.214   2.124  -0.487  0.00  0.00     0.035 H 
ATOM     21  H3  <0> d          -2.639   0.440  -0.498  0.00  0.00     0.035 H 
ENDBRANCH   1  18
TORSDOF 4
