REMARK  4 active torsions:
REMARK  status: ('A' for Active; 'I' for Inactive)
REMARK    1  A    between atoms: C1_1  and  C2_2 
REMARK    2  A    between atoms: C2_2  and  C3_3 
REMARK    3  A    between atoms: C2_2  and  C4_4 
REMARK    4  A    between atoms: C5_6  and  N3_9 
ROOT
ATOM      1  C2  <0> d           0.002  -0.004   0.002  0.00  0.00     0.006 C 
ATOM      2  H4  <0> d          -1.020  -0.381   0.010  0.00  0.00     0.051 H 
ENDROOT
BRANCH   1   3
ATOM      3  C1  <0> d          -0.019   1.526   0.010  0.00  0.00    -0.066 C 
ATOM      4  H1  <0> d           1.004   1.903   0.003  0.00  0.00     0.028 H 
ATOM      5  H2  <0> d          -0.546   1.887  -0.873  0.00  0.00     0.028 H 
ATOM      6  H3  <0> d          -0.529   1.877   0.907  0.00  0.00     0.028 H 
ENDBRANCH   1   3
BRANCH   1   7
ATOM      7  C3  <0> d           0.718  -0.497  -1.257  0.00  0.00    -0.066 C 
ATOM      8  H5  <0> d           1.741  -0.120  -1.264  0.00  0.00     0.028 H 
ATOM      9  H6  <0> d           0.733  -1.587  -1.263  0.00  0.00     0.028 H 
ATOM     10  H7  <0> d           0.191  -0.136  -2.140  0.00  0.00     0.028 H 
ENDBRANCH   1   7
BRANCH   1  11
ATOM     11  C4  <0> d           0.731  -0.503   1.223  0.00  0.00     0.193 A 
ATOM     12  O1  <0> d           2.005  -0.237   1.538  0.00  0.00    -0.182 OA
ATOM     13  N2  <0> d           2.263  -0.907   2.763  0.00  0.00     0.070 NA
ATOM     14  C5  <0> d           1.155  -1.523   3.089  0.00  0.00     0.745 A 
ATOM     15  N1  <0> d           0.230  -1.272   2.148  0.00  0.00    -0.038 NA
BRANCH  14  16
ATOM     16  N3  <0> d           0.967  -2.305   4.221  0.00  0.00    -0.229 N 
ATOM     17  H8  <0> d           0.108  -2.724   4.383  0.00  0.00     0.174 HD
ATOM     18  H9  <0> d           1.695  -2.432   4.849  0.00  0.00     0.174 HD
ENDBRANCH  14  16
ENDBRANCH   1  11
TORSDOF 4
