REMARK  4 active torsions:
REMARK  status: ('A' for Active; 'I' for Inactive)
REMARK    1  A    between atoms: C1_1  and  C2_2 
REMARK    2  A    between atoms: C5_5  and  O1_9 
REMARK    3  A    between atoms: C7_7  and  C8_8 
REMARK    4  A    between atoms: O1_9  and  C9_10 
ROOT
ATOM      1  C2  <0> d           1.176   1.783   0.000  0.00  0.00    -0.056 A 
ATOM      2  C3  <0> d          -0.013   1.076   0.008  0.00  0.00    -0.074 A 
ATOM      3  C4  <0> d          -1.218   1.750   0.017  0.00  0.00    -0.050 A 
ATOM      4  C5  <0> d          -1.236   3.137   0.030  0.00  0.00     0.068 A 
ATOM      5  C6  <0> d          -0.043   3.844   0.022  0.00  0.00    -0.045 A 
ATOM      6  C7  <0> d           1.161   3.165   0.007  0.00  0.00    -0.053 A 
ATOM      7  H4  <0> d           0.002  -0.004   0.002  0.00  0.00     0.084 H 
ATOM      8  H5  <0> d          -2.146   1.197   0.019  0.00  0.00     0.087 H 
ATOM      9  H6  <0> d          -0.054   4.924   0.027  0.00  0.00     0.088 H 
ENDROOT
BRANCH   4  10
ATOM     10  O1  <0> d          -2.421   3.802   0.045  0.00  0.00    -0.356 OA
BRANCH  10  11
ATOM     11  C9  <0> d          -3.610   3.009   0.052  0.00  0.00     0.010 C 
ATOM     12  H10 <0> d          -3.619   2.376   0.939  0.00  0.00     0.066 H 
ATOM     13  H11 <0> d          -4.483   3.663   0.064  0.00  0.00     0.066 H 
ATOM     14  H12 <0> d          -3.636   2.384  -0.841  0.00  0.00     0.066 H 
ENDBRANCH  10  11
ENDBRANCH   4  10
BRANCH   6  15
ATOM     15  C8  <0> d           2.457   3.933  -0.002  0.00  0.00    -0.051 C 
ATOM     16  H7  <0> d           2.760   4.122  -1.031  0.00  0.00     0.033 H 
ATOM     17  H8  <0> d           2.322   4.881   0.518  0.00  0.00     0.033 H 
ATOM     18  H9  <0> d           3.228   3.349   0.502  0.00  0.00     0.033 H 
ENDBRANCH   6  15
BRANCH   1  19
ATOM     19  C1  <0> d           2.490   1.045  -0.016  0.00  0.00    -0.051 C 
ATOM     20  H1  <0> d           2.797   0.873  -1.047  0.00  0.00     0.033 H 
ATOM     21  H2  <0> d           3.247   1.641   0.494  0.00  0.00     0.033 H 
ATOM     22  H3  <0> d           2.376   0.089   0.494  0.00  0.00     0.033 H 
ENDBRANCH   1  19
TORSDOF 4
