REMARK  0 active torsions:
REMARK  status: ('A' for Active; 'I' for Inactive)
ROOT
ATOM      1  C1  <0> d           1.169   2.088   0.002  0.00  0.00    -0.082 A 
ATOM      2  C2  <0> d           2.376   1.413  -0.013  0.00  0.00    -0.081 A 
ATOM      3  C3  <0> d           2.400   0.035  -0.021  0.00  0.00    -0.057 A 
ATOM      4  C4  <0> d           1.206  -0.691  -0.013  0.00  0.00     0.034 A 
ATOM      5  C5  <0> d           0.002  -0.004   0.002  0.00  0.00    -0.030 A 
ATOM      6  C6  <0> d          -0.017   1.377   0.010  0.00  0.00    -0.075 A 
ATOM      7  C7  <0> d          -1.126  -1.011   0.008  0.00  0.00    -0.024 A 
ATOM      8  C8  <0> d          -0.422  -2.378  -0.006  0.00  0.00    -0.004 A 
ATOM      9  N1  <0> d           1.011  -2.073  -0.018  0.00  0.00    -0.389 N 
ATOM     10  H1  <0> d           1.153   3.168   0.008  0.00  0.00     0.083 H 
ATOM     11  H2  <0> d           3.303   1.967  -0.018  0.00  0.00     0.083 H 
ATOM     12  H3  <0> d           3.345  -0.487  -0.033  0.00  0.00     0.086 H 
ATOM     13  H4  <0> d          -0.960   1.903   0.017  0.00  0.00     0.084 H 
ATOM     14  H5  <0> d          -1.728  -0.903   0.910  0.00  0.00     0.042 H 
ATOM     15  H6  <0> d          -1.746  -0.893  -0.881  0.00  0.00     0.042 H 
ATOM     16  H7  <0> d          -0.698  -2.936  -0.901  0.00  0.00     0.064 H 
ATOM     17  H8  <0> d          -0.680  -2.947   0.888  0.00  0.00     0.064 H 
ATOM     18  H9  <0> d           1.720  -2.734  -0.028  0.00  0.00     0.159 HD
ENDROOT
TORSDOF 0
