REMARK  2 active torsions:
REMARK  status: ('A' for Active; 'I' for Inactive)
REMARK    1  A    between atoms: C1_1  and  N1_2 
REMARK    2  A    between atoms: C4_6  and  C5_8 
ROOT
ATOM      1  N1  <0> d           0.002  -0.004   0.002  0.00  0.00    -0.242 N 
ATOM      2  C2  <0> d          -1.101  -0.780   0.003  0.00  0.00     0.245 A 
ATOM      3  O1  <0> d          -2.256  -0.413   0.011  0.00  0.00    -0.271 OA
ATOM      4  C3  <0> d          -0.590  -2.207  -0.008  0.00  0.00     0.059 A 
ATOM      5  C4  <0> d           0.916  -2.049  -0.014  0.00  0.00     0.139 A 
ATOM      6  N2  <0> d           1.162  -0.773  -0.014  0.00  0.00    -0.167 NA
ATOM      7  H4  <0> d          -0.916  -2.737   0.887  0.00  0.00     0.057 H 
ATOM      8  H5  <0> d          -0.925  -2.727  -0.905  0.00  0.00     0.057 H 
ENDROOT
BRANCH   1   9
ATOM      9  C1  <0> d          -0.018   1.461   0.010  0.00  0.00     0.005 C 
ATOM     10  H1  <0> d           1.005   1.838   0.002  0.00  0.00     0.059 H 
ATOM     11  H2  <0> d          -0.545   1.822  -0.873  0.00  0.00     0.059 H 
ATOM     12  H3  <0> d          -0.528   1.812   0.907  0.00  0.00     0.059 H 
ENDBRANCH   1   9
BRANCH   5  13
ATOM     13  C5  <0> d           1.905  -3.127  -0.025  0.00  0.00     0.226 C 
ATOM     14  O2  <0> d           3.100  -2.861  -0.029  0.00  0.00    -0.643 OA
ATOM     15  O3  <0> d           1.538  -4.295  -0.029  0.00  0.00    -0.643 OA
ENDBRANCH   5  13
TORSDOF 2
