REMARK  0 active torsions:
REMARK  status: ('A' for Active; 'I' for Inactive)
ROOT
ATOM      1  C1  <0> d           2.261   0.779  -0.015  0.00  0.00    -0.007 A 
ATOM      2  C2  <0> d           1.728   2.002  -0.004  0.00  0.00     0.006 A 
ATOM      3  S1  <0> d          -0.021   1.669   0.011  0.00  0.00     0.142 S 
ATOM      4  O1  <0> d          -0.447   2.015  -1.300  0.00  0.00    -0.231 OA
ATOM      5  N1  <0> d           0.002  -0.004   0.002  0.00  0.00    -0.269 N 
ATOM      6  H1  <0> d          -0.943  -0.567   0.008  0.00  0.00     0.180 HD
ATOM      7  C3  <0> d           1.312  -0.319  -0.012  0.00  0.00     0.253 A 
ATOM      8  O2  <0> d           1.683  -1.477  -0.022  0.00  0.00    -0.268 OA
ATOM      9  H2  <0> d           3.354   0.656  -0.026  0.00  0.00     0.093 H 
ATOM     10  H3  <0> d           2.381   2.887  -0.005  0.00  0.00     0.101 H 
ENDROOT
TORSDOF 0
