REMARK  0 active torsions:
REMARK  status: ('A' for Active; 'I' for Inactive)
ROOT
ATOM      1  C1  <0> d          -1.359   1.763   0.018  0.00  0.00    -0.044 C 
ATOM      2  C2  <0> d          -0.013   1.076   0.008  0.00  0.00    -0.106 C 
ATOM      3  C3  <0> d           1.127   1.697   0.000  0.00  0.00    -0.106 C 
ATOM      4  C4  <0> d           1.277   3.202  -0.016  0.00  0.00    -0.044 C 
ATOM      5  C5  <0> d          -0.049   3.782  -0.473  0.00  0.00    -0.025 C 
ATOM      6  H1  <0> d          -0.254   3.501  -1.506  0.00  0.00     0.044 H 
ATOM      7  C6  <0> d          -1.133   3.192   0.485  0.00  0.00    -0.025 C 
ATOM      8  H2  <0> d          -0.809   3.225   1.525  0.00  0.00     0.044 H 
ATOM      9  C7  <0> d          -2.280   4.170   0.210  0.00  0.00     0.024 C 
ATOM     10  O1  <0> d          -1.626   5.459   0.123  0.00  0.00    -0.390 OA
ATOM     11  C8  <0> d          -0.245   5.280  -0.255  0.00  0.00     0.024 C 
ATOM     12  H3  <0> d          -1.785   1.760  -0.985  0.00  0.00     0.039 H 
ATOM     13  H4  <0> d          -2.031   1.252   0.708  0.00  0.00     0.039 H 
ATOM     14  H5  <0> d           0.002  -0.004   0.002  0.00  0.00     0.076 H 
ATOM     15  H6  <0> d           2.027   1.100   0.006  0.00  0.00     0.076 H 
ATOM     16  H7  <0> d           1.514   3.562   0.985  0.00  0.00     0.039 H 
ATOM     17  H8  <0> d           2.066   3.489  -0.711  0.00  0.00     0.039 H 
ATOM     18  H9  <0> d          -2.773   3.927  -0.731  0.00  0.00     0.074 H 
ATOM     19  H10 <0> d          -2.998   4.158   1.030  0.00  0.00     0.074 H 
ATOM     20  H11 <0> d           0.410   5.630   0.543  0.00  0.00     0.074 H 
ATOM     21  H12 <0> d          -0.036   5.822  -1.176  0.00  0.00     0.074 H 
ENDROOT
TORSDOF 0
