REMARK  9 active torsions:
REMARK  status: ('A' for Active; 'I' for Inactive)
REMARK    1  A    between atoms: C1_1  and  C2_2 
REMARK    2  A    between atoms: C2_2  and  C3_3 
REMARK    3  A    between atoms: C3_3  and  C4_4 
REMARK    4  A    between atoms: C4_4  and  C5_6 
REMARK    5  A    between atoms: C4_4  and  O2_12 
REMARK    6  A    between atoms: C5_6  and  C6_8 
REMARK    7  A    between atoms: C5_6  and  C8_10 
REMARK    8  A    between atoms: C6_8  and  C7_9 
REMARK    9  A    between atoms: C8_10  and  O1_11 
ROOT
ATOM      1  C4  <0> d          -1.707  -1.959   0.073  0.00  0.00     0.041 C 
ATOM      2  H1  <0> d          -1.012  -2.313   0.834  0.00  0.00     0.083 H 
ENDROOT
BRANCH   1   3
ATOM      3  C3  <0> d          -1.831  -0.436   0.165  0.00  0.00    -0.041 C 
ATOM      4  H8  <0> d          -2.284  -0.165   1.118  0.00  0.00     0.036 H 
ATOM      5  H9  <0> d          -2.456  -0.073  -0.651  0.00  0.00     0.036 H 
BRANCH   3   6
ATOM      6  C2  <0> d          -0.441   0.195   0.062  0.00  0.00    -0.066 C 
ATOM      7  H6  <0> d           0.012  -0.076  -0.892  0.00  0.00     0.032 H 
ATOM      8  H7  <0> d           0.184  -0.168   0.877  0.00  0.00     0.032 H 
BRANCH   6   9
ATOM      9  C1  <0> d          -0.565   1.718   0.153  0.00  0.00    -0.076 C 
ATOM     10  H3  <0> d           0.426   2.167   0.080  0.00  0.00     0.027 H 
ATOM     11  H4  <0> d          -1.190   2.081  -0.662  0.00  0.00     0.027 H 
ATOM     12  H5  <0> d          -1.017   1.989   1.107  0.00  0.00     0.027 H 
ENDBRANCH   6   9
ENDBRANCH   3   6
ENDBRANCH   1   3
BRANCH   1  13
ATOM     13  C5  <0> d          -3.079  -2.596   0.300  0.00  0.00    -0.009 C 
ATOM     14  H2  <0> d          -3.489  -2.249   1.249  0.00  0.00     0.047 H 
BRANCH  13  15
ATOM     15  C6  <0> d          -2.935  -4.119   0.333  0.00  0.00    -0.061 C 
ATOM     16  H10 <0> d          -3.923  -4.576   0.391  0.00  0.00     0.033 H 
ATOM     17  H11 <0> d          -2.432  -4.456  -0.573  0.00  0.00     0.033 H 
BRANCH  15  18
ATOM     18  C7  <0> d          -2.111  -4.527   1.556  0.00  0.00    -0.076 C 
ATOM     19  H12 <0> d          -2.103  -5.614   1.643  0.00  0.00     0.027 H 
ATOM     20  H13 <0> d          -1.089  -4.164   1.443  0.00  0.00     0.027 H 
ATOM     21  H14 <0> d          -2.554  -4.094   2.453  0.00  0.00     0.027 H 
ENDBRANCH  15  18
ENDBRANCH  13  15
BRANCH  13  22
ATOM     22  C8  <0> d          -4.022  -2.197  -0.837  0.00  0.00     0.022 C 
ATOM     23  H15 <0> d          -4.074  -1.111  -0.902  0.00  0.00     0.074 H 
ATOM     24  H16 <0> d          -3.646  -2.599  -1.778  0.00  0.00     0.074 H 
BRANCH  22  25
ATOM     25  O1  <0> d          -5.326  -2.723  -0.582  0.00  0.00    -0.400 OA
ATOM     26  H17 <0> d          -5.976  -2.509  -1.264  0.00  0.00     0.209 HD
ENDBRANCH  22  25
ENDBRANCH  13  22
ENDBRANCH   1  13
BRANCH   1  27
ATOM     27  O2  <0> d          -1.222  -2.320  -1.221  0.00  0.00    -0.395 OA
ATOM     28  H18 <0> d          -1.793  -2.036  -1.949  0.00  0.00     0.210 HD
ENDBRANCH   1  27
TORSDOF 9
