REMARK  3 active torsions:
REMARK  status: ('A' for Active; 'I' for Inactive)
REMARK    1  A    between atoms: C1_1  and  O1_2 
REMARK    2  A    between atoms: O1_2  and  C2_3 
REMARK    3  A    between atoms: C2_3  and  C3_5 
ROOT
ATOM      1  C3  <0> d          -0.669   1.535  -1.214  0.00  0.00     0.217 C 
ATOM      2  H1  <0> d          -1.092   2.537  -1.049  0.00  0.00     0.104 H 
ATOM      3  C4  <0> d           0.456   1.470  -2.278  0.00  0.00     0.003 C 
ATOM      4  C5  <0> d           1.718   1.853  -1.471  0.00  0.00     0.106 C 
ATOM      5  H2  <0> d           2.648   1.379  -1.819  0.00  0.00     0.094 H 
ATOM      6  C6  <0> d           1.362   1.554  -0.003  0.00  0.00     0.140 C 
ATOM      7  N1  <0> d          -0.012   1.005   0.008  0.00  0.00     0.100 N 
ATOM      8  F1  <0> d           2.005   3.212  -1.633  0.00  0.00    -0.248 F 
ATOM      9  H6  <0> d           0.511   0.453  -2.692  0.00  0.00     0.041 H 
ATOM     10  H7  <0> d           0.238   2.184  -3.086  0.00  0.00     0.041 H 
ATOM     11  H8  <0> d           2.075   0.823   0.406  0.00  0.00     0.084 H 
ATOM     12  H9  <0> d           1.413   2.483   0.584  0.00  0.00     0.084 H 
ATOM     13  H10 <0> d          -0.568   1.338   0.896  0.00  0.00     0.317 HD
ENDROOT
BRANCH   1  14
ATOM     14  C2  <0> d          -1.830   0.662  -1.615  0.00  0.00     0.292 C 
ATOM     15  O2  <0> d          -1.912  -0.466  -1.192  0.00  0.00    -0.263 OA
BRANCH  14  16
ATOM     16  O1  <0> d          -2.774   1.139  -2.442  0.00  0.00    -0.325 OA
BRANCH  16  17
ATOM     17  C1  <0> d          -3.864   0.243  -2.785  0.00  0.00     0.013 C 
ATOM     18  H3  <0> d          -4.560   0.756  -3.464  0.00  0.00     0.067 H 
ATOM     19  H4  <0> d          -4.396  -0.054  -1.870  0.00  0.00     0.067 H 
ATOM     20  H5  <0> d          -3.460  -0.652  -3.282  0.00  0.00     0.067 H 
ENDBRANCH  16  17
ENDBRANCH  14  16
ENDBRANCH   1  14
TORSDOF 3
