REMARK  3 active torsions:
REMARK  status: ('A' for Active; 'I' for Inactive)
REMARK    1  A    between atoms: C1_1  and  C2_2 
REMARK    2  A    between atoms: C5_7  and  C7_9 
REMARK    3  A    between atoms: C5_7  and  C8_10 
ROOT
ATOM      1  C2  <0> d           0.002  -0.004   0.002  0.00  0.00    -0.075 C 
ATOM      2  C3  <0> d          -0.016   1.323   0.009  0.00  0.00    -0.008 C 
ATOM      3  C4  <0> d           1.251   2.076   0.001  0.00  0.00     0.283 C 
ATOM      4  O1  <0> d           1.268   3.281  -0.163  0.00  0.00    -0.260 OA
ATOM      5  O2  <0> d           2.399   1.375   0.183  0.00  0.00    -0.307 OA
ATOM      6  C5  <0> d           2.436   0.097  -0.518  0.00  0.00     0.067 C 
ATOM      7  C6  <0> d           1.291  -0.779  -0.005  0.00  0.00    -0.016 C 
ATOM      8  H4  <0> d          -0.958   1.851   0.017  0.00  0.00     0.093 H 
ATOM      9  H5  <0> d           1.517  -1.112   1.007  0.00  0.00     0.044 H 
ATOM     10  H6  <0> d           1.184  -1.649  -0.653  0.00  0.00     0.044 H 
ENDROOT
BRANCH   6  11
ATOM     11  C7  <0> d           3.772  -0.598  -0.250  0.00  0.00    -0.047 C 
ATOM     12  H7  <0> d           3.792  -1.558  -0.765  0.00  0.00     0.031 H 
ATOM     13  H8  <0> d           4.587   0.028  -0.616  0.00  0.00     0.031 H 
ATOM     14  H9  <0> d           3.890  -0.757   0.822  0.00  0.00     0.031 H 
ENDBRANCH   6  11
BRANCH   6  15
ATOM     15  C8  <0> d           2.271   0.329  -2.022  0.00  0.00    -0.047 C 
ATOM     16  H10 <0> d           1.320   0.828  -2.210  0.00  0.00     0.031 H 
ATOM     17  H11 <0> d           3.087   0.953  -2.385  0.00  0.00     0.031 H 
ATOM     18  H12 <0> d           2.287  -0.630  -2.541  0.00  0.00     0.031 H 
ENDBRANCH   6  15
BRANCH   1  19
ATOM     19  C1  <0> d          -1.305  -0.755   0.001  0.00  0.00    -0.054 C 
ATOM     20  H1  <0> d          -2.132  -0.045   0.006  0.00  0.00     0.033 H 
ATOM     21  H2  <0> d          -1.366  -1.376  -0.892  0.00  0.00     0.033 H 
ATOM     22  H3  <0> d          -1.362  -1.386   0.887  0.00  0.00     0.033 H 
ENDBRANCH   1  19
TORSDOF 3
