REMARK  1 active torsions:
REMARK  status: ('A' for Active; 'I' for Inactive)
REMARK    1  A    between atoms: C4_5  and  C5_6 
ROOT
ATOM      1  C1  <0> d           2.250   1.026  -0.014  0.00  0.00    -0.039 A 
ATOM      2  C2  <0> d           1.325   2.059   0.001  0.00  0.00     0.052 A 
ATOM      3  C3  <0> d          -0.021   1.729   0.011  0.00  0.00    -0.024 A 
ATOM      4  S1  <0> d           0.002  -0.004   0.002  0.00  0.00    -0.094 SA
ATOM      5  C4  <0> d           1.767  -0.256  -0.016  0.00  0.00     0.082 A 
ATOM      6  C6  <0> d           1.748   3.427   0.003  0.00  0.00     0.100 C 
ATOM      7  N1  <0> d           2.084   4.512   0.006  0.00  0.00    -0.191 NA
ATOM      8  H1  <0> d           3.311   1.225  -0.023  0.00  0.00     0.088 H 
ATOM      9  H2  <0> d          -0.876   2.390   0.019  0.00  0.00     0.097 H 
ENDROOT
BRANCH   5  10
ATOM     10  C5  <0> d           2.513  -1.517  -0.030  0.00  0.00     0.216 C 
ATOM     11  O1  <0> d           3.729  -1.504  -0.042  0.00  0.00    -0.643 OA
ATOM     12  O2  <0> d           1.852  -2.692  -0.030  0.00  0.00    -0.643 OA
ENDBRANCH   5  10
TORSDOF 1
