REMARK  3 active torsions:
REMARK  status: ('A' for Active; 'I' for Inactive)
REMARK    1  A    between atoms: C1_1  and  O1_2 
REMARK    2  A    between atoms: O1_2  and  C2_3 
REMARK    3  A    between atoms: C6_8  and  O2_11 
ROOT
ATOM      1  C2  <0> d           0.002  -0.004   0.002  0.00  0.00     0.040 C 
ATOM      2  H1  <0> d           0.529  -0.365   0.885  0.00  0.00     0.083 H 
ATOM      3  C3  <0> d           0.718  -0.497  -1.257  0.00  0.00    -0.041 C 
ATOM      4  C4  <0> d           2.154   0.032  -1.268  0.00  0.00    -0.060 C 
ATOM      5  C5  <0> d           2.133   1.562  -1.259  0.00  0.00    -0.041 C 
ATOM      6  C6  <0> d           1.417   2.055  -0.000  0.00  0.00     0.038 C 
ATOM      7  H2  <0> d           1.402   3.145   0.006  0.00  0.00     0.083 H 
ATOM      8  C7  <0> d          -0.019   1.526   0.010  0.00  0.00    -0.017 C 
ATOM      9  H6  <0> d           0.733  -1.587  -1.263  0.00  0.00     0.036 H 
ATOM     10  H7  <0> d           0.191  -0.136  -2.140  0.00  0.00     0.036 H 
ATOM     11  H8  <0> d           2.681  -0.329  -0.385  0.00  0.00     0.033 H 
ATOM     12  H9  <0> d           2.664  -0.319  -2.164  0.00  0.00     0.033 H 
ATOM     13  H10 <0> d           3.155   1.939  -1.267  0.00  0.00     0.036 H 
ATOM     14  H11 <0> d           1.606   1.923  -2.142  0.00  0.00     0.036 H 
ATOM     15  H12 <0> d          -0.546   1.887  -0.873  0.00  0.00     0.040 H 
ATOM     16  H13 <0> d          -0.529   1.877   0.907  0.00  0.00     0.040 H 
ENDROOT
BRANCH   1  17
ATOM     17  O1  <0> d          -1.339  -0.499   0.012  0.00  0.00    -0.391 OA
BRANCH  17  18
ATOM     18  C1  <0> d          -1.486  -1.764   0.659  0.00  0.00     0.004 C 
ATOM     19  H3  <0> d          -2.532  -2.070   0.625  0.00  0.00     0.066 H 
ATOM     20  H4  <0> d          -0.873  -2.507   0.149  0.00  0.00     0.066 H 
ATOM     21  H5  <0> d          -1.167  -1.680   1.698  0.00  0.00     0.066 H 
ENDBRANCH  17  18
ENDBRANCH   1  17
BRANCH   6  22
ATOM     22  O2  <0> d           2.108   1.582   1.157  0.00  0.00    -0.395 OA
ATOM     23  H14 <0> d           3.026   1.879   1.216  0.00  0.00     0.210 HD
ENDBRANCH   6  22
TORSDOF 3
