REMARK  0 active torsions:
REMARK  status: ('A' for Active; 'I' for Inactive)
ROOT
ATOM      1  C1  <0> d           1.823  -2.278  -2.215  0.00  0.00    -0.064 C 
ATOM      2  C2  <0> d           2.844  -1.284  -1.535  0.00  0.00    -0.061 C 
ATOM      3  C3  <0> d           2.017   0.012  -1.427  0.00  0.00    -0.046 C 
ATOM      4  H1  <0> d           2.251   0.720  -2.222  0.00  0.00     0.041 H 
ATOM      5  C4  <0> d           0.503  -0.382  -1.425  0.00  0.00    -0.040 C 
ATOM      6  H2  <0> d          -0.066   0.116  -2.210  0.00  0.00     0.041 H 
ATOM      7  C5  <0> d           0.472  -1.918  -1.549  0.00  0.00    -0.061 C 
ATOM      8  C6  <0> d           0.002  -0.004   0.002  0.00  0.00     0.008 C 
ATOM      9  H3  <0> d          -0.849  -0.492   0.197  0.00  0.00     0.052 H 
ATOM     10  C7  <0> d           1.291  -0.287   0.850  0.00  0.00    -0.051 C 
ATOM     11  C8  <0> d           2.246   0.616  -0.008  0.00  0.00    -0.043 C 
ATOM     12  H4  <0> d           3.282   0.678   0.324  0.00  0.00     0.041 H 
ATOM     13  C9  <0> d           1.443   1.953  -0.001  0.00  0.00    -0.006 C 
ATOM     14  C10 <0> d          -0.019   1.531   0.011  0.00  0.00     0.131 C 
ATOM     15  O1  <0> d          -0.989   2.250   0.019  0.00  0.00    -0.298 OA
ATOM     16  H5  <0> d           2.103  -3.307  -1.989  0.00  0.00     0.033 H 
ATOM     17  H6  <0> d           1.777  -2.119  -3.292  0.00  0.00     0.033 H 
ATOM     18  H7  <0> d           3.720  -1.125  -2.164  0.00  0.00     0.033 H 
ATOM     19  H8  <0> d           3.141  -1.630  -0.545  0.00  0.00     0.033 H 
ATOM     20  H9  <0> d           0.398  -2.379  -0.564  0.00  0.00     0.033 H 
ATOM     21  H10 <0> d          -0.359  -2.232  -2.181  0.00  0.00     0.033 H 
ATOM     22  H11 <0> d           1.196   0.074   1.874  0.00  0.00     0.034 H 
ATOM     23  H12 <0> d           1.581  -1.338   0.818  0.00  0.00     0.034 H 
ATOM     24  H13 <0> d           1.676   2.486  -0.815  0.00  0.00     0.044 H 
ATOM     25  H14 <0> d           1.678   2.532   0.892  0.00  0.00     0.044 H 
ENDROOT
TORSDOF 0
