REMARK  5 active torsions:
REMARK  status: ('A' for Active; 'I' for Inactive)
REMARK    1  A    between atoms: C1_1  and  O1_2 
REMARK    2  A    between atoms: O1_2  and  C2_3 
REMARK    3  A    between atoms: C2_3  and  C3_5 
REMARK    4  A    between atoms: C3_5  and  C4_6 
REMARK    5  A    between atoms: C4_6  and  N1_7 
ROOT
ATOM      1  C3  <0> d          -0.753   1.593  -1.232  0.00  0.00     0.032 C 
ATOM      2  H4  <0> d          -0.768   2.693  -1.225  0.00  0.00     0.050 H 
ATOM      3  H5  <0> d          -1.785   1.212  -1.224  0.00  0.00     0.050 H 
ENDROOT
BRANCH   1   4
ATOM      4  C2  <0> d          -0.047   1.107  -2.471  0.00  0.00     0.260 C 
ATOM      5  O2  <0> d           0.945   0.425  -2.374  0.00  0.00    -0.265 OA
BRANCH   4   6
ATOM      6  O1  <0> d          -0.522   1.431  -3.684  0.00  0.00    -0.326 OA
BRANCH   6   7
ATOM      7  C1  <0> d           0.208   0.928  -4.834  0.00  0.00     0.013 C 
ATOM      8  H1  <0> d          -0.284   1.266  -5.758  0.00  0.00     0.067 H 
ATOM      9  H2  <0> d           0.223  -0.171  -4.807  0.00  0.00     0.067 H 
ATOM     10  H3  <0> d           1.240   1.309  -4.809  0.00  0.00     0.067 H 
ENDBRANCH   6   7
ENDBRANCH   4   6
ENDBRANCH   1   4
BRANCH   1  11
ATOM     11  C4  <0> d          -0.013   1.086   0.008  0.00  0.00     0.026 C 
ATOM     12  H6  <0> d           0.002  -0.014   0.002  0.00  0.00     0.068 H 
ATOM     13  H7  <0> d           1.019   1.466   0.000  0.00  0.00     0.068 H 
BRANCH  11  14
ATOM     14  N1  <0> d          -0.698   1.558   1.213  0.00  0.00    -0.262 N 
ATOM     15  N3  <0> d          -1.003   2.889   1.541  0.00  0.00    -0.165 NA
ATOM     16  C6  <0> d          -1.616   2.863   2.696  0.00  0.00     0.107 A 
ATOM     17  N2  <0> d          -1.704   1.600   3.110  0.00  0.00    -0.234 NA
ATOM     18  H9  <0> d          -1.986   3.726   3.229  0.00  0.00     0.149 H 
ATOM     19  C5  <0> d          -1.156   0.804   2.228  0.00  0.00     0.084 A 
ATOM     20  H8  <0> d          -1.084  -0.271   2.302  0.00  0.00     0.146 H 
ENDBRANCH  11  14
ENDBRANCH   1  11
TORSDOF 5
