REMARK  1 active torsions:
REMARK  status: ('A' for Active; 'I' for Inactive)
REMARK    1  A    between atoms: C1_1  and  C2_2 
ROOT
ATOM      1  C2  <0> d          -0.742   1.585  -1.213  0.00  0.00    -0.015 A 
ATOM      2  C3  <0> d          -0.063   1.834  -2.399  0.00  0.00     0.154 A 
ATOM      3  N1  <0> d          -0.722   2.270  -3.455  0.00  0.00    -0.135 NA
ATOM      4  N2  <0> d          -1.988   2.479  -3.434  0.00  0.00    -0.120 NA
ATOM      5  C4  <0> d          -2.718   2.270  -2.351  0.00  0.00     0.221 A 
ATOM      6  O1  <0> d          -4.054   2.505  -2.374  0.00  0.00    -0.168 OA
ATOM      7  C5  <0> d          -2.110   1.804  -1.187  0.00  0.00    -0.019 A 
ATOM      8 Cl1  <0> d           1.650   1.571  -2.491  0.00  0.00    -0.060 Cl
ATOM      9  H4  <0> d          -2.686   1.623  -0.292  0.00  0.00     0.091 H 
ENDROOT
BRANCH   1  10
ATOM     10  C1  <0> d          -0.013   1.086   0.008  0.00  0.00    -0.048 C 
ATOM     11  H1  <0> d           0.002  -0.004   0.002  0.00  0.00     0.033 H 
ATOM     12  H2  <0> d           1.010   1.463   0.000  0.00  0.00     0.033 H 
ATOM     13  H3  <0> d          -0.523   1.437   0.905  0.00  0.00     0.033 H 
ENDBRANCH   1  10
TORSDOF 1
