REMARK  3 active torsions:
REMARK  status: ('A' for Active; 'I' for Inactive)
REMARK    1  A    between atoms: C1_1  and  C2_2 
REMARK    2  A    between atoms: C5_5  and  N1_8 
REMARK       I    between atoms: N1_8  and  C8_9 
REMARK    3  A    between atoms: C8_9  and  C9_11 
ROOT
ATOM      1  C2  <0> d          -0.014  -0.004  -0.005  0.00  0.00    -0.062 A 
ATOM      2  C3  <0> d          -0.183  -0.693  -1.192  0.00  0.00    -0.075 A 
ATOM      3  C4  <0> d          -0.159  -2.074  -1.201  0.00  0.00    -0.057 A 
ATOM      4  C5  <0> d           0.035  -2.771  -0.016  0.00  0.00     0.034 A 
ATOM      5  C6  <0> d           0.205  -2.076   1.175  0.00  0.00    -0.057 A 
ATOM      6  C7  <0> d           0.185  -0.695   1.176  0.00  0.00    -0.075 A 
ATOM      7  H4  <0> d          -0.334  -0.150  -2.114  0.00  0.00     0.084 H 
ATOM      8  H5  <0> d          -0.292  -2.611  -2.128  0.00  0.00     0.086 H 
ATOM      9  H6  <0> d           0.356  -2.616   2.099  0.00  0.00     0.086 H 
ATOM     10  H7  <0> d           0.322  -0.155   2.101  0.00  0.00     0.084 H 
ENDROOT
BRANCH   4  11
ATOM     11  N1  <0> d           0.059  -4.170  -0.021  0.00  0.00    -0.328 N 
ATOM     12  C8  <0> d           0.555  -4.831  -1.085  0.00  0.00     0.218 C 
ATOM     13  O1  <0> d           1.068  -4.216  -1.996  0.00  0.00    -0.274 OA
ATOM     14  H8  <0> d          -0.282  -4.663   0.741  0.00  0.00     0.169 HD
BRANCH  12  15
ATOM     15  C9  <0> d           0.473  -6.335  -1.143  0.00  0.00    -0.003 C 
ATOM     16  H9  <0> d          -0.460  -6.629  -1.625  0.00  0.00     0.040 H 
ATOM     17  H10 <0> d           1.316  -6.723  -1.715  0.00  0.00     0.040 H 
ATOM     18  H11 <0> d           0.502  -6.740  -0.132  0.00  0.00     0.040 H 
ENDBRANCH  12  15
ENDBRANCH   4  11
BRANCH   1  19
ATOM     19  C1  <0> d          -0.040   1.502   0.001  0.00  0.00    -0.051 C 
ATOM     20  H1  <0> d           0.969   1.884  -0.158  0.00  0.00     0.033 H 
ATOM     21  H2  <0> d          -0.692   1.858  -0.797  0.00  0.00     0.033 H 
ATOM     22  H3  <0> d          -0.415   1.856   0.961  0.00  0.00     0.033 H 
ENDBRANCH   1  19
TORSDOF 3
