REMARK  3 active torsions:
REMARK  status: ('A' for Active; 'I' for Inactive)
REMARK    1  A    between atoms: C1_1  and  C2_2 
REMARK    2  A    between atoms: C2_2  and  O1_3 
REMARK    3  A    between atoms: O1_3  and  C3_4 
REMARK       I    between atoms: C3_4  and  N1_6 
ROOT
ATOM      1  C3  <0> d           3.432   0.853   1.158  0.00  0.00     0.363 C 
ATOM      2  O2  <0> d           4.066   1.887   1.094  0.00  0.00    -0.238 OA
ATOM      3  N1  <0> d           2.184   0.795   0.651  0.00  0.00    -0.321 N 
ATOM      4  C4  <0> d           1.473   1.903  -0.002  0.00  0.00     0.006 C 
ATOM      5  C5  <0> d          -0.018   1.515   0.010  0.00  0.00     0.007 C 
ATOM      6  C6  <0> d           0.002  -0.004   0.002  0.00  0.00     0.146 C 
ATOM      7  O3  <0> d          -0.843  -0.748  -0.435  0.00  0.00    -0.296 OA
ATOM      8  C7  <0> d           1.311  -0.384   0.661  0.00  0.00     0.054 C 
ATOM      9  H6  <0> d           1.822   2.020  -1.028  0.00  0.00     0.065 H 
ATOM     10  H7  <0> d           1.625   2.827   0.555  0.00  0.00     0.065 H 
ATOM     11  H8  <0> d          -0.470   1.902  -0.794  0.00  0.00     0.046 H 
ATOM     12  H9  <0> d          -0.503   1.887   0.913  0.00  0.00     0.046 H 
ATOM     13  H10 <0> d           1.153  -0.674   1.605  0.00  0.00     0.076 H 
ATOM     14  H11 <0> d           1.781  -1.196   0.106  0.00  0.00     0.076 H 
ENDROOT
BRANCH   1  15
ATOM     15  O1  <0> d           3.975  -0.236   1.734  0.00  0.00    -0.304 OA
BRANCH  15  16
ATOM     16  C2  <0> d           5.323  -0.102   2.258  0.00  0.00     0.027 C 
ATOM     17  H4  <0> d           6.001   0.171   1.450  0.00  0.00     0.074 H 
ATOM     18  H5  <0> d           5.339   0.674   3.023  0.00  0.00     0.074 H 
BRANCH  16  19
ATOM     19  C1  <0> d           5.768  -1.431   2.870  0.00  0.00    -0.056 C 
ATOM     20  H1  <0> d           6.779  -1.330   3.263  0.00  0.00     0.030 H 
ATOM     21  H2  <0> d           5.089  -1.704   3.678  0.00  0.00     0.030 H 
ATOM     22  H3  <0> d           5.751  -2.207   2.104  0.00  0.00     0.030 H 
ENDBRANCH  16  19
ENDBRANCH  15  16
ENDBRANCH   1  15
TORSDOF 3
