REMARK  1 active torsions:
REMARK  status: ('A' for Active; 'I' for Inactive)
REMARK    1  A    between atoms: C7_7  and  O1_12 
ROOT
ATOM      1  C1  <0> d          -4.871   1.325   1.384  0.00  0.00    -0.082 A 
ATOM      2  C2  <0> d          -4.141   1.588   2.529  0.00  0.00    -0.081 A 
ATOM      3  C3  <0> d          -2.764   1.665   2.464  0.00  0.00    -0.057 A 
ATOM      4  C4  <0> d          -2.113   1.477   1.250  0.00  0.00     0.036 A 
ATOM      5  C5  <0> d          -2.845   1.210   0.104  0.00  0.00    -0.003 A 
ATOM      6  C6  <0> d          -4.226   1.136   0.177  0.00  0.00    -0.072 A 
ATOM      7  C7  <0> d          -2.174   0.996  -1.227  0.00  0.00     0.064 C 
ATOM      8  H1  <0> d          -2.104  -0.073  -1.424  0.00  0.00     0.090 H 
ATOM      9  C8  <0> d          -0.771   1.602  -1.222  0.00  0.00    -0.022 C 
ATOM     10  C9  <0> d          -0.013   1.086   0.008  0.00  0.00    -0.005 C 
ATOM     11  N1  <0> d          -0.716   1.567   1.205  0.00  0.00    -0.389 N 
ATOM     12  H2  <0> d          -5.948   1.266   1.435  0.00  0.00     0.083 H 
ATOM     13  H3  <0> d          -4.646   1.734   3.472  0.00  0.00     0.083 H 
ATOM     14  H4  <0> d          -2.192   1.870   3.357  0.00  0.00     0.086 H 
ATOM     15  H5  <0> d          -4.802   0.930  -0.713  0.00  0.00     0.084 H 
ATOM     16  H6  <0> d          -0.842   2.689  -1.178  0.00  0.00     0.039 H 
ATOM     17  H7  <0> d          -0.242   1.306  -2.128  0.00  0.00     0.039 H 
ATOM     18  H8  <0> d           0.002  -0.004   0.002  0.00  0.00     0.064 H 
ATOM     19  H9  <0> d           1.008   1.469   0.000  0.00  0.00     0.064 H 
ATOM     20  H10 <0> d          -0.221   1.942   1.950  0.00  0.00     0.159 HD
ENDROOT
BRANCH   7  21
ATOM     21  O1  <0> d          -2.952   1.616  -2.253  0.00  0.00    -0.391 OA
ATOM     22  H11 <0> d          -3.857   1.282  -2.317  0.00  0.00     0.210 HD
ENDBRANCH   7  21
TORSDOF 1
