REMARK  2 active torsions:
REMARK  status: ('A' for Active; 'I' for Inactive)
REMARK    1  A    between atoms: C1_1  and  C2_2 
REMARK    2  A    between atoms: C2_2  and  C7_9 
ROOT
ATOM      1  C2  <0> d           0.002  -0.004   0.002  0.00  0.00     0.034 C 
ATOM      2  C3  <0> d          -1.435  -0.532   0.002  0.00  0.00    -0.049 C 
ATOM      3  C4  <0> d          -2.048  -0.267   1.382  0.00  0.00    -0.049 C 
ATOM      4  C5  <0> d          -1.332  -1.142   2.412  0.00  0.00    -0.005 C 
ATOM      5  N1  <0> d           0.113  -0.987   2.297  0.00  0.00    -0.360 N 
ATOM      6  C6  <0> d           0.729  -0.500   1.219  0.00  0.00     0.225 C 
ATOM      7  O1  <0> d           1.941  -0.456   1.222  0.00  0.00    -0.273 OA
ATOM      8  H4  <0> d          -2.015  -0.016  -0.763  0.00  0.00     0.034 H 
ATOM      9  H5  <0> d          -1.432  -1.603  -0.199  0.00  0.00     0.034 H 
ATOM     10  H6  <0> d          -1.922   0.783   1.643  0.00  0.00     0.035 H 
ATOM     11  H7  <0> d          -3.109  -0.517   1.365  0.00  0.00     0.035 H 
ATOM     12  H8  <0> d          -1.647  -0.850   3.414  0.00  0.00     0.064 H 
ATOM     13  H9  <0> d          -1.597  -2.186   2.245  0.00  0.00     0.064 H 
ATOM     14  H10 <0> d           0.660  -1.254   3.052  0.00  0.00     0.162 HD
ENDROOT
BRANCH   1  15
ATOM     15  C1  <0> d          -0.019   1.526   0.010  0.00  0.00    -0.061 C 
ATOM     16  H1  <0> d           1.004   1.903   0.003  0.00  0.00     0.029 H 
ATOM     17  H2  <0> d          -0.546   1.887  -0.873  0.00  0.00     0.029 H 
ATOM     18  H3  <0> d          -0.529   1.877   0.907  0.00  0.00     0.029 H 
ENDBRANCH   1  15
BRANCH   1  19
ATOM     19  C7  <0> d           0.722  -0.496  -1.255  0.00  0.00    -0.061 C 
ATOM     20  H11 <0> d           1.745  -0.118  -1.260  0.00  0.00     0.029 H 
ATOM     21  H12 <0> d           0.738  -1.585  -1.262  0.00  0.00     0.029 H 
ATOM     22  H13 <0> d           0.198  -0.134  -2.139  0.00  0.00     0.029 H 
ENDBRANCH   1  19
TORSDOF 2
