REMARK  2 active torsions:
REMARK  status: ('A' for Active; 'I' for Inactive)
REMARK    1  A    between atoms: C1_1  and  C2_2 
REMARK    2  A    between atoms: C2_2  and  C5_7 
ROOT
ATOM      1  C2  <0> d          -0.841   1.638  -1.178  0.00  0.00     0.070 C 
ATOM      2  C3  <0> d          -0.013   1.086   0.008  0.00  0.00     0.051 C 
ATOM      3  O1  <0> d          -0.763   1.588   1.133  0.00  0.00    -0.343 OA
ATOM      4  C4  <0> d          -1.436   2.679   0.720  0.00  0.00     0.092 C 
ATOM      5  N1  <0> d          -1.532   2.785  -0.558  0.00  0.00    -0.266 NA
ATOM      6  H4  <0> d           0.002  -0.004   0.002  0.00  0.00     0.079 H 
ATOM      7  H5  <0> d           1.000   1.489   0.001  0.00  0.00     0.079 H 
ATOM      8  H6  <0> d          -1.857   3.403   1.403  0.00  0.00     0.154 H 
ENDROOT
BRANCH   1   9
ATOM      9  C1  <0> d           0.072   2.099  -2.315  0.00  0.00    -0.049 C 
ATOM     10  H1  <0> d           0.669   1.257  -2.667  0.00  0.00     0.031 H 
ATOM     11  H2  <0> d          -0.534   2.483  -3.136  0.00  0.00     0.031 H 
ATOM     12  H3  <0> d           0.734   2.887  -1.954  0.00  0.00     0.031 H 
ENDBRANCH   1   9
BRANCH   1  13
ATOM     13  C5  <0> d          -1.846   0.597  -1.675  0.00  0.00    -0.049 C 
ATOM     14  H7  <0> d          -2.527   0.334  -0.865  0.00  0.00     0.031 H 
ATOM     15  H8  <0> d          -2.415   1.010  -2.508  0.00  0.00     0.031 H 
ATOM     16  H9  <0> d          -1.313  -0.294  -2.005  0.00  0.00     0.031 H 
ENDBRANCH   1  13
TORSDOF 2
