REMARK  4 active torsions:
REMARK  status: ('A' for Active; 'I' for Inactive)
REMARK    1  A    between atoms: C1_1  and  C2_2 
REMARK    2  A    between atoms: C2_2  and  C3_3 
REMARK    3  A    between atoms: C6_6  and  N1_10 
REMARK    4  A    between atoms: C7_7  and  O1_9 
ROOT
ATOM      1  C3  <0> d          -0.718   1.572   1.248  0.00  0.00    -0.056 A 
ATOM      2  C4  <0> d          -0.358   2.779   1.817  0.00  0.00    -0.075 A 
ATOM      3  C5  <0> d          -1.006   3.233   2.951  0.00  0.00    -0.054 A 
ATOM      4  C6  <0> d          -2.011   2.470   3.527  0.00  0.00     0.059 A 
ATOM      5  C7  <0> d          -2.369   1.251   2.956  0.00  0.00     0.092 A 
ATOM      6  C8  <0> d          -1.720   0.806   1.816  0.00  0.00    -0.043 A 
ATOM      7  H6  <0> d           0.428   3.372   1.372  0.00  0.00     0.084 H 
ATOM      8  H7  <0> d          -0.726   4.178   3.391  0.00  0.00     0.087 H 
ATOM      9  H8  <0> d          -1.995  -0.139   1.372  0.00  0.00     0.088 H 
ENDROOT
BRANCH   1  10
ATOM     10  C2  <0> d          -0.013   1.086   0.008  0.00  0.00    -0.044 C 
ATOM     11  H4  <0> d           0.002  -0.004   0.002  0.00  0.00     0.039 H 
ATOM     12  H5  <0> d           1.010   1.463   0.000  0.00  0.00     0.039 H 
BRANCH  10  13
ATOM     13  C1  <0> d          -0.753   1.593  -1.232  0.00  0.00    -0.073 C 
ATOM     14  H1  <0> d          -0.242   1.241  -2.128  0.00  0.00     0.028 H 
ATOM     15  H2  <0> d          -1.775   1.215  -1.224  0.00  0.00     0.028 H 
ATOM     16  H3  <0> d          -0.767   2.683  -1.226  0.00  0.00     0.028 H 
ENDBRANCH  10  13
ENDBRANCH   1  10
BRANCH   5  17
ATOM     17  O1  <0> d          -3.355   0.499   3.516  0.00  0.00    -0.358 OA
ATOM     18  H9  <0> d          -3.041  -0.130   4.180  0.00  0.00     0.217 HD
ENDBRANCH   5  17
BRANCH   4  19
ATOM     19  N1  <0> d          -2.664   2.924   4.679  0.00  0.00    -0.397 N 
ATOM     20  H10 <0> d          -3.367   2.389   5.080  0.00  0.00     0.156 HD
ATOM     21  H11 <0> d          -2.414   3.773   5.075  0.00  0.00     0.156 HD
ENDBRANCH   4  19
TORSDOF 4
