REMARK  4 active torsions:
REMARK  status: ('A' for Active; 'I' for Inactive)
REMARK    1  A    between atoms: C1_1  and  C2_2 
REMARK    2  A    between atoms: C5_5  and  C8_9 
REMARK    3  A    between atoms: C6_6  and  O1_8 
REMARK    4  A    between atoms: C8_9  and  C9_11 
ROOT
ATOM      1  C2  <0> d           2.380   1.426  -0.013  0.00  0.00    -0.059 A 
ATOM      2  C3  <0> d           1.167   2.098   0.002  0.00  0.00    -0.076 A 
ATOM      3  C4  <0> d          -0.017   1.396   0.010  0.00  0.00    -0.066 A 
ATOM      4  C5  <0> d           0.002  -0.004   0.002  0.00  0.00     0.042 A 
ATOM      5  C6  <0> d           1.233  -0.680  -0.013  0.00  0.00     0.080 A 
ATOM      6  C7  <0> d           2.415   0.046  -0.021  0.00  0.00    -0.044 A 
ATOM      7  H4  <0> d           1.152   3.178   0.008  0.00  0.00     0.084 H 
ATOM      8  H5  <0> d          -0.959   1.924   0.017  0.00  0.00     0.085 H 
ATOM      9  H6  <0> d           3.364  -0.469  -0.033  0.00  0.00     0.088 H 
ENDROOT
BRANCH   4  10
ATOM     10  C8  <0> d          -1.256  -0.760   0.009  0.00  0.00     0.158 C 
ATOM     11  O2  <0> d          -1.235  -1.973   0.003  0.00  0.00    -0.293 OA
BRANCH  10  12
ATOM     12  C9  <0> d          -2.574  -0.030   0.025  0.00  0.00    -0.017 C 
ATOM     13  H8  <0> d          -2.645   0.549  -0.787  0.00  0.00     0.038 H 
ATOM     14  H9  <0> d          -3.390  -0.752   0.029  0.00  0.00     0.038 H 
ATOM     15  H10 <0> d          -2.635   0.591   0.919  0.00  0.00     0.038 H 
ENDBRANCH  10  12
ENDBRANCH   4  10
BRANCH   5  16
ATOM     16  O1  <0> d           1.266  -2.036  -0.021  0.00  0.00    -0.360 OA
ATOM     17  H7  <0> d           1.267  -2.424  -0.906  0.00  0.00     0.217 HD
ENDBRANCH   5  16
BRANCH   1  18
ATOM     18  C1  <0> d           3.668   2.207  -0.023  0.00  0.00    -0.051 C 
ATOM     19  H1  <0> d           3.969   2.401  -1.052  0.00  0.00     0.033 H 
ATOM     20  H2  <0> d           3.523   3.154   0.497  0.00  0.00     0.033 H 
ATOM     21  H3  <0> d           4.446   1.632   0.480  0.00  0.00     0.033 H 
ENDBRANCH   1  18
TORSDOF 4
