REMARK  4 active torsions:
REMARK  status: ('A' for Active; 'I' for Inactive)
REMARK    1  A    between atoms: C1_1  and  C2_2 
REMARK    2  A    between atoms: C2_2  and  C3_3 
REMARK    3  A    between atoms: C7_7  and  C9_10 
REMARK    4  A    between atoms: C8_8  and  N1_9 
ROOT
ATOM      1  C3  <0> d           1.169   2.087   0.002  0.00  0.00    -0.032 A 
ATOM      2  C4  <0> d          -0.017   1.378   0.010  0.00  0.00    -0.075 A 
ATOM      3  C5  <0> d           0.002  -0.004   0.002  0.00  0.00    -0.082 A 
ATOM      4  C6  <0> d           1.207  -0.682  -0.013  0.00  0.00    -0.075 A 
ATOM      5  C7  <0> d           2.396   0.020  -0.021  0.00  0.00    -0.035 A 
ATOM      6  C8  <0> d           2.381   1.409  -0.013  0.00  0.00     0.038 A 
ATOM      7  H6  <0> d          -0.960   1.905   0.017  0.00  0.00     0.084 H 
ATOM      8  H7  <0> d          -0.926  -0.555   0.008  0.00  0.00     0.083 H 
ATOM      9  H8  <0> d           1.218  -1.762  -0.019  0.00  0.00     0.084 H 
ENDROOT
BRANCH   1  10
ATOM     10  C2  <0> d           1.148   3.594   0.010  0.00  0.00    -0.042 C 
ATOM     11  H4  <0> d           0.215   3.941   0.456  0.00  0.00     0.039 H 
ATOM     12  H5  <0> d           1.990   3.966   0.594  0.00  0.00     0.039 H 
BRANCH  10  13
ATOM     13  C1  <0> d           1.252   4.113  -1.425  0.00  0.00    -0.073 C 
ATOM     14  H1  <0> d           0.410   3.741  -2.008  0.00  0.00     0.028 H 
ATOM     15  H2  <0> d           1.237   5.203  -1.419  0.00  0.00     0.028 H 
ATOM     16  H3  <0> d           2.185   3.765  -1.870  0.00  0.00     0.028 H 
ENDBRANCH  10  13
ENDBRANCH   1  10
BRANCH   6  17
ATOM     17  N1  <0> d           3.582   2.122  -0.020  0.00  0.00    -0.398 N 
ATOM     18  H9  <0> d           4.428   1.647  -0.030  0.00  0.00     0.156 HD
ATOM     19  H10 <0> d           3.570   3.092  -0.015  0.00  0.00     0.156 HD
ENDBRANCH   6  17
BRANCH   5  20
ATOM     20  C9  <0> d           3.709  -0.720  -0.037  0.00  0.00    -0.049 C 
ATOM     21  H11 <0> d           4.016  -0.894  -1.068  0.00  0.00     0.033 H 
ATOM     22  H12 <0> d           4.467  -0.126   0.473  0.00  0.00     0.033 H 
ATOM     23  H13 <0> d           3.593  -1.677   0.473  0.00  0.00     0.033 H 
ENDBRANCH   5  20
TORSDOF 4
