REMARK  1 active torsions:
REMARK  status: ('A' for Active; 'I' for Inactive)
REMARK    1  A    between atoms: C4_4  and  C8_9 
ROOT
ATOM      1  C1  <0> d          -0.054   4.277   0.026  0.00  0.00    -0.082 A 
ATOM      2  C2  <0> d           1.149   3.594   0.011  0.00  0.00    -0.082 A 
ATOM      3  C3  <0> d           1.166   2.210   0.003  0.00  0.00    -0.075 A 
ATOM      4  C4  <0> d          -0.018   1.503   0.010  0.00  0.00    -0.033 A 
ATOM      5  C5  <0> d          -1.236   2.186   0.020  0.00  0.00     0.051 A 
ATOM      6  C6  <0> d          -1.246   3.582   0.033  0.00  0.00    -0.062 A 
ATOM      7  C7  <0> d          -2.469   1.458   0.022  0.00  0.00     0.100 C 
ATOM      8  N1  <0> d          -3.447   0.881   0.023  0.00  0.00    -0.191 NA
ATOM      9  H1  <0> d          -0.060   5.357   0.032  0.00  0.00     0.083 H 
ATOM     10  H2  <0> d           2.079   4.143   0.005  0.00  0.00     0.083 H 
ATOM     11  H3  <0> d           2.108   1.683  -0.009  0.00  0.00     0.084 H 
ATOM     12  H4  <0> d          -2.184   4.117   0.045  0.00  0.00     0.085 H 
ENDROOT
BRANCH   4  13
ATOM     13  C8  <0> d           0.002  -0.004   0.002  0.00  0.00    -0.027 A 
ATOM     14  C10 <0> d           0.679  -0.695  -1.183  0.00  0.00    -0.057 A 
ATOM     15  C9  <0> d           1.355  -0.693   0.189  0.00  0.00    -0.057 A 
ATOM     16  H8  <0> d           0.249  -1.634  -1.532  0.00  0.00     0.034 H 
ATOM     17  H9  <0> d           1.109  -0.059  -1.958  0.00  0.00     0.034 H 
ATOM     18  H6  <0> d           2.231  -0.057   0.318  0.00  0.00     0.034 H 
ATOM     19  H7  <0> d           1.370  -1.631   0.744  0.00  0.00     0.034 H 
ATOM     20  H5  <0> d          -0.874  -0.488   0.434  0.00  0.00     0.047 H 
ENDBRANCH   4  13
TORSDOF 1
