REMARK  1 active torsions:
REMARK  status: ('A' for Active; 'I' for Inactive)
REMARK    1  A    between atoms: C1_1  and  C2_2 
ROOT
ATOM      1  C2  <0> d           2.032   0.891   0.826  0.00  0.00     0.369 C 
ATOM      2  N1  <0> d           1.174  -0.317   0.854  0.00  0.00     0.155 N 
ATOM      3  C3  <0> d           0.002  -0.004   0.002  0.00  0.00     0.139 C 
ATOM      4  C4  <0> d          -0.019   1.545   0.011  0.00  0.00     0.050 C 
ATOM      5  O1  <0> d           1.388   1.875  -0.001  0.00  0.00    -0.330 OA
ATOM      6  C5  <0> d           1.973  -1.400   0.234  0.00  0.00     0.139 C 
ATOM      7  C6  <0> d           3.427  -0.895   0.416  0.00  0.00     0.050 C 
ATOM      8  O2  <0> d           3.287   0.531   0.223  0.00  0.00    -0.330 OA
ATOM      9  H4  <0> d           0.157  -0.422  -1.003  0.00  0.00     0.083 H 
ATOM     10  H5  <0> d          -0.902  -0.445   0.447  0.00  0.00     0.083 H 
ATOM     11  H6  <0> d          -0.551   1.910  -0.881  0.00  0.00     0.077 H 
ATOM     12  H7  <0> d          -0.534   1.900   0.915  0.00  0.00     0.077 H 
ATOM     13  H8  <0> d           1.782  -2.345   0.763  0.00  0.00     0.083 H 
ATOM     14  H9  <0> d           1.689  -1.507  -0.823  0.00  0.00     0.083 H 
ATOM     15  H10 <0> d           3.782  -1.157   1.424  0.00  0.00     0.077 H 
ATOM     16  H11 <0> d           4.076  -1.367  -0.336  0.00  0.00     0.077 H 
ENDROOT
BRANCH   1  17
ATOM     17  C1  <0> d           2.255   1.420   2.244  0.00  0.00     0.004 C 
ATOM     18  H1  <0> d           2.748   0.647   2.851  0.00  0.00     0.038 H 
ATOM     19  H2  <0> d           1.285   1.678   2.696  0.00  0.00     0.038 H 
ATOM     20  H3  <0> d           2.891   2.317   2.205  0.00  0.00     0.038 H 
ENDBRANCH   1  17
TORSDOF 1
