REMARK  1 active torsions:
REMARK  status: ('A' for Active; 'I' for Inactive)
REMARK    1  A    between atoms: C1_1  and  C2_2 
ROOT
ATOM      1  C2  <0> d           0.002  -0.004   0.002  0.00  0.00    -0.056 A 
ATOM      2  C3  <0> d           0.006  -0.706  -1.193  0.00  0.00    -0.039 A 
ATOM      3  C4  <0> d           0.025  -2.099  -1.160  0.00  0.00     0.138 A 
ATOM      4  N1  <0> d           0.039  -2.747  -0.001  0.00  0.00    -0.226 NA
ATOM      5  C5  <0> d           0.035  -2.105   1.149  0.00  0.00     0.128 A 
ATOM      6  C6  <0> d           0.023  -0.719   1.189  0.00  0.00    -0.038 A 
ATOM      7 Cl1  <0> d           0.053  -3.005   2.633  0.00  0.00    -0.062 Cl
ATOM      8  C7  <0> d           0.029  -2.838  -2.387  0.00  0.00     0.119 C 
ATOM      9  N2  <0> d           0.033  -3.424  -3.360  0.00  0.00    -0.190 NA
ATOM     10  H4  <0> d          -0.006  -0.180  -2.136  0.00  0.00     0.088 H 
ATOM     11  H5  <0> d           0.025  -0.201   2.137  0.00  0.00     0.089 H 
ENDROOT
BRANCH   1  12
ATOM     12  C1  <0> d          -0.018   1.503   0.010  0.00  0.00    -0.051 C 
ATOM     13  H1  <0> d           1.004   1.880   0.003  0.00  0.00     0.033 H 
ATOM     14  H2  <0> d          -0.545   1.864  -0.873  0.00  0.00     0.033 H 
ATOM     15  H3  <0> d          -0.529   1.854   0.907  0.00  0.00     0.033 H 
ENDBRANCH   1  12
TORSDOF 1
