REMARK  3 active torsions:
REMARK  status: ('A' for Active; 'I' for Inactive)
REMARK    1  A    between atoms: C4_5  and  C6_7 
REMARK    2  A    between atoms: C7_8  and  C8_9 
REMARK    3  A    between atoms: C8_9  and  O1_10 
ROOT
ATOM      1  C1  <0> d          -0.017   1.379   0.010  0.00  0.00    -0.079 A 
ATOM      2  C2  <0> d           1.194   2.059   0.002  0.00  0.00    -0.066 A 
ATOM      3  C3  <0> d           2.375   1.341  -0.013  0.00  0.00     0.003 A 
ATOM      4  N1  <0> d           2.366   0.023  -0.021  0.00  0.00    -0.261 NA
ATOM      5  C4  <0> d           1.231  -0.665  -0.014  0.00  0.00     0.056 A 
ATOM      6  C5  <0> d           0.002  -0.004   0.002  0.00  0.00    -0.055 A 
ATOM      7  H1  <0> d          -0.952   1.919   0.026  0.00  0.00     0.083 H 
ATOM      8  H2  <0> d           1.212   3.139   0.007  0.00  0.00     0.085 H 
ATOM      9  H3  <0> d           3.318   1.867  -0.020  0.00  0.00     0.114 H 
ATOM     10  H4  <0> d          -0.921  -0.564   0.008  0.00  0.00     0.087 H 
ENDROOT
BRANCH   5  11
ATOM     11  C6  <0> d           1.269  -2.142  -0.023  0.00  0.00    -0.057 C 
ATOM     12  C7  <0> d           2.434  -2.775  -0.038  0.00  0.00    -0.079 C 
ATOM     13  H6  <0> d           3.355  -2.211  -0.044  0.00  0.00     0.080 H 
ATOM     14  H5  <0> d           0.348  -2.706  -0.017  0.00  0.00     0.086 H 
BRANCH  12  15
ATOM     15  C8  <0> d           2.472  -4.282  -0.048  0.00  0.00     0.032 C 
ATOM     16  H7  <0> d           2.757  -4.644   0.940  0.00  0.00     0.080 H 
ATOM     17  H8  <0> d           1.487  -4.669  -0.306  0.00  0.00     0.080 H 
BRANCH  15  18
ATOM     18  O1  <0> d           3.428  -4.728  -1.013  0.00  0.00    -0.397 OA
ATOM     19  H9  <0> d           3.506  -5.690  -1.073  0.00  0.00     0.209 HD
ENDBRANCH  15  18
ENDBRANCH  12  15
ENDBRANCH   5  11
TORSDOF 3
