REMARK  4 active torsions:
REMARK  status: ('A' for Active; 'I' for Inactive)
REMARK    1  A    between atoms: C1_1  and  C2_2 
REMARK    2  A    between atoms: C2_2  and  C6_8 
REMARK    3  A    between atoms: C3_3  and  C4_4 
REMARK    4  A    between atoms: C3_3  and  C5_5 
ROOT
ATOM      1  C2  <0> d          -2.471   1.199  -0.084  0.00  0.00    -0.075 C 
ATOM      2  C3  <0> d          -1.359   1.923   0.010  0.00  0.00     0.016 C 
ENDROOT
BRANCH   1   3
ATOM      3  C1  <0> d          -2.394  -0.306  -0.074  0.00  0.00    -0.054 C 
ATOM      4  H1  <0> d          -3.407  -0.725  -0.159  0.00  0.00     0.033 H 
ATOM      5  H2  <0> d          -1.936  -0.643   0.868  0.00  0.00     0.033 H 
ATOM      6  H3  <0> d          -1.783  -0.647  -0.922  0.00  0.00     0.033 H 
ENDBRANCH   1   3
BRANCH   1   7
ATOM      7  C6  <0> d          -3.809   1.884  -0.199  0.00  0.00    -0.054 C 
ATOM      8  H7  <0> d          -3.664   2.975  -0.189  0.00  0.00     0.033 H 
ATOM      9  H8  <0> d          -4.446   1.591   0.648  0.00  0.00     0.033 H 
ATOM     10  H9  <0> d          -4.293   1.587  -1.141  0.00  0.00     0.033 H 
ENDBRANCH   1   7
BRANCH   2  11
ATOM     11  C4  <0> d          -1.416   3.419  -0.167  0.00  0.00    -0.045 C 
ATOM     12  H4  <0> d          -0.406   3.840  -0.056  0.00  0.00     0.033 H 
ATOM     13  H5  <0> d          -2.080   3.853   0.595  0.00  0.00     0.033 H 
ATOM     14  H6  <0> d          -1.804   3.655  -1.169  0.00  0.00     0.033 H 
ENDBRANCH   2  11
BRANCH   2  15
ATOM     15  C5  <0> d          -0.074   1.265   0.285  0.00  0.00     0.205 C 
ATOM     16  O1  <0> d          -0.046   0.082   0.566  0.00  0.00    -0.644 OA
ATOM     17  O2  <0> d           1.072   1.970   0.221  0.00  0.00    -0.644 OA
ENDBRANCH   2  15
TORSDOF 4
