REMARK  2 active torsions:
REMARK  status: ('A' for Active; 'I' for Inactive)
REMARK    1  A    between atoms: C1_1  and  C2_2 
REMARK    2  A    between atoms: C8_8  and  O1_12 
ROOT
ATOM      1  C2  <0> d           0.002  -0.004   0.002  0.00  0.00    -0.061 A 
ATOM      2  C3  <0> d          -0.017   1.389   0.010  0.00  0.00    -0.076 A 
ATOM      3  C4  <0> d           1.140   2.106   0.003  0.00  0.00    -0.072 A 
ATOM      4  C5  <0> d           2.374   1.434  -0.013  0.00  0.00    -0.026 A 
ATOM      5  C6  <0> d           3.589   2.142  -0.021  0.00  0.00    -0.070 A 
ATOM      6  C7  <0> d           4.766   1.462  -0.037  0.00  0.00    -0.050 A 
ATOM      7  C8  <0> d           4.788   0.063  -0.045  0.00  0.00     0.066 A 
ATOM      8  C9  <0> d           3.627  -0.656  -0.038  0.00  0.00    -0.040 A 
ATOM      9  C10 <0> d           2.394   0.017  -0.021  0.00  0.00    -0.023 A 
ATOM     10  C11 <0> d           1.178  -0.689  -0.013  0.00  0.00    -0.066 A 
ATOM     11  H4  <0> d          -0.964   1.909   0.017  0.00  0.00     0.084 H 
ATOM     12  H5  <0> d           1.110   3.186   0.008  0.00  0.00     0.084 H 
ATOM     13  H6  <0> d           3.587   3.222  -0.015  0.00  0.00     0.085 H 
ATOM     14  H7  <0> d           5.697   2.009  -0.044  0.00  0.00     0.087 H 
ATOM     15  H8  <0> d           3.656  -1.735  -0.045  0.00  0.00     0.089 H 
ATOM     16  H9  <0> d           1.177  -1.769  -0.020  0.00  0.00     0.085 H 
ENDROOT
BRANCH   1  17
ATOM     17  C1  <0> d          -1.299  -0.764   0.011  0.00  0.00    -0.051 C 
ATOM     18  H1  <0> d          -1.623  -0.942  -1.015  0.00  0.00     0.033 H 
ATOM     19  H2  <0> d          -1.159  -1.719   0.518  0.00  0.00     0.033 H 
ATOM     20  H3  <0> d          -2.057  -0.182   0.535  0.00  0.00     0.033 H 
ENDBRANCH   1  17
BRANCH   7  21
ATOM     21  O1  <0> d           5.980  -0.589  -0.061  0.00  0.00    -0.361 OA
ATOM     22  H10 <0> d           6.316  -0.773  -0.949  0.00  0.00     0.217 HD
ENDBRANCH   7  21
TORSDOF 2
