REMARK  1 active torsions:
REMARK  status: ('A' for Active; 'I' for Inactive)
REMARK    1  A    between atoms: C3_4  and  C5_7 
ROOT
ATOM      1  C5  <0> d           3.603  -0.710  -0.036  0.00  0.00     0.071 C 
ATOM      2  C6  <0> d           4.015  -0.948  -1.429  0.00  0.00     0.066 C 
ATOM      3  N3  <0> d           4.333  -1.133  -2.504  0.00  0.00    -0.197 NA
ATOM      4  H4  <0> d           4.375  -0.118   0.479  0.00  0.00     0.067 H 
ATOM      5  H5  <0> d           3.476  -1.674   0.479  0.00  0.00     0.067 H 
ENDROOT
BRANCH   1   6
ATOM      6  C3  <0> d           2.298   0.044  -0.020  0.00  0.00     0.138 A 
ATOM      7  N1  <0> d           2.319   1.362  -0.013  0.00  0.00    -0.245 NA
ATOM      8  C2  <0> d           1.193   2.058   0.002  0.00  0.00     0.006 A 
ATOM      9  C1  <0> d          -0.017   1.382   0.010  0.00  0.00    -0.049 A 
ATOM     10  H2  <0> d           1.217   3.137   0.007  0.00  0.00     0.114 H 
ATOM     11  C4  <0> d           0.002  -0.004   0.002  0.00  0.00     0.006 A 
ATOM     12  H1  <0> d          -0.952   1.922   0.017  0.00  0.00     0.087 H 
ATOM     13  N2  <0> d           1.167  -0.632  -0.013  0.00  0.00    -0.245 NA
ATOM     14  H3  <0> d          -0.921  -0.564   0.007  0.00  0.00     0.114 H 
ENDBRANCH   1   6
TORSDOF 1
