REMARK  3 active torsions:
REMARK  status: ('A' for Active; 'I' for Inactive)
REMARK    1  A    between atoms: C1_1  and  O1_2 
REMARK    2  A    between atoms: O1_2  and  C2_3 
REMARK    3  A    between atoms: C3_4  and  O2_10 
ROOT
ATOM      1  C2  <0> d           0.605  -0.607  -1.055  0.00  0.00     0.198 A 
ATOM      2  C3  <0> d           0.651  -1.998  -1.123  0.00  0.00     0.120 A 
ATOM      3  C4  <0> d           1.271  -2.599  -2.209  0.00  0.00    -0.024 A 
ATOM      4  C5  <0> d           1.823  -1.785  -3.189  0.00  0.00     0.054 A 
ATOM      5  C6  <0> d           1.739  -0.413  -3.055  0.00  0.00     0.026 A 
ATOM      6  N1  <0> d           1.138   0.131  -2.012  0.00  0.00    -0.233 NA
ATOM      7 Cl1  <0> d           2.611  -2.484  -4.569  0.00  0.00    -0.083 Cl
ATOM      8  H4  <0> d           1.324  -3.675  -2.290  0.00  0.00     0.090 H 
ATOM      9  H5  <0> d           2.167   0.224  -3.815  0.00  0.00     0.117 H 
ENDROOT
BRANCH   1  10
ATOM     10  O1  <0> d           0.002  -0.004   0.002  0.00  0.00    -0.337 OA
BRANCH  10  11
ATOM     11  C1  <0> d          -0.017   1.425   0.010  0.00  0.00     0.012 C 
ATOM     12  H1  <0> d           1.005   1.802   0.002  0.00  0.00     0.067 H 
ATOM     13  H2  <0> d          -0.544   1.786  -0.873  0.00  0.00     0.067 H 
ATOM     14  H3  <0> d          -0.527   1.776   0.907  0.00  0.00     0.067 H 
ENDBRANCH  10  11
ENDBRANCH   1  10
BRANCH   2  15
ATOM     15  O2  <0> d           0.098  -2.755  -0.138  0.00  0.00    -0.357 OA
ATOM     16  H6  <0> d          -0.831  -2.979  -0.289  0.00  0.00     0.218 HD
ENDBRANCH   2  15
TORSDOF 3
