REMARK  2 active torsions:
REMARK  status: ('A' for Active; 'I' for Inactive)
REMARK    1  A    between atoms: C2_2  and  O4_10 
REMARK    2  A    between atoms: C4_6  and  O3_9 
ROOT
ATOM      1  C1  <0> d           1.146   3.087   0.008  0.00  0.00     0.068 C 
ATOM      2  C2  <0> d           1.286   1.562  -0.002  0.00  0.00     0.149 C 
ATOM      3  H1  <0> d           1.819   1.178  -0.884  0.00  0.00     0.132 H 
ATOM      4  O1  <0> d           2.011   1.150   1.161  0.00  0.00    -0.354 OA
ATOM      5  C3  <0> d           3.311   1.740   1.264  0.00  0.00     0.068 C 
ATOM      6  C4  <0> d           3.171   3.265   1.274  0.00  0.00     0.149 C 
ATOM      7  H2  <0> d           2.638   3.649   2.156  0.00  0.00     0.132 H 
ATOM      8  O2  <0> d           2.445   3.677   0.111  0.00  0.00    -0.354 OA
ATOM      9  H3  <0> d           0.533   3.396   0.867  0.00  0.00     0.082 H 
ATOM     10  H4  <0> d           0.665   3.419  -0.924  0.00  0.00     0.082 H 
ATOM     11  H5  <0> d           3.791   1.407   2.196  0.00  0.00     0.082 H 
ATOM     12  H6  <0> d           3.924   1.430   0.405  0.00  0.00     0.082 H 
ENDROOT
BRANCH   2  13
ATOM     13  O4  <0> d          -0.011   0.963   0.007  0.00  0.00    -0.369 OA
ATOM     14  H8  <0> d          -0.111  -0.133   0.002  0.00  0.00     0.212 HD
ENDBRANCH   2  13
BRANCH   6  15
ATOM     15  O3  <0> d           4.468   3.864   1.265  0.00  0.00    -0.369 OA
ATOM     16  H7  <0> d           4.568   4.959   1.270  0.00  0.00     0.212 HD
ENDBRANCH   6  15
TORSDOF 2
