REMARK  4 active torsions:
REMARK  status: ('A' for Active; 'I' for Inactive)
REMARK    1  A    between atoms: C1_1  and  C2_2 
REMARK    2  A    between atoms: C2_2  and  C3_3 
REMARK    3  A    between atoms: C3_3  and  C4_4 
REMARK    4  A    between atoms: C4_4  and  C5_5 
ROOT
ATOM      1  C5  <0> d          -2.848  -2.593   0.015  0.00  0.00     0.004 C 
ATOM      2  H1  <0> d          -3.340  -2.205   0.794  0.00  0.00     0.051 H 
ATOM      3  C6  <0> d          -2.832  -4.122   0.123  0.00  0.00    -0.055 C 
ATOM      4  C7  <0> d          -4.259  -4.655  -0.013  0.00  0.00    -0.064 C 
ATOM      5  C8  <0> d          -4.812  -4.322  -1.400  0.00  0.00    -0.059 C 
ATOM      6  C9  <0> d          -4.902  -2.801  -1.560  0.00  0.00    -0.009 C 
ATOM      7  C10 <0> d          -3.542  -2.205  -1.271  0.00  0.00     0.131 C 
ATOM      8  O1  <0> d          -3.024  -1.440  -2.048  0.00  0.00    -0.298 OA
ATOM      9  H11 <0> d          -2.214  -4.536  -0.674  0.00  0.00     0.034 H 
ATOM     10  H12 <0> d          -2.422  -4.413   1.090  0.00  0.00     0.034 H 
ATOM     11  H13 <0> d          -4.889  -4.195   0.748  0.00  0.00     0.033 H 
ATOM     12  H14 <0> d          -4.255  -5.736   0.125  0.00  0.00     0.033 H 
ATOM     13  H15 <0> d          -5.804  -4.759  -1.510  0.00  0.00     0.033 H 
ATOM     14  H16 <0> d          -4.148  -4.729  -2.163  0.00  0.00     0.033 H 
ATOM     15  H17 <0> d          -5.579  -2.438  -0.919  0.00  0.00     0.044 H 
ATOM     16  H18 <0> d          -5.200  -2.557  -2.580  0.00  0.00     0.044 H 
ENDROOT
BRANCH   1  17
ATOM     17  C4  <0> d          -1.413  -2.063   0.004  0.00  0.00    -0.055 C 
ATOM     18  H9  <0> d          -0.902  -2.415  -0.892  0.00  0.00     0.034 H 
ATOM     19  H10 <0> d          -0.885  -2.425   0.887  0.00  0.00     0.034 H 
BRANCH  17  20
ATOM     20  C3  <0> d          -1.433  -0.534   0.013  0.00  0.00    -0.065 C 
ATOM     21  H7  <0> d          -1.944  -0.182   0.910  0.00  0.00     0.033 H 
ATOM     22  H8  <0> d          -1.960  -0.173  -0.870  0.00  0.00     0.033 H 
BRANCH  20  23
ATOM     23  C2  <0> d           0.002  -0.004   0.002  0.00  0.00    -0.069 C 
ATOM     24  H5  <0> d           0.512  -0.356  -0.895  0.00  0.00     0.032 H 
ATOM     25  H6  <0> d           0.529  -0.365   0.885  0.00  0.00     0.032 H 
BRANCH  23  26
ATOM     26  C1  <0> d          -0.019   1.526   0.010  0.00  0.00    -0.077 C 
ATOM     27  H2  <0> d           1.004   1.903   0.003  0.00  0.00     0.027 H 
ATOM     28  H3  <0> d          -0.546   1.887  -0.873  0.00  0.00     0.027 H 
ATOM     29  H4  <0> d          -0.529   1.877   0.907  0.00  0.00     0.027 H 
ENDBRANCH  23  26
ENDBRANCH  20  23
ENDBRANCH  17  20
ENDBRANCH   1  17
TORSDOF 4
