REMARK  2 active torsions:
REMARK  status: ('A' for Active; 'I' for Inactive)
REMARK    1  A    between atoms: C1_1  and  C2_2 
REMARK    2  A    between atoms: C5_6  and  C8_11 
ROOT
ATOM      1  C2  <0> d           1.146   3.167   0.008  0.00  0.00    -0.057 A 
ATOM      2  C3  <0> d           1.150   1.761   0.001  0.00  0.00    -0.062 A 
ATOM      3  C4  <0> d          -0.013   1.076   0.008  0.00  0.00    -0.011 A 
ATOM      4  N1  <0> d          -1.206   1.736   0.017  0.00  0.00    -0.292 N 
ATOM      5  C5  <0> d          -2.504   1.330   0.021  0.00  0.00     0.130 A 
ATOM      6  N2  <0> d          -3.252   2.403   0.031  0.00  0.00    -0.135 NA
ATOM      7  N3  <0> d          -2.517   3.459   0.043  0.00  0.00    -0.130 NA
ATOM      8  C6  <0> d          -1.241   3.109   0.030  0.00  0.00     0.158 A 
ATOM      9  C7  <0> d          -0.037   3.838   0.023  0.00  0.00    -0.031 A 
ATOM     10  H4  <0> d           2.088   1.227  -0.011  0.00  0.00     0.086 H 
ATOM     11  H5  <0> d           0.002  -0.004   0.002  0.00  0.00     0.112 H 
ATOM     12  H6  <0> d          -0.052   4.918   0.029  0.00  0.00     0.090 H 
ENDROOT
BRANCH   1  13
ATOM     13  C1  <0> d           2.447   3.927   0.001  0.00  0.00    -0.051 C 
ATOM     14  H1  <0> d           2.752   4.115  -1.029  0.00  0.00     0.033 H 
ATOM     15  H2  <0> d           2.317   4.876   0.521  0.00  0.00     0.033 H 
ATOM     16  H3  <0> d           3.214   3.339   0.505  0.00  0.00     0.033 H 
ENDBRANCH   1  13
BRANCH   5  17
ATOM     17  C8  <0> d          -2.992  -0.096   0.016  0.00  0.00    -0.019 C 
ATOM     18  H7  <0> d          -3.104  -0.445   1.043  0.00  0.00     0.037 H 
ATOM     19  H8  <0> d          -3.954  -0.149  -0.493  0.00  0.00     0.037 H 
ATOM     20  H9  <0> d          -2.270  -0.725  -0.505  0.00  0.00     0.037 H 
ENDBRANCH   5  17
TORSDOF 2
