REMARK  6 active torsions:
REMARK  status: ('A' for Active; 'I' for Inactive)
REMARK    1  A    between atoms: C1_1  and  C2_2 
REMARK    2  A    between atoms: C2_2  and  O2_4 
REMARK    3  A    between atoms: O2_4  and  C3_5 
REMARK    4  A    between atoms: C3_5  and  C4_6 
REMARK    5  A    between atoms: C4_6  and  C5_7 
REMARK    6  A    between atoms: C5_7  and  C6_8 
ROOT
ATOM      1  C4  <0> d          -2.182   1.345  -1.162  0.00  0.00    -0.042 C 
ATOM      2  H6  <0> d          -1.658   1.552  -2.095  0.00  0.00     0.036 H 
ATOM      3  H7  <0> d          -2.365   0.274  -1.077  0.00  0.00     0.036 H 
ENDROOT
BRANCH   1   4
ATOM      4  C3  <0> d          -3.518   2.092  -1.152  0.00  0.00     0.029 C 
ATOM      5  H4  <0> d          -4.042   1.885  -0.219  0.00  0.00     0.075 H 
ATOM      6  H5  <0> d          -3.335   3.163  -1.236  0.00  0.00     0.075 H 
BRANCH   4   7
ATOM      7  O2  <0> d          -4.329   1.649  -2.272  0.00  0.00    -0.322 OA
BRANCH   7   8
ATOM      8  C2  <0> d          -5.540   2.211  -2.407  0.00  0.00     0.254 C 
ATOM      9  O1  <0> d          -5.910   3.046  -1.616  0.00  0.00    -0.266 OA
BRANCH   8  10
ATOM     10  C1  <0> d          -6.438   1.802  -3.546  0.00  0.00     0.004 C 
ATOM     11  H1  <0> d          -7.063   0.965  -3.233  0.00  0.00     0.041 H 
ATOM     12  H2  <0> d          -7.072   2.642  -3.829  0.00  0.00     0.041 H 
ATOM     13  H3  <0> d          -5.829   1.501  -4.399  0.00  0.00     0.041 H 
ENDBRANCH   8  10
ENDBRANCH   7   8
ENDBRANCH   4   7
ENDBRANCH   1   4
BRANCH   1  14
ATOM     14  C5  <0> d          -1.328   1.812   0.018  0.00  0.00    -0.049 C 
ATOM     15  H8  <0> d          -1.853   1.605   0.951  0.00  0.00     0.038 H 
ATOM     16  H9  <0> d          -1.145   2.883  -0.066  0.00  0.00     0.038 H 
BRANCH  14  17
ATOM     17  C6  <0> d          -0.013   1.076   0.008  0.00  0.00    -0.112 C 
ATOM     18  C7  <0> d           1.113   1.746   0.001  0.00  0.00    -0.125 C 
ATOM     19  H11 <0> d           2.055   1.219  -0.011  0.00  0.00     0.066 H 
ATOM     20  H12 <0> d           1.098   2.826   0.007  0.00  0.00     0.066 H 
ATOM     21  H10 <0> d           0.002  -0.004   0.002  0.00  0.00     0.075 H 
ENDBRANCH  14  17
ENDBRANCH   1  14
TORSDOF 6
