REMARK  3 active torsions:
REMARK  status: ('A' for Active; 'I' for Inactive)
REMARK    1  A    between atoms: C1_1  and  C2_2 
REMARK    2  A    between atoms: C2_2  and  N1_3 
REMARK    3  A    between atoms: C3_4  and  C8_11 
ROOT
ATOM      1  N1  <0> d          -1.372  -0.511   0.012  0.00  0.00    -0.319 N 
ATOM      2  C3  <0> d          -2.011  -0.736  -1.166  0.00  0.00     0.013 A 
ATOM      3  C4  <0> d          -3.277  -1.203  -1.190  0.00  0.00    -0.026 A 
ATOM      4  C5  <0> d          -3.951  -1.463   0.021  0.00  0.00     0.114 A 
ATOM      5  O1  <0> d          -5.222  -1.932   0.013  0.00  0.00    -0.192 OA
ATOM      6  C6  <0> d          -3.295  -1.232   1.215  0.00  0.00     0.018 A 
ATOM      7  C7  <0> d          -1.980  -0.752   1.189  0.00  0.00     0.250 A 
ATOM      8  O2  <0> d          -1.385  -0.547   2.235  0.00  0.00    -0.268 OA
ATOM      9  H6  <0> d          -3.773  -1.377  -2.133  0.00  0.00     0.090 H 
ATOM     10  H7  <0> d          -3.789  -1.423   2.157  0.00  0.00     0.096 H 
ENDROOT
BRANCH   1  11
ATOM     11  C2  <0> d           0.002  -0.004   0.002  0.00  0.00    -0.001 C 
ATOM     12  H4  <0> d           0.512  -0.356  -0.895  0.00  0.00     0.064 H 
ATOM     13  H5  <0> d           0.529  -0.365   0.885  0.00  0.00     0.064 H 
BRANCH  11  14
ATOM     14  C1  <0> d          -0.019   1.526   0.010  0.00  0.00    -0.061 C 
ATOM     15  H1  <0> d           1.004   1.903   0.003  0.00  0.00     0.029 H 
ATOM     16  H2  <0> d          -0.546   1.887  -0.873  0.00  0.00     0.029 H 
ATOM     17  H3  <0> d          -0.529   1.877   0.907  0.00  0.00     0.029 H 
ENDBRANCH  11  14
ENDBRANCH   1  11
BRANCH   2  18
ATOM     18  C8  <0> d          -1.296  -0.460  -2.463  0.00  0.00    -0.037 C 
ATOM     19  H8  <0> d          -0.767  -1.358  -2.785  0.00  0.00     0.035 H 
ATOM     20  H9  <0> d          -2.021  -0.174  -3.224  0.00  0.00     0.035 H 
ATOM     21  H10 <0> d          -0.581   0.350  -2.319  0.00  0.00     0.035 H 
ENDBRANCH   2  18
TORSDOF 3
