REMARK  1 active torsions:
REMARK  status: ('A' for Active; 'I' for Inactive)
REMARK    1  A    between atoms: C3_3  and  N1_9 
ROOT
ATOM      1  C1  <0> d          -1.218   1.751   0.017  0.00  0.00    -0.060 A 
ATOM      2  C2  <0> d          -0.013   1.076   0.008  0.00  0.00    -0.053 A 
ATOM      3  C3  <0> d           1.179   1.786   0.000  0.00  0.00     0.065 A 
ATOM      4  C4  <0> d           1.157   3.177   0.008  0.00  0.00     0.144 A 
ATOM      5  C5  <0> d          -0.052   3.847   0.023  0.00  0.00    -0.022 A 
ATOM      6  C6  <0> d          -1.239   3.134   0.031  0.00  0.00     0.037 A 
ATOM      7 Cl1  <0> d          -2.756   3.978   0.050  0.00  0.00    -0.084 Cl
ATOM      8  F1  <0> d           2.315   3.873   0.000  0.00  0.00    -0.204 F 
ATOM      9  H1  <0> d          -2.146   1.198   0.019  0.00  0.00     0.086 H 
ATOM     10  H2  <0> d           0.002  -0.004   0.002  0.00  0.00     0.087 H 
ATOM     11  H3  <0> d          -0.071   4.927   0.029  0.00  0.00     0.090 H 
ENDROOT
BRANCH   3  12
ATOM     12  N1  <0> d           2.401   1.105  -0.015  0.00  0.00    -0.397 N 
ATOM     13  H4  <0> d           2.416   0.135  -0.021  0.00  0.00     0.156 HD
ATOM     14  H5  <0> d           3.234   1.603  -0.021  0.00  0.00     0.156 HD
ENDBRANCH   3  12
TORSDOF 1
