REMARK  3 active torsions:
REMARK  status: ('A' for Active; 'I' for Inactive)
REMARK    1  A    between atoms: C1_1  and  O1_2 
REMARK    2  A    between atoms: O1_2  and  C2_3 
REMARK    3  A    between atoms: C5_8  and  C6_10 
ROOT
ATOM      1  C6  <0> d          -0.019   1.526   0.010  0.00  0.00     0.045 C 
ATOM      2  C7  <0> d           1.362   2.035  -0.000  0.00  0.00     0.062 C 
ATOM      3  N1  <0> d           2.428   2.429  -0.008  0.00  0.00    -0.197 NA
ATOM      4  H6  <0> d          -0.546   1.887  -0.873  0.00  0.00     0.059 H 
ATOM      5  H7  <0> d          -0.529   1.877   0.907  0.00  0.00     0.059 H 
ENDROOT
BRANCH   1   6
ATOM      6  C5  <0> d           0.002  -0.004   0.002  0.00  0.00     0.105 A 
ATOM      7  C2  <0> d          -1.409  -0.547  -0.047  0.00  0.00     0.082 A 
ATOM      8  C3  <0> d          -1.571  -1.273   1.075  0.00  0.00     0.020 A 
ATOM      9  C4  <0> d          -0.386  -1.241   1.837  0.00  0.00     0.286 A 
ATOM     10  H5  <0> d          -2.473  -1.800   1.349  0.00  0.00     0.097 H 
ATOM     11  O2  <0> d          -0.235  -1.808   2.903  0.00  0.00    -0.260 OA
ATOM     12  O3  <0> d           0.557  -0.500   1.226  0.00  0.00    -0.305 OA
ATOM     13  H1  <0> d           0.578  -0.369  -0.849  0.00  0.00     0.096 H 
BRANCH   7  14
ATOM     14  O1  <0> d          -2.321  -0.344  -1.019  0.00  0.00    -0.357 OA
BRANCH  14  15
ATOM     15  C1  <0> d          -3.619  -0.971  -0.847  0.00  0.00     0.010 C 
ATOM     16  H2  <0> d          -3.494  -2.052  -0.783  0.00  0.00     0.066 H 
ATOM     17  H3  <0> d          -4.081  -0.604   0.070  0.00  0.00     0.066 H 
ATOM     18  H4  <0> d          -4.255  -0.728  -1.697  0.00  0.00     0.066 H 
ENDBRANCH  14  15
ENDBRANCH   7  14
ENDBRANCH   1   6
TORSDOF 3
