REMARK  7 active torsions:
REMARK  status: ('A' for Active; 'I' for Inactive)
REMARK    1  A    between atoms: C1_1  and  C2_2 
REMARK    2  A    between atoms: C2_2  and  O1_3 
REMARK    3  A    between atoms: O1_3  and  C3_4 
REMARK    4  A    between atoms: C5_7  and  C6_9 
REMARK    5  A    between atoms: C6_9  and  O3_11 
REMARK    6  A    between atoms: O3_11  and  C7_12 
REMARK    7  A    between atoms: C7_12  and  C8_13 
ROOT
ATOM      1  C3  <0> d           0.455   2.223  -1.254  0.00  0.00     0.051 A 
ATOM      2  H1  <0> d           0.048   2.970  -1.952  0.00  0.00     0.084 H 
ATOM      3  C4  <0> d           1.329   2.228   0.001  0.00  0.00    -0.026 A 
ATOM      4  C5  <0> d          -0.018   1.503   0.010  0.00  0.00     0.058 A 
ATOM      5  H2  <0> d          -0.921   1.533   0.639  0.00  0.00     0.059 H 
ATOM      6  H8  <0> d           2.298   1.758  -0.225  0.00  0.00     0.038 H 
ATOM      7  H9  <0> d           1.492   3.264   0.331  0.00  0.00     0.038 H 
ENDROOT
BRANCH   4   8
ATOM      8  C6  <0> d           0.002  -0.004   0.002  0.00  0.00     0.265 C 
ATOM      9  O2  <0> d           0.383  -0.598  -0.979  0.00  0.00    -0.265 OA
BRANCH   8  10
ATOM     10  O3  <0> d          -0.402  -0.687   1.085  0.00  0.00    -0.321 OA
BRANCH  10  11
ATOM     11  C7  <0> d          -0.356  -2.136   1.006  0.00  0.00     0.025 C 
ATOM     12  H10 <0> d          -0.999  -2.479   0.182  0.00  0.00     0.074 H 
ATOM     13  H11 <0> d           0.679  -2.460   0.822  0.00  0.00     0.074 H 
BRANCH  11  14
ATOM     14  C8  <0> d          -0.851  -2.735   2.324  0.00  0.00    -0.056 C 
ATOM     15  H12 <0> d          -0.815  -3.832   2.264  0.00  0.00     0.030 H 
ATOM     16  H13 <0> d          -1.886  -2.411   2.508  0.00  0.00     0.030 H 
ATOM     17  H14 <0> d          -0.207  -2.391   3.147  0.00  0.00     0.030 H 
ENDBRANCH  11  14
ENDBRANCH  10  11
ENDBRANCH   8  10
ENDBRANCH   4   8
BRANCH   1  18
ATOM     18  O1  <0> d           0.882   1.415  -2.353  0.00  0.00    -0.385 OA
BRANCH  18  19
ATOM     19  C2  <0> d           0.664   2.011  -3.633  0.00  0.00     0.017 C 
ATOM     20  H6  <0> d           1.216   2.961  -3.693  0.00  0.00     0.073 H 
ATOM     21  H7  <0> d          -0.411   2.203  -3.769  0.00  0.00     0.073 H 
BRANCH  19  22
ATOM     22  C1  <0> d           1.156   1.064  -4.728  0.00  0.00    -0.056 C 
ATOM     23  H3  <0> d           0.988   1.523  -5.713  0.00  0.00     0.030 H 
ATOM     24  H4  <0> d           0.604   0.114  -4.667  0.00  0.00     0.030 H 
ATOM     25  H5  <0> d           2.231   0.872  -4.591  0.00  0.00     0.030 H 
ENDBRANCH  19  22
ENDBRANCH  18  19
ENDBRANCH   1  18
TORSDOF 7
