REMARK  4 active torsions:
REMARK  status: ('A' for Active; 'I' for Inactive)
REMARK    1  A    between atoms: C1_1  and  C2_2 
REMARK    2  A    between atoms: C2_2  and  C3_4 
REMARK    3  A    between atoms: C2_2  and  C6_7 
REMARK    4  A    between atoms: C3_4  and  C4_5 
ROOT
ATOM      1  C2  <0> d          -2.182   1.345  -1.162  0.00  0.00     0.030 C 
ATOM      2  H1  <0> d          -1.622   1.470  -2.088  0.00  0.00     0.056 H 
ENDROOT
BRANCH   1   3
ATOM      3  C1  <0> d          -2.543  -0.131  -0.979  0.00  0.00    -0.063 C 
ATOM      4  H2  <0> d          -3.103  -0.256  -0.052  0.00  0.00     0.028 H 
ATOM      5  H3  <0> d          -3.151  -0.463  -1.819  0.00  0.00     0.028 H 
ATOM      6  H4  <0> d          -1.630  -0.725  -0.934  0.00  0.00     0.028 H 
ENDBRANCH   1   3
BRANCH   1   7
ATOM      7  C3  <0> d          -1.328   1.812   0.018  0.00  0.00    -0.038 C 
ATOM      8  H5  <0> d          -1.853   1.605   0.951  0.00  0.00     0.040 H 
ATOM      9  H6  <0> d          -1.145   2.883  -0.066  0.00  0.00     0.040 H 
BRANCH   7  10
ATOM     10  C4  <0> d          -0.013   1.076   0.008  0.00  0.00    -0.111 C 
ATOM     11  C5  <0> d           1.113   1.746   0.001  0.00  0.00    -0.125 C 
ATOM     12  H8  <0> d           2.055   1.219  -0.011  0.00  0.00     0.066 H 
ATOM     13  H9  <0> d           1.098   2.826   0.007  0.00  0.00     0.066 H 
ATOM     14  H7  <0> d           0.002  -0.004   0.002  0.00  0.00     0.075 H 
ENDBRANCH   7  10
ENDBRANCH   1   7
BRANCH   1  15
ATOM     15  C6  <0> d          -3.444   2.166  -1.224  0.00  0.00     0.176 C 
ATOM     16  O1  <0> d          -3.640   3.035  -0.408  0.00  0.00    -0.648 OA
ATOM     17  O2  <0> d          -4.351   1.932  -2.186  0.00  0.00    -0.648 OA
ENDBRANCH   1  15
TORSDOF 4
