REMARK  2 active torsions:
REMARK  status: ('A' for Active; 'I' for Inactive)
REMARK    1  A    between atoms: C3_3  and  C7_9 
REMARK    2  A    between atoms: C4_4  and  N1_8 
ROOT
ATOM      1  C1  <0> d          -0.063   0.123  -0.021  0.00  0.00    -0.079 A 
ATOM      2  C2  <0> d           0.060   1.495  -0.003  0.00  0.00    -0.064 A 
ATOM      3  C3  <0> d           1.329   2.082   0.013  0.00  0.00     0.070 A 
ATOM      4  C4  <0> d           2.470   1.265   0.010  0.00  0.00     0.082 A 
ATOM      5  C5  <0> d           2.326  -0.119  -0.009  0.00  0.00     0.143 A 
ATOM      6  C6  <0> d           1.065  -0.682  -0.024  0.00  0.00    -0.043 A 
ATOM      7  F1  <0> d           3.420  -0.912  -0.012  0.00  0.00    -0.204 F 
ATOM      8  H1  <0> d          -1.045  -0.328  -0.033  0.00  0.00     0.083 H 
ATOM      9  H2  <0> d          -0.823   2.117  -0.005  0.00  0.00     0.085 H 
ATOM     10  H3  <0> d           0.957  -1.757  -0.038  0.00  0.00     0.088 H 
ENDROOT
BRANCH   3  11
ATOM     11  C7  <0> d           1.467   3.548   0.033  0.00  0.00     0.211 C 
ATOM     12  O1  <0> d           2.567   4.056  -0.062  0.00  0.00    -0.644 OA
ATOM     13  O2  <0> d           0.374   4.326   0.156  0.00  0.00    -0.644 OA
ENDBRANCH   3  11
BRANCH   4  14
ATOM     14  N1  <0> d           3.738   1.835   0.026  0.00  0.00    -0.396 N 
ATOM     15  H4  <0> d           4.523   1.270   0.105  0.00  0.00     0.156 HD
ATOM     16  H5  <0> d           3.837   2.797  -0.043  0.00  0.00     0.156 HD
ENDBRANCH   4  14
TORSDOF 2
