REMARK  1 active torsions:
REMARK  status: ('A' for Active; 'I' for Inactive)
REMARK    1  A    between atoms: C1_1  and  C3_4 
ROOT
ATOM      1  C1  <0> d          -1.329   1.940   0.019  0.00  0.00     0.094 C 
ATOM      2  C2  <0> d          -2.435   0.968   0.019  0.00  0.00     0.069 C 
ATOM      3  N1  <0> d          -3.289   0.218   0.019  0.00  0.00    -0.197 NA
ATOM      4  H1  <0> d          -1.391   2.561   0.913  0.00  0.00     0.071 H 
ATOM      5  H2  <0> d          -1.400   2.570  -0.867  0.00  0.00     0.071 H 
ENDROOT
BRANCH   1   6
ATOM      6  C3  <0> d          -0.014   1.204   0.009  0.00  0.00     0.186 C 
ATOM      7  O1  <0> d           0.002  -0.004   0.002  0.00  0.00    -0.647 OA
ATOM      8  O2  <0> d           1.139   1.891   0.001  0.00  0.00    -0.647 OA
ENDBRANCH   1   6
TORSDOF 1
