REMARK  2 active torsions:
REMARK  status: ('A' for Active; 'I' for Inactive)
REMARK    1  A    between atoms: C4_4  and  C7_7 
REMARK    2  A    between atoms: C9_11  and  N3_13 
ROOT
ATOM      1  C1  <0> d          -7.561   1.448   0.049  0.00  0.00    -0.083 A 
ATOM      2  C2  <0> d          -6.707   0.359   0.039  0.00  0.00    -0.082 A 
ATOM      3  C3  <0> d          -5.341   0.551   0.033  0.00  0.00    -0.071 A 
ATOM      4  C4  <0> d          -4.821   1.844   0.037  0.00  0.00    -0.005 A 
ATOM      5  C5  <0> d          -5.685   2.937   0.053  0.00  0.00    -0.071 A 
ATOM      6  C6  <0> d          -7.050   2.734   0.053  0.00  0.00    -0.082 A 
ATOM      7  H2  <0> d          -8.630   1.294   0.054  0.00  0.00     0.083 H 
ATOM      8  H3  <0> d          -7.111  -0.642   0.035  0.00  0.00     0.083 H 
ATOM      9  H4  <0> d          -4.675  -0.300   0.025  0.00  0.00     0.084 H 
ATOM     10  H5  <0> d          -5.288   3.941   0.061  0.00  0.00     0.084 H 
ATOM     11  H6  <0> d          -7.721   3.580   0.061  0.00  0.00     0.083 H 
ENDROOT
BRANCH   4  12
ATOM     12  C7  <0> d          -3.353   2.056   0.030  0.00  0.00     0.102 A 
ATOM     13  N2  <0> d          -2.406   1.085   0.020  0.00  0.00    -0.063 NA
ATOM     14  C9  <0> d          -1.219   1.642   0.017  0.00  0.00     0.698 A 
ATOM     15  N1  <0> d          -1.371   2.994   0.030  0.00  0.00    -0.198 N 
ATOM     16  C8  <0> d          -2.720   3.255   0.034  0.00  0.00     0.024 A 
ATOM     17  H1  <0> d          -0.636   3.672   0.037  0.00  0.00     0.183 HD
ATOM     18  H7  <0> d          -3.186   4.229   0.041  0.00  0.00     0.115 H 
BRANCH  14  19
ATOM     19  N3  <0> d          -0.011   0.966   0.007  0.00  0.00    -0.233 N 
ATOM     20  H8  <0> d           0.002  -0.004   0.002  0.00  0.00     0.174 HD
ATOM     21  H9  <0> d           0.822   1.462   0.002  0.00  0.00     0.174 HD
ENDBRANCH  14  19
ENDBRANCH   4  12
TORSDOF 2
