REMARK  4 active torsions:
REMARK  status: ('A' for Active; 'I' for Inactive)
REMARK    1  A    between atoms: C1_1  and  C2_2 
REMARK    2  A    between atoms: C3_3  and  C6_9 
REMARK    3  A    between atoms: C4_6  and  O2_7 
REMARK    4  A    between atoms: O2_7  and  C5_8 
ROOT
ATOM      1  C2  <0> d          -0.928   2.859   1.607  0.00  0.00     0.024 A 
ATOM      2  C3  <0> d          -0.718   1.572   1.248  0.00  0.00     0.085 A 
ATOM      3  O1  <0> d          -1.255   0.813   2.214  0.00  0.00    -0.215 OA
ATOM      4  N1  <0> d          -1.755   1.486   3.086  0.00  0.00    -0.102 NA
ATOM      5  C4  <0> d          -1.629   2.762   2.837  0.00  0.00     0.199 A 
ENDROOT
BRANCH   5   6
ATOM      6  O2  <0> d          -2.073   3.789   3.605  0.00  0.00    -0.337 OA
BRANCH   6   7
ATOM      7  C5  <0> d          -2.752   3.448   4.815  0.00  0.00     0.012 C 
ATOM      8  H4  <0> d          -3.636   2.854   4.580  0.00  0.00     0.067 H 
ATOM      9  H5  <0> d          -2.086   2.870   5.455  0.00  0.00     0.067 H 
ATOM     10  H6  <0> d          -3.054   4.359   5.332  0.00  0.00     0.067 H 
ENDBRANCH   6   7
ENDBRANCH   5   6
BRANCH   1  11
ATOM     11  C1  <0> d          -0.515   4.107   0.870  0.00  0.00    -0.045 C 
ATOM     12  H1  <0> d          -1.310   4.404   0.185  0.00  0.00     0.033 H 
ATOM     13  H2  <0> d          -0.335   4.909   1.586  0.00  0.00     0.033 H 
ATOM     14  H3  <0> d           0.397   3.912   0.306  0.00  0.00     0.033 H 
ENDBRANCH   1  11
BRANCH   2  15
ATOM     15  C6  <0> d          -0.013   1.086   0.008  0.00  0.00    -0.029 C 
ATOM     16  H7  <0> d           0.002  -0.004   0.002  0.00  0.00     0.036 H 
ATOM     17  H8  <0> d           1.010   1.463   0.000  0.00  0.00     0.036 H 
ATOM     18  H9  <0> d          -0.540   1.447  -0.875  0.00  0.00     0.036 H 
ENDBRANCH   2  15
TORSDOF 4
