REMARK  5 active torsions:
REMARK  status: ('A' for Active; 'I' for Inactive)
REMARK    1  A    between atoms: C1_1  and  C2_2 
REMARK    2  A    between atoms: C4_5  and  N2_7 
REMARK    3  A    between atoms: N2_7  and  C5_8 
REMARK    4  A    between atoms: C5_8  and  C6_9 
REMARK    5  A    between atoms: C5_8  and  C7_10 
ROOT
ATOM      1  N2  <0> d          -3.995   2.473   2.504  0.00  0.00    -0.365 N 
ATOM      2  H5  <0> d          -4.615   2.351   1.768  0.00  0.00     0.162 HD
ENDROOT
BRANCH   1   3
ATOM      3  C4  <0> d          -2.647   2.204   2.327  0.00  0.00     0.167 A 
ATOM      4  S1  <0> d          -1.348   2.341   3.470  0.00  0.00    -0.062 SA
ATOM      5  C3  <0> d          -0.029   1.806   2.390  0.00  0.00    -0.018 A 
ATOM      6  C2  <0> d          -0.718   1.572   1.248  0.00  0.00     0.040 A 
ATOM      7  H4  <0> d           1.026   1.698   2.592  0.00  0.00     0.098 H 
ATOM      8  N1  <0> d          -2.021   1.784   1.244  0.00  0.00    -0.229 NA
BRANCH   6   9
ATOM      9  C1  <0> d          -0.013   1.086   0.008  0.00  0.00    -0.035 C 
ATOM     10  H1  <0> d           0.002  -0.004   0.002  0.00  0.00     0.035 H 
ATOM     11  H2  <0> d           1.010   1.463   0.000  0.00  0.00     0.035 H 
ATOM     12  H3  <0> d          -0.540   1.447  -0.875  0.00  0.00     0.035 H 
ENDBRANCH   6   9
ENDBRANCH   1   3
BRANCH   1  13
ATOM     13  C5  <0> d          -4.484   2.942   3.803  0.00  0.00     0.004 C 
ATOM     14  H6  <0> d          -3.733   3.584   4.264  0.00  0.00     0.071 H 
BRANCH  13  15
ATOM     15  C6  <0> d          -5.778   3.734   3.605  0.00  0.00    -0.058 C 
ATOM     16  H7  <0> d          -6.530   3.093   3.144  0.00  0.00     0.030 H 
ATOM     17  H8  <0> d          -6.142   4.083   4.571  0.00  0.00     0.030 H 
ATOM     18  H9  <0> d          -5.585   4.590   2.958  0.00  0.00     0.030 H 
ENDBRANCH  13  15
BRANCH  13  19
ATOM     19  C7  <0> d          -4.755   1.741   4.710  0.00  0.00    -0.058 C 
ATOM     20  H10 <0> d          -3.833   1.177   4.851  0.00  0.00     0.030 H 
ATOM     21  H11 <0> d          -5.118   2.090   5.676  0.00  0.00     0.030 H 
ATOM     22  H12 <0> d          -5.506   1.099   4.249  0.00  0.00     0.030 H 
ENDBRANCH  13  19
ENDBRANCH   1  13
TORSDOF 5
