REMARK  1 active torsions:
REMARK  status: ('A' for Active; 'I' for Inactive)
REMARK    1  A    between atoms: C1_1  and  C2_2 
ROOT
ATOM      1  C2  <0> d           0.002  -0.004   0.002  0.00  0.00    -0.015 A 
ATOM      2  H1  <0> d          -1.046  -0.338  -0.022  0.00  0.00     0.049 H 
ATOM      3  C3  <0> d           0.773  -0.537   1.221  0.00  0.00    -0.000 A 
ATOM      4  N1  <0> d           1.899  -1.290   0.664  0.00  0.00    -0.389 N 
ATOM      5  C4  <0> d           1.861  -1.249  -0.731  0.00  0.00     0.034 A 
ATOM      6  C5  <0> d           0.778  -0.515  -1.191  0.00  0.00    -0.026 A 
ATOM      7  C6  <0> d           0.565  -0.357  -2.546  0.00  0.00    -0.074 A 
ATOM      8  C7  <0> d           1.431  -0.932  -3.458  0.00  0.00    -0.082 A 
ATOM      9  C8  <0> d           2.513  -1.666  -3.010  0.00  0.00    -0.081 A 
ATOM     10  C9  <0> d           2.732  -1.825  -1.658  0.00  0.00    -0.057 A 
ATOM     11  H5  <0> d           1.116   0.308   1.836  0.00  0.00     0.065 H 
ATOM     12  H6  <0> d           0.112  -1.181   1.820  0.00  0.00     0.065 H 
ATOM     13  H7  <0> d           2.618  -1.782   1.336  0.00  0.00     0.159 HD
ATOM     14  H8  <0> d          -0.281   0.217  -2.895  0.00  0.00     0.084 H 
ATOM     15  H9  <0> d           1.263  -0.807  -4.518  0.00  0.00     0.083 H 
ATOM     16  H10 <0> d           3.190  -2.115  -3.721  0.00  0.00     0.083 H 
ATOM     17  H11 <0> d           3.579  -2.400  -1.314  0.00  0.00     0.086 H 
ENDROOT
BRANCH   1  18
ATOM     18  C1  <0> d          -0.019   1.526   0.010  0.00  0.00    -0.067 C 
ATOM     19  H2  <0> d          -0.587   1.880   0.883  0.00  0.00     0.028 H 
ATOM     20  H3  <0> d          -0.496   1.891  -0.911  0.00  0.00     0.028 H 
ATOM     21  H4  <0> d           1.012   1.906   0.065  0.00  0.00     0.028 H 
ENDBRANCH   1  18
TORSDOF 1
