REMARK  5 active torsions:
REMARK  status: ('A' for Active; 'I' for Inactive)
REMARK    1  A    between atoms: C1_1  and  C2_2 
REMARK    2  A    between atoms: C2_2  and  C3_3 
REMARK    3  A    between atoms: C4_4  and  O2_11 
REMARK    4  A    between atoms: C5_6  and  C7_10 
REMARK    5  A    between atoms: C6_8  and  O1_9 
ROOT
ATOM      1  C3  <0> d          -0.718   1.572   1.248  0.00  0.00     0.047 A 
ATOM      2  C4  <0> d          -0.372   2.783   1.837  0.00  0.00     0.174 A 
ATOM      3  N1  <0> d          -1.021   3.179   2.927  0.00  0.00    -0.209 NA
ATOM      4  C5  <0> d          -1.973   2.436   3.455  0.00  0.00     0.128 A 
ATOM      5  N2  <0> d          -2.325   1.281   2.929  0.00  0.00    -0.209 NA
ATOM      6  C6  <0> d          -1.727   0.818   1.835  0.00  0.00     0.174 A 
ENDROOT
BRANCH   1   7
ATOM      7  C2  <0> d          -0.013   1.086   0.008  0.00  0.00    -0.036 C 
ATOM      8  H4  <0> d           0.002  -0.004   0.002  0.00  0.00     0.040 H 
ATOM      9  H5  <0> d           1.010   1.463   0.000  0.00  0.00     0.040 H 
BRANCH   7  10
ATOM     10  C1  <0> d          -0.753   1.593  -1.232  0.00  0.00    -0.072 C 
ATOM     11  H1  <0> d          -0.767   2.683  -1.226  0.00  0.00     0.028 H 
ATOM     12  H2  <0> d          -0.242   1.241  -2.128  0.00  0.00     0.028 H 
ATOM     13  H3  <0> d          -1.775   1.215  -1.224  0.00  0.00     0.028 H 
ENDBRANCH   7  10
ENDBRANCH   1   7
BRANCH   6  14
ATOM     14  O1  <0> d          -2.096  -0.372   1.302  0.00  0.00    -0.344 OA
ATOM     15  H6  <0> d          -1.604  -1.128   1.649  0.00  0.00     0.219 HD
ENDBRANCH   6  14
BRANCH   2  16
ATOM     16  O2  <0> d           0.610   3.550   1.304  0.00  0.00    -0.344 OA
ATOM     17  H10 <0> d           0.298   4.188   0.647  0.00  0.00     0.219 HD
ENDBRANCH   2  16
BRANCH   4  18
ATOM     18  C7  <0> d          -2.678   2.922   4.695  0.00  0.00    -0.019 C 
ATOM     19  H7  <0> d          -2.151   2.561   5.578  0.00  0.00     0.037 H 
ATOM     20  H8  <0> d          -2.693   4.012   4.701  0.00  0.00     0.037 H 
ATOM     21  H9  <0> d          -3.701   2.545   4.702  0.00  0.00     0.037 H 
ENDBRANCH   4  18
TORSDOF 5
