REMARK  3 active torsions:
REMARK  status: ('A' for Active; 'I' for Inactive)
REMARK    1  A    between atoms: C1_1  and  N1_2 
REMARK    2  A    between atoms: C3_4  and  C5_8 
REMARK    3  A    between atoms: C4_5  and  N3_7 
REMARK       I    between atoms: C5_8  and  N4_10 
ROOT
ATOM      1  N1  <0> d          -3.901  -0.780   0.017  0.00  0.00    -0.282 N 
ATOM      2  C2  <0> d          -2.589  -0.504   0.012  0.00  0.00     0.017 A 
ATOM      3  C3  <0> d          -2.452   0.871   0.018  0.00  0.00     0.096 A 
ATOM      4  C4  <0> d          -3.760   1.419   0.033  0.00  0.00     0.158 A 
ATOM      5  N2  <0> d          -4.612   0.425   0.027  0.00  0.00    -0.154 NA
ATOM      6  H4  <0> d          -1.785  -1.225   0.004  0.00  0.00     0.115 H 
ENDROOT
BRANCH   3   7
ATOM      7  C5  <0> d          -1.187   1.624   0.017  0.00  0.00     0.254 C 
ATOM      8  O1  <0> d          -1.204   2.840   0.023  0.00  0.00    -0.268 OA
ATOM      9  N4  <0> d          -0.011   0.966   0.007  0.00  0.00    -0.366 N 
ATOM     10  H7  <0> d           0.002  -0.004   0.002  0.00  0.00     0.159 HD
ATOM     11  H8  <0> d           0.822   1.462   0.002  0.00  0.00     0.159 HD
ENDBRANCH   3   7
BRANCH   4  12
ATOM     12  N3  <0> d          -4.081   2.777   0.048  0.00  0.00    -0.382 N 
ATOM     13  H5  <0> d          -3.375   3.442   0.049  0.00  0.00     0.157 HD
ATOM     14  H6  <0> d          -5.010   3.055   0.058  0.00  0.00     0.157 HD
ENDBRANCH   4  12
BRANCH   1  15
ATOM     15  C1  <0> d          -4.492  -2.120   0.013  0.00  0.00     0.002 C 
ATOM     16  H1  <0> d          -4.634  -2.458   1.040  0.00  0.00     0.059 H 
ATOM     17  H2  <0> d          -5.456  -2.091  -0.495  0.00  0.00     0.059 H 
ATOM     18  H3  <0> d          -3.828  -2.809  -0.508  0.00  0.00     0.059 H 
ENDBRANCH   1  15
TORSDOF 3
