REMARK  0 active torsions:
REMARK  status: ('A' for Active; 'I' for Inactive)
ROOT
ATOM      1  C1  <0> d          -0.017   1.393   0.010  0.00  0.00    -0.052 A 
ATOM      2  C2  <0> d           1.189   2.071   0.002  0.00  0.00     0.003 A 
ATOM      3  N1  <0> d           2.331   1.413  -0.013  0.00  0.00    -0.273 NA
ATOM      4  C3  <0> d           2.389   0.097  -0.022  0.00  0.00     0.009 A 
ATOM      5  C4  <0> d           1.232  -0.663  -0.016  0.00  0.00    -0.027 A 
ATOM      6  C5  <0> d           0.002  -0.004   0.002  0.00  0.00     0.019 A 
ATOM      7  C6  <0> d          -1.257  -0.776   0.018  0.00  0.00     0.160 C 
ATOM      8  O1  <0> d          -2.318  -0.241   0.239  0.00  0.00    -0.292 OA
ATOM      9  C7  <0> d          -1.167  -2.265  -0.253  0.00  0.00    -0.005 C 
ATOM     10  C8  <0> d           0.048  -2.799   0.517  0.00  0.00    -0.055 C 
ATOM     11  C9  <0> d           1.322  -2.163  -0.033  0.00  0.00    -0.038 C 
ATOM     12  H1  <0> d          -0.953   1.931   0.026  0.00  0.00     0.087 H 
ATOM     13  H2  <0> d           1.194   3.151   0.007  0.00  0.00     0.114 H 
ATOM     14  H3  <0> d           3.350  -0.395  -0.035  0.00  0.00     0.115 H 
ATOM     15  H4  <0> d          -2.073  -2.760   0.096  0.00  0.00     0.044 H 
ATOM     16  H5  <0> d          -1.035  -2.440  -1.320  0.00  0.00     0.044 H 
ATOM     17  H6  <0> d          -0.054  -2.551   1.574  0.00  0.00     0.034 H 
ATOM     18  H7  <0> d           0.103  -3.881   0.403  0.00  0.00     0.034 H 
ATOM     19  H8  <0> d           1.474  -2.500  -1.058  0.00  0.00     0.040 H 
ATOM     20  H9  <0> d           2.170  -2.477   0.575  0.00  0.00     0.040 H 
ENDROOT
TORSDOF 0
