REMARK  3 active torsions:
REMARK  status: ('A' for Active; 'I' for Inactive)
REMARK    1  A    between atoms: C1_1  and  C2_2 
REMARK    2  A    between atoms: C2_2  and  C3_4 
REMARK    3  A    between atoms: C8_9  and  N1_10 
ROOT
ATOM      1  C3  <0> d           1.174   3.160   0.010  0.00  0.00     0.038 A 
ATOM      2  C4  <0> d          -0.040   3.860   0.006  0.00  0.00    -0.030 A 
ATOM      3  C5  <0> d          -1.231   3.167   0.012  0.00  0.00     0.117 A 
ATOM      4  C6  <0> d          -1.235   1.778   0.015  0.00  0.00    -0.043 A 
ATOM      5  C7  <0> d          -0.048   1.076   0.025  0.00  0.00    -0.054 A 
ATOM      6  C8  <0> d           1.164   1.754   0.020  0.00  0.00     0.039 A 
ATOM      7  F1  <0> d          -2.401   3.843   0.007  0.00  0.00    -0.206 F 
ATOM      8  H4  <0> d          -0.042   4.940  -0.002  0.00  0.00     0.089 H 
ATOM      9  H5  <0> d          -2.174   1.245   0.015  0.00  0.00     0.088 H 
ATOM     10  H6  <0> d          -0.061  -0.004   0.033  0.00  0.00     0.087 H 
ENDROOT
BRANCH   1  11
ATOM     11  C2  <0> d           2.446   3.890   0.005  0.00  0.00     0.158 C 
ATOM     12  O1  <0> d           3.492   3.284  -0.100  0.00  0.00    -0.293 OA
BRANCH  11  13
ATOM     13  C1  <0> d           2.455   5.391   0.129  0.00  0.00    -0.017 C 
ATOM     14  H1  <0> d           1.421   5.758   0.213  0.00  0.00     0.038 H 
ATOM     15  H2  <0> d           2.928   5.830  -0.761  0.00  0.00     0.038 H 
ATOM     16  H3  <0> d           3.021   5.682   1.026  0.00  0.00     0.038 H 
ENDBRANCH  11  13
ENDBRANCH   1  11
BRANCH   6  17
ATOM     17  N1  <0> d           2.359   1.048   0.023  0.00  0.00    -0.398 N 
ATOM     18  H7  <0> d           2.348  -0.052   0.031  0.00  0.00     0.156 HD
ATOM     19  H8  <0> d           3.317   1.588   0.018  0.00  0.00     0.156 HD
ENDBRANCH   6  17
TORSDOF 3
