REMARK  1 active torsions:
REMARK  status: ('A' for Active; 'I' for Inactive)
REMARK    1  A    between atoms: C9_9  and  O1_11 
ROOT
ATOM      1  C1  <0> d          -1.219   1.751   0.017  0.00  0.00    -0.082 A 
ATOM      2  C2  <0> d          -0.013   1.076   0.008  0.00  0.00    -0.082 A 
ATOM      3  C3  <0> d           1.173   1.783   0.000  0.00  0.00    -0.074 A 
ATOM      4  C4  <0> d           1.159   3.168   0.008  0.00  0.00    -0.023 A 
ATOM      5  C5  <0> d          -0.047   3.844   0.023  0.00  0.00    -0.049 A 
ATOM      6  C6  <0> d          -1.235   3.132   0.031  0.00  0.00    -0.076 A 
ATOM      7  C7  <0> d           0.203   5.336   0.027  0.00  0.00    -0.038 C 
ATOM      8  C8  <0> d           1.678   5.498   0.454  0.00  0.00    -0.033 C 
ATOM      9  C9  <0> d           2.302   4.161   0.001  0.00  0.00     0.061 C 
ATOM     10  H1  <0> d           2.714   4.257  -1.004  0.00  0.00     0.090 H 
ATOM     11  H2  <0> d          -2.147   1.200   0.018  0.00  0.00     0.083 H 
ATOM     12  H3  <0> d           0.002  -0.004   0.002  0.00  0.00     0.083 H 
ATOM     13  H4  <0> d           2.115   1.255  -0.011  0.00  0.00     0.084 H 
ATOM     14  H5  <0> d          -2.178   3.659   0.043  0.00  0.00     0.084 H 
ATOM     15  H6  <0> d          -0.454   5.828   0.745  0.00  0.00     0.040 H 
ATOM     16  H7  <0> d           0.050   5.750  -0.969  0.00  0.00     0.040 H 
ATOM     17  H8  <0> d           1.758   5.617   1.534  0.00  0.00     0.037 H 
ATOM     18  H9  <0> d           2.141   6.337  -0.065  0.00  0.00     0.037 H 
ENDROOT
BRANCH   9  19
ATOM     19  O1  <0> d           3.319   3.753   0.918  0.00  0.00    -0.391 OA
ATOM     20  H10 <0> d           3.717   2.897   0.708  0.00  0.00     0.210 HD
ENDBRANCH   9  19
TORSDOF 1
