REMARK  3 active torsions:
REMARK  status: ('A' for Active; 'I' for Inactive)
REMARK    1  A    between atoms: C1_1  and  C2_2 
REMARK    2  A    between atoms: C6_7  and  C7_8 
REMARK    3  A    between atoms: C7_8  and  O1_9 
ROOT
ATOM      1  C2  <0> d           0.002  -0.004   0.002  0.00  0.00    -0.013 A 
ATOM      2  C3  <0> d           0.006  -0.701  -1.199  0.00  0.00     0.043 A 
ATOM      3  C4  <0> d           0.025  -2.087  -1.157  0.00  0.00    -0.044 A 
ATOM      4  C5  <0> d           0.040  -2.724   0.069  0.00  0.00     0.004 A 
ATOM      5  N1  <0> d           0.036  -2.029   1.190  0.00  0.00    -0.263 NA
ATOM      6  C6  <0> d           0.023  -0.710   1.189  0.00  0.00     0.065 A 
ATOM      7 Cl1  <0> d          -0.014   0.143  -2.716  0.00  0.00    -0.084 Cl
ATOM      8  H4  <0> d           0.029  -2.662  -2.072  0.00  0.00     0.088 H 
ATOM      9  H5  <0> d           0.055  -3.803   0.110  0.00  0.00     0.114 H 
ENDROOT
BRANCH   6  10
ATOM     10  C7  <0> d           0.025   0.036   2.499  0.00  0.00     0.057 C 
ATOM     11  H6  <0> d           0.554  -0.551   3.250  0.00  0.00     0.083 H 
ATOM     12  H7  <0> d           0.525   0.996   2.369  0.00  0.00     0.083 H 
BRANCH  10  13
ATOM     13  O1  <0> d          -1.321   0.253   2.925  0.00  0.00    -0.395 OA
ATOM     14  H8  <0> d          -1.396   0.729   3.764  0.00  0.00     0.209 HD
ENDBRANCH  10  13
ENDBRANCH   6  10
BRANCH   1  15
ATOM     15  C1  <0> d          -0.018   1.503   0.010  0.00  0.00    -0.048 C 
ATOM     16  H1  <0> d           1.004   1.880   0.003  0.00  0.00     0.033 H 
ATOM     17  H2  <0> d          -0.545   1.864  -0.873  0.00  0.00     0.033 H 
ATOM     18  H3  <0> d          -0.529   1.854   0.907  0.00  0.00     0.033 H 
ENDBRANCH   1  15
TORSDOF 3
