REMARK  2 active torsions:
REMARK  status: ('A' for Active; 'I' for Inactive)
REMARK    1  A    between atoms: C1_1  and  C2_2 
REMARK    2  A    between atoms: C4_4  and  C5_8 
ROOT
ATOM      1  C2  <0> d           0.002  -0.004   0.002  0.00  0.00     0.053 A 
ATOM      2  C3  <0> d           0.008  -0.818  -1.135  0.00  0.00    -0.026 A 
ATOM      3  C4  <0> d           0.028  -2.107  -0.725  0.00  0.00     0.135 A 
ATOM      4  N1  <0> d           0.034  -2.109   0.625  0.00  0.00    -0.273 N 
ATOM      5  H1  <0> d           0.048  -2.894   1.194  0.00  0.00     0.189 HD
ATOM      6  N2  <0> d           0.023  -0.777   1.058  0.00  0.00    -0.179 NA
ATOM      7  H5  <0> d          -0.002  -0.478  -2.160  0.00  0.00     0.090 H 
ENDROOT
BRANCH   1   8
ATOM      8  C1  <0> d          -0.018   1.503   0.010  0.00  0.00    -0.034 C 
ATOM      9  H2  <0> d           1.004   1.880   0.003  0.00  0.00     0.035 H 
ATOM     10  H3  <0> d          -0.545   1.864  -0.873  0.00  0.00     0.035 H 
ATOM     11  H4  <0> d          -0.529   1.854   0.907  0.00  0.00     0.035 H 
ENDBRANCH   1   8
BRANCH   3  12
ATOM     12  C5  <0> d           0.040  -3.323  -1.615  0.00  0.00     0.434 C 
ATOM     13  F1  <0> d           0.060  -4.478  -0.826  0.00  0.00    -0.165 F 
ATOM     14  F2  <0> d          -1.106  -3.325  -2.417  0.00  0.00    -0.165 F 
ATOM     15  F3  <0> d           1.178  -3.294  -2.429  0.00  0.00    -0.165 F 
ENDBRANCH   3  12
TORSDOF 2
