REMARK  3 active torsions:
REMARK  status: ('A' for Active; 'I' for Inactive)
REMARK    1  A    between atoms: C3_4  and  N2_9 
REMARK    2  A    between atoms: C5_6  and  C6_7 
REMARK    3  A    between atoms: C6_7  and  O1_8 
ROOT
ATOM      1  C1  <0> d           1.160   2.039   0.002  0.00  0.00    -0.058 A 
ATOM      2  C2  <0> d          -0.016   1.315   0.009  0.00  0.00     0.005 A 
ATOM      3  N1  <0> d           0.002  -0.004   0.002  0.00  0.00    -0.244 NA
ATOM      4  C3  <0> d           1.139  -0.683  -0.013  0.00  0.00     0.121 A 
ATOM      5  C4  <0> d           2.361  -0.018  -0.021  0.00  0.00    -0.031 A 
ATOM      6  C5  <0> d           2.373   1.365  -0.014  0.00  0.00    -0.030 A 
ATOM      7  H1  <0> d           1.135   3.119   0.008  0.00  0.00     0.086 H 
ATOM      8  H2  <0> d          -0.962   1.835   0.017  0.00  0.00     0.114 H 
ATOM      9  H3  <0> d           3.286  -0.574  -0.034  0.00  0.00     0.090 H 
ENDROOT
BRANCH   6  10
ATOM     10  C6  <0> d           3.676   2.124  -0.022  0.00  0.00     0.041 C 
ATOM     11  H4  <0> d           3.547   3.073   0.498  0.00  0.00     0.081 H 
ATOM     12  H5  <0> d           4.442   1.535   0.481  0.00  0.00     0.081 H 
BRANCH  10  13
ATOM     13  O1  <0> d           4.074   2.371  -1.372  0.00  0.00    -0.396 OA
ATOM     14  H6  <0> d           4.907   2.856  -1.454  0.00  0.00     0.209 HD
ENDBRANCH  10  13
ENDBRANCH   6  10
BRANCH   4  15
ATOM     15  N2  <0> d           1.111  -2.073  -0.020  0.00  0.00    -0.384 N 
ATOM     16  H7  <0> d           0.262  -2.541  -0.014  0.00  0.00     0.157 HD
ATOM     17  H8  <0> d           1.942  -2.574  -0.030  0.00  0.00     0.157 HD
ENDBRANCH   4  15
TORSDOF 3
