REMARK  2 active torsions:
REMARK  status: ('A' for Active; 'I' for Inactive)
REMARK    1  A    between atoms: C1_1  and  C3_7 
REMARK    2  A    between atoms: C2_2  and  N3_6 
ROOT
ATOM      1  C1  <0> d          -0.018   1.476   0.010  0.00  0.00     0.185 A 
ATOM      2  C2  <0> d          -1.219   2.320   0.020  0.00  0.00     0.186 A 
ATOM      3  N1  <0> d          -0.842   3.569   0.029  0.00  0.00    -0.085 NA
ATOM      4  O1  <0> d           0.574   3.598   0.016  0.00  0.00    -0.104 OA
ATOM      5  N2  <0> d           1.031   2.257   0.004  0.00  0.00    -0.097 NA
ENDROOT
BRANCH   1   6
ATOM      6  C3  <0> d           0.002  -0.004   0.002  0.00  0.00     0.231 A 
ATOM      7  N6  <0> d          -1.044  -0.809   0.007  0.00  0.00    -0.104 NA
ATOM      8  N5  <0> d          -0.609  -2.022  -0.004  0.00  0.00    -0.021 NA
ATOM      9  N4  <0> d           0.677  -2.020  -0.016  0.00  0.00    -0.021 NA
ATOM     10  N7  <0> d           1.083  -0.805  -0.018  0.00  0.00    -0.104 NA
ENDBRANCH   1   6
BRANCH   2  11
ATOM     11  N3  <0> d          -2.532   1.867   0.023  0.00  0.00    -0.380 N 
ATOM     12  H1  <0> d          -2.716   0.915   0.018  0.00  0.00     0.158 HD
ATOM     13  H2  <0> d          -3.265   2.503   0.029  0.00  0.00     0.158 HD
ENDBRANCH   2  11
TORSDOF 2
