REMARK  3 active torsions:
REMARK  status: ('A' for Active; 'I' for Inactive)
REMARK    1  A    between atoms: C1_1  and  C2_2 
REMARK       I    between atoms: C2_2  and  N1_4 
REMARK    2  A    between atoms: N1_4  and  C3_5 
REMARK    3  A    between atoms: C3_5  and  C4_6 
ROOT
ATOM      1  C4  <0> d          -0.788   1.610   1.237  0.00  0.00     0.053 C 
ATOM      2  H1  <0> d          -1.490   0.856   1.593  0.00  0.00     0.085 H 
ATOM      3  C5  <0> d          -0.013   1.086   0.008  0.00  0.00    -0.037 C 
ATOM      4  C6  <0> d          -0.811   1.623  -1.201  0.00  0.00    -0.043 C 
ATOM      5  C7  <0> d          -1.978   2.408  -0.561  0.00  0.00     0.020 C 
ATOM      6  O2  <0> d          -1.501   2.772   0.753  0.00  0.00    -0.384 OA
ATOM      7  H8  <0> d           0.002  -0.004   0.002  0.00  0.00     0.036 H 
ATOM      8  H9  <0> d           1.003   1.481   0.000  0.00  0.00     0.036 H 
ATOM      9  H10 <0> d          -0.191   2.285  -1.804  0.00  0.00     0.036 H 
ATOM     10  H11 <0> d          -1.189   0.799  -1.806  0.00  0.00     0.036 H 
ATOM     11  H12 <0> d          -2.199   3.302  -1.145  0.00  0.00     0.074 H 
ATOM     12  H13 <0> d          -2.863   1.777  -0.484  0.00  0.00     0.074 H 
ENDROOT
BRANCH   1  13
ATOM     13  C3  <0> d           0.184   2.003   2.352  0.00  0.00     0.019 C 
ATOM     14  H6  <0> d           0.831   1.158   2.585  0.00  0.00     0.068 H 
ATOM     15  H7  <0> d           0.792   2.846   2.023  0.00  0.00     0.068 H 
BRANCH  13  16
ATOM     16  N1  <0> d          -0.573   2.384   3.547  0.00  0.00    -0.359 N 
ATOM     17  C2  <0> d           0.079   2.770   4.662  0.00  0.00     0.213 C 
ATOM     18  O1  <0> d           1.291   2.802   4.676  0.00  0.00    -0.274 OA
ATOM     19  H5  <0> d          -1.542   2.357   3.536  0.00  0.00     0.162 HD
BRANCH  17  20
ATOM     20  C1  <0> d          -0.700   3.161   5.892  0.00  0.00    -0.003 C 
ATOM     21  H2  <0> d          -1.767   3.069   5.691  0.00  0.00     0.040 H 
ATOM     22  H3  <0> d          -0.428   2.504   6.718  0.00  0.00     0.040 H 
ATOM     23  H4  <0> d          -0.467   4.192   6.157  0.00  0.00     0.040 H 
ENDBRANCH  17  20
ENDBRANCH  13  16
ENDBRANCH   1  13
TORSDOF 3
