REMARK  2 active torsions:
REMARK  status: ('A' for Active; 'I' for Inactive)
REMARK    1  A    between atoms: C1_1  and  N1_2 
REMARK    2  A    between atoms: C2_3  and  N3_11 
ROOT
ATOM      1  N1  <0> d           0.002  -0.004   0.002  0.00  0.00    -0.258 N 
ATOM      2  C2  <0> d           0.008  -0.795  -1.098  0.00  0.00     0.125 A 
ATOM      3  C3  <0> d           0.027  -2.080  -0.674  0.00  0.00     0.013 A 
ATOM      4  C4  <0> d           0.032  -2.073   0.730  0.00  0.00     0.065 A 
ATOM      5  N2  <0> d           0.025  -0.835   1.132  0.00  0.00    -0.175 NA
ATOM      6  C5  <0> d           0.046  -3.328   1.569  0.00  0.00    -0.022 C 
ATOM      7  C6  <0> d          -0.362  -4.506   0.676  0.00  0.00    -0.060 C 
ATOM      8  C7  <0> d           0.479  -4.502  -0.602  0.00  0.00    -0.061 C 
ATOM      9  C8  <0> d           0.044  -3.340  -1.504  0.00  0.00    -0.035 C 
ATOM     10  H4  <0> d           1.049  -3.495   1.963  0.00  0.00     0.042 H 
ATOM     11  H5  <0> d          -0.661  -3.228   2.392  0.00  0.00     0.042 H 
ATOM     12  H6  <0> d          -0.201  -5.441   1.213  0.00  0.00     0.033 H 
ATOM     13  H7  <0> d          -1.417  -4.415   0.416  0.00  0.00     0.033 H 
ATOM     14  H8  <0> d           1.532  -4.386  -0.343  0.00  0.00     0.033 H 
ATOM     15  H9  <0> d           0.339  -5.444  -1.132  0.00  0.00     0.033 H 
ATOM     16  H10 <0> d          -0.953  -3.534  -1.898  0.00  0.00     0.040 H 
ATOM     17  H11 <0> d           0.750  -3.229  -2.327  0.00  0.00     0.040 H 
ENDROOT
BRANCH   1  18
ATOM     18  C1  <0> d          -0.018   1.461   0.010  0.00  0.00     0.004 C 
ATOM     19  H1  <0> d           1.005   1.838   0.002  0.00  0.00     0.059 H 
ATOM     20  H2  <0> d          -0.545   1.822  -0.873  0.00  0.00     0.059 H 
ATOM     21  H3  <0> d          -0.528   1.812   0.907  0.00  0.00     0.059 H 
ENDBRANCH   1  18
BRANCH   2  22
ATOM     22  N3  <0> d          -0.004  -0.364  -2.422  0.00  0.00    -0.384 N 
ATOM     23  H12 <0> d          -0.018   0.585  -2.624  0.00  0.00     0.157 HD
ATOM     24  H13 <0> d           0.001  -1.013  -3.143  0.00  0.00     0.157 HD
ENDBRANCH   2  22
TORSDOF 2
