REMARK  5 active torsions:
REMARK  status: ('A' for Active; 'I' for Inactive)
REMARK    1  A    between atoms: C1_1  and  C2_2 
REMARK    2  A    between atoms: C2_2  and  C3_3 
REMARK    3  A    between atoms: C3_3  and  N1_4 
REMARK    4  A    between atoms: C5_8  and  S1_9 
REMARK    5  A    between atoms: S1_9  and  C6_10 
ROOT
ATOM      1  N1  <0> d          -1.413  -1.998   0.005  0.00  0.00    -0.318 N 
ATOM      2  C4  <0> d          -1.502  -2.820  -1.085  0.00  0.00     0.089 A 
ATOM      3  N2  <0> d          -1.444  -4.047  -0.652  0.00  0.00    -0.143 NA
ATOM      4  N3  <0> d          -1.326  -4.058   0.628  0.00  0.00    -0.123 NA
ATOM      5  C5  <0> d          -1.297  -2.827   1.084  0.00  0.00     0.190 A 
ATOM      6  H8  <0> d          -1.601  -2.508  -2.115  0.00  0.00     0.146 H 
ENDROOT
BRANCH   1   7
ATOM      7  C3  <0> d          -1.433  -0.534   0.013  0.00  0.00     0.002 C 
ATOM      8  H6  <0> d          -1.944  -0.182   0.910  0.00  0.00     0.065 H 
ATOM      9  H7  <0> d          -1.960  -0.173  -0.870  0.00  0.00     0.065 H 
BRANCH   7  10
ATOM     10  C2  <0> d           0.002  -0.004   0.002  0.00  0.00    -0.053 C 
ATOM     11  H4  <0> d           0.512  -0.356  -0.895  0.00  0.00     0.034 H 
ATOM     12  H5  <0> d           0.529  -0.365   0.885  0.00  0.00     0.034 H 
BRANCH  10  13
ATOM     13  C1  <0> d          -0.019   1.526   0.010  0.00  0.00    -0.075 C 
ATOM     14  H1  <0> d           1.004   1.903   0.003  0.00  0.00     0.027 H 
ATOM     15  H2  <0> d          -0.546   1.887  -0.873  0.00  0.00     0.027 H 
ATOM     16  H3  <0> d          -0.529   1.877   0.907  0.00  0.00     0.027 H 
ENDBRANCH  10  13
ENDBRANCH   7  10
ENDBRANCH   1   7
BRANCH   5  17
ATOM     17  S1  <0> d          -1.141  -2.338   2.769  0.00  0.00    -0.095 SA
BRANCH  17  18
ATOM     18  C6  <0> d          -1.031  -3.906   3.673  0.00  0.00    -0.027 C 
ATOM     19  H9  <0> d          -0.930  -3.705   4.740  0.00  0.00     0.042 H 
ATOM     20  H10 <0> d          -1.934  -4.491   3.498  0.00  0.00     0.042 H 
ATOM     21  H11 <0> d          -0.162  -4.466   3.326  0.00  0.00     0.042 H 
ENDBRANCH  17  18
ENDBRANCH   5  17
TORSDOF 5
