REMARK  0 active torsions:
REMARK  status: ('A' for Active; 'I' for Inactive)
ROOT
ATOM      1  C1  <0> d          -0.016   1.347   0.009  0.00  0.00    -0.021 A 
ATOM      2  C2  <0> d           1.313   1.788  -0.001  0.00  0.00     0.025 A 
ATOM      3  N1  <0> d           2.098   0.738  -0.013  0.00  0.00    -0.183 NA
ATOM      4  N2  <0> d           1.300  -0.405  -0.011  0.00  0.00    -0.255 N 
ATOM      5  C3  <0> d           0.002  -0.004   0.002  0.00  0.00     0.121 A 
ATOM      6  N3  <0> d          -1.063  -0.907   0.004  0.00  0.00    -0.375 N 
ATOM      7  C4  <0> d          -0.724  -2.313  -0.296  0.00  0.00    -0.004 C 
ATOM      8  C5  <0> d           0.554  -2.678   0.469  0.00  0.00    -0.034 C 
ATOM      9  C6  <0> d           1.719  -1.809  -0.019  0.00  0.00     0.020 C 
ATOM     10  H1  <0> d          -0.896   1.973   0.025  0.00  0.00     0.091 H 
ATOM     11  H2  <0> d           1.637   2.819   0.001  0.00  0.00     0.117 H 
ATOM     12  H3  <0> d          -1.973  -0.628   0.191  0.00  0.00     0.161 HD
ATOM     13  H4  <0> d          -1.539  -2.962   0.022  0.00  0.00     0.064 H 
ATOM     14  H5  <0> d          -0.555  -2.428  -1.367  0.00  0.00     0.064 H 
ATOM     15  H6  <0> d           0.398  -2.510   1.535  0.00  0.00     0.037 H 
ATOM     16  H7  <0> d           0.789  -3.728   0.299  0.00  0.00     0.037 H 
ATOM     17  H8  <0> d           1.994  -2.102  -1.032  0.00  0.00     0.067 H 
ATOM     18  H9  <0> d           2.574  -1.939   0.645  0.00  0.00     0.067 H 
ENDROOT
TORSDOF 0
