REMARK  1 active torsions:
REMARK  status: ('A' for Active; 'I' for Inactive)
REMARK    1  A    between atoms: C5_8  and  N4_11 
ROOT
ATOM      1  C1  <0> d          -0.016   1.359   0.009  0.00  0.00    -0.020 A 
ATOM      2  C2  <0> d           1.306   1.806  -0.001  0.00  0.00     0.026 A 
ATOM      3  N1  <0> d           2.099   0.763  -0.014  0.00  0.00    -0.175 NA
ATOM      4  N2  <0> d           1.310  -0.394  -0.013  0.00  0.00    -0.179 N 
ATOM      5  C3  <0> d           0.002  -0.004   0.002  0.00  0.00     0.134 A 
ATOM      6  N3  <0> d          -1.006  -0.947   0.006  0.00  0.00    -0.348 N 
ATOM      7  C4  <0> d          -0.700  -2.280  -0.004  0.00  0.00     0.009 A 
ATOM      8  C5  <0> d           0.597  -2.675  -0.019  0.00  0.00     0.112 A 
ATOM      9  C6  <0> d           1.625  -1.704  -0.023  0.00  0.00     0.297 A 
ATOM     10  O1  <0> d           2.792  -2.051  -0.037  0.00  0.00    -0.264 OA
ATOM     11  H1  <0> d          -0.898   1.983   0.025  0.00  0.00     0.091 H 
ATOM     12  H2  <0> d           1.622   2.838   0.002  0.00  0.00     0.117 H 
ATOM     13  H3  <0> d          -1.490  -3.017  -0.001  0.00  0.00     0.115 H 
ATOM     14  H6  <0> d          -1.934  -0.664   0.017  0.00  0.00     0.167 HD
ENDROOT
BRANCH   8  15
ATOM     15  N4  <0> d           0.918  -4.045  -0.030  0.00  0.00    -0.394 N 
ATOM     16  H4  <0> d           0.211  -4.709  -0.028  0.00  0.00     0.156 HD
ATOM     17  H5  <0> d           1.847  -4.325  -0.041  0.00  0.00     0.156 HD
ENDBRANCH   8  15
TORSDOF 1
