REMARK  2 active torsions:
REMARK  status: ('A' for Active; 'I' for Inactive)
REMARK    1  A    between atoms: C1_1  and  C2_2 
REMARK       I    between atoms: C2_2  and  N1_4 
REMARK    2  A    between atoms: C6_8  and  C7_10 
REMARK       I    between atoms: C7_10  and  N2_12 
ROOT
ATOM      1  C2  <0> d          -3.167   2.389   1.530  0.00  0.00     0.216 C 
ATOM      2  O1  <0> d          -2.967   2.644   2.699  0.00  0.00    -0.274 OA
ATOM      3  N1  <0> d          -2.171   1.894   0.768  0.00  0.00    -0.339 N 
ATOM      4  C3  <0> d          -2.275   1.541  -0.659  0.00  0.00    -0.001 C 
ATOM      5  C4  <0> d          -0.825   1.630  -1.196  0.00  0.00    -0.048 C 
ATOM      6  C5  <0> d          -0.013   1.086   0.008  0.00  0.00    -0.036 C 
ATOM      7  C6  <0> d          -0.798   1.615   1.227  0.00  0.00     0.091 C 
ATOM      8  H1  <0> d          -0.335   2.530   1.597  0.00  0.00     0.087 H 
ATOM      9  H5  <0> d          -2.917   2.252  -1.180  0.00  0.00     0.064 H 
ATOM     10  H6  <0> d          -2.661   0.528  -0.774  0.00  0.00     0.064 H 
ATOM     11  H7  <0> d          -0.553   2.663  -1.417  0.00  0.00     0.035 H 
ATOM     12  H8  <0> d          -0.694   0.998  -2.075  0.00  0.00     0.035 H 
ATOM     13  H9  <0> d           0.002  -0.004   0.002  0.00  0.00     0.036 H 
ATOM     14  H10 <0> d           1.002   1.484   0.001  0.00  0.00     0.036 H 
ENDROOT
BRANCH   1  15
ATOM     15  C1  <0> d          -4.528   2.627   0.929  0.00  0.00    -0.003 C 
ATOM     16  H2  <0> d          -4.928   1.685   0.552  0.00  0.00     0.040 H 
ATOM     17  H3  <0> d          -5.197   3.027   1.691  0.00  0.00     0.040 H 
ATOM     18  H4  <0> d          -4.444   3.340   0.109  0.00  0.00     0.040 H 
ENDBRANCH   1  15
BRANCH   7  19
ATOM     19  C7  <0> d          -0.819   0.572   2.315  0.00  0.00     0.238 C 
ATOM     20  O2  <0> d          -1.798  -0.128   2.465  0.00  0.00    -0.271 OA
ATOM     21  N2  <0> d           0.251   0.416   3.120  0.00  0.00    -0.368 N 
ATOM     22  H11 <0> d           1.034   0.975   2.999  0.00  0.00     0.159 HD
ATOM     23  H12 <0> d           0.237  -0.256   3.820  0.00  0.00     0.159 HD
ENDBRANCH   7  19
TORSDOF 2
