REMARK  1 active torsions:
REMARK  status: ('A' for Active; 'I' for Inactive)
REMARK    1  A    between atoms: C6_6  and  O1_7 
ROOT
ATOM      1  C1  <0> d           1.207  -0.682  -0.016  0.00  0.00    -0.048 A 
ATOM      2  C2  <0> d           0.002  -0.004   0.002  0.00  0.00    -0.045 A 
ATOM      3  C3  <0> d          -0.017   1.382   0.010  0.00  0.00     0.102 A 
ATOM      4  C4  <0> d           1.179   2.092   0.002  0.00  0.00     0.104 A 
ATOM      5  C5  <0> d           2.386   1.410  -0.017  0.00  0.00    -0.016 A 
ATOM      6  C6  <0> d           2.400   0.024  -0.027  0.00  0.00     0.068 A 
ATOM      7  O2  <0> d           1.181   3.453   0.018  0.00  0.00    -0.346 OA
ATOM      8  C7  <0> d          -0.044   4.103  -0.339  0.00  0.00     0.046 C 
ATOM      9  C8  <0> d          -1.192   3.412   0.409  0.00  0.00     0.046 C 
ATOM     10  O3  <0> d          -1.213   2.033   0.019  0.00  0.00    -0.346 OA
ATOM     11  H1  <0> d           1.218  -1.762  -0.022  0.00  0.00     0.087 H 
ATOM     12  H2  <0> d          -0.926  -0.556   0.010  0.00  0.00     0.088 H 
ATOM     13  H3  <0> d           3.316   1.960  -0.026  0.00  0.00     0.092 H 
ATOM     14  H5  <0> d           0.001   5.154  -0.053  0.00  0.00     0.078 H 
ATOM     15  H6  <0> d          -0.203   4.021  -1.415  0.00  0.00     0.078 H 
ATOM     16  H7  <0> d          -1.029   3.489   1.484  0.00  0.00     0.078 H 
ATOM     17  H8  <0> d          -2.139   3.882   0.145  0.00  0.00     0.078 H 
ENDROOT
BRANCH   6  18
ATOM     18  O1  <0> d           3.585  -0.644  -0.046  0.00  0.00    -0.361 OA
ATOM     19  H4  <0> d           3.916  -0.831  -0.935  0.00  0.00     0.217 HD
ENDBRANCH   6  18
TORSDOF 1
