REMARK  4 active torsions:
REMARK  status: ('A' for Active; 'I' for Inactive)
REMARK    1  A    between atoms: C1_1  and  C2_2 
REMARK    2  A    between atoms: C2_2  and  O1_3 
REMARK    3  A    between atoms: O1_3  and  C3_4 
REMARK    4  A    between atoms: C4_5  and  C5_6 
ROOT
ATOM      1  O1  <0> d           0.693  -0.477   1.160  0.00  0.00    -0.304 OA
ENDROOT
BRANCH   1   2
ATOM      2  C2  <0> d           0.002  -0.004   0.002  0.00  0.00     0.032 C 
ATOM      3  H4  <0> d          -1.020  -0.381   0.010  0.00  0.00     0.075 H 
ATOM      4  H5  <0> d           0.512  -0.356  -0.895  0.00  0.00     0.075 H 
BRANCH   2   5
ATOM      5  C1  <0> d          -0.019   1.526   0.010  0.00  0.00    -0.055 C 
ATOM      6  H1  <0> d           1.004   1.903   0.003  0.00  0.00     0.030 H 
ATOM      7  H2  <0> d          -0.546   1.887  -0.873  0.00  0.00     0.030 H 
ATOM      8  H3  <0> d          -0.529   1.877   0.907  0.00  0.00     0.030 H 
ENDBRANCH   2   5
ENDBRANCH   1   2
BRANCH   1   9
ATOM      9  C3  <0> d           0.766  -1.828   1.244  0.00  0.00     0.059 C 
ATOM     10  C4  <0> d           0.829  -2.998   1.318  0.00  0.00    -0.049 C 
BRANCH  10  11
ATOM     11  C5  <0> d           0.906  -4.425   1.407  0.00  0.00    -0.040 C 
ATOM     12  C6  <0> d           1.524  -4.995   2.439  0.00  0.00    -0.114 C 
ATOM     13  H7  <0> d           1.582  -6.071   2.506  0.00  0.00     0.067 H 
ATOM     14  H8  <0> d           1.968  -4.380   3.208  0.00  0.00     0.067 H 
ATOM     15  H6  <0> d           0.462  -5.039   0.638  0.00  0.00     0.096 H 
ENDBRANCH  10  11
ENDBRANCH   1   9
TORSDOF 4
