REMARK  5 active torsions:
REMARK  status: ('A' for Active; 'I' for Inactive)
REMARK    1  A    between atoms: C1_1  and  O1_2 
REMARK    2  A    between atoms: O1_2  and  C2_3 
REMARK    3  A    between atoms: C2_3  and  C3_4 
REMARK    4  A    between atoms: C3_4  and  C4_5 
REMARK    5  A    between atoms: C4_5  and  C5_6 
ROOT
ATOM      1  C3  <0> d           2.696   3.548  -0.005  0.00  0.00    -0.036 C 
ATOM      2  H6  <0> d           3.204   3.160   0.878  0.00  0.00     0.036 H 
ATOM      3  H7  <0> d           3.187   3.170  -0.901  0.00  0.00     0.036 H 
ENDROOT
BRANCH   1   4
ATOM      4  C2  <0> d           2.755   5.077   0.003  0.00  0.00     0.019 C 
ATOM      5  H4  <0> d           2.248   5.465  -0.880  0.00  0.00     0.074 H 
ATOM      6  H5  <0> d           2.265   5.455   0.900  0.00  0.00     0.074 H 
BRANCH   4   7
ATOM      7  O1  <0> d           4.120   5.501  -0.008  0.00  0.00    -0.396 OA
BRANCH   7   8
ATOM      8  C1  <0> d           4.288   6.920  -0.002  0.00  0.00     0.004 C 
ATOM      9  H1  <0> d           5.351   7.160  -0.011  0.00  0.00     0.066 H 
ATOM     10  H2  <0> d           3.812   7.346  -0.885  0.00  0.00     0.066 H 
ATOM     11  H3  <0> d           3.829   7.336   0.895  0.00  0.00     0.066 H 
ENDBRANCH   7   8
ENDBRANCH   4   7
ENDBRANCH   1   4
BRANCH   1  12
ATOM     12  C4  <0> d           1.235   3.094   0.007  0.00  0.00     0.018 C 
ATOM     13  H8  <0> d           0.727   3.482  -0.876  0.00  0.00     0.049 H 
ATOM     14  H9  <0> d           0.744   3.473   0.904  0.00  0.00     0.049 H 
BRANCH  12  15
ATOM     15  C5  <0> d           1.177   1.588  -0.001  0.00  0.00     0.172 C 
ATOM     16  O2  <0> d           2.199   0.944  -0.014  0.00  0.00    -0.648 OA
ATOM     17  O3  <0> d          -0.011   0.963   0.007  0.00  0.00    -0.648 OA
ENDBRANCH  12  15
ENDBRANCH   1  12
TORSDOF 5
