REMARK  4 active torsions:
REMARK  status: ('A' for Active; 'I' for Inactive)
REMARK    1  A    between atoms: C1_1  and  C2_2 
REMARK    2  A    between atoms: C2_2  and  O1_3 
REMARK    3  A    between atoms: O1_3  and  C3_4 
REMARK    4  A    between atoms: C3_4  and  C4_6 
ROOT
ATOM      1  C3  <0> d           0.801  -1.814   1.304  0.00  0.00     0.308 C 
ATOM      2  O2  <0> d           0.321  -2.556   0.470  0.00  0.00    -0.258 OA
ENDROOT
BRANCH   1   3
ATOM      3  O1  <0> d           0.693  -0.477   1.160  0.00  0.00    -0.317 OA
BRANCH   3   4
ATOM      4  C2  <0> d           0.002  -0.004   0.002  0.00  0.00     0.026 C 
ATOM      5  H4  <0> d          -1.020  -0.381   0.010  0.00  0.00     0.074 H 
ATOM      6  H5  <0> d           0.512  -0.356  -0.895  0.00  0.00     0.074 H 
BRANCH   4   7
ATOM      7  C1  <0> d          -0.019   1.526   0.010  0.00  0.00    -0.056 C 
ATOM      8  H1  <0> d           1.004   1.903   0.003  0.00  0.00     0.030 H 
ATOM      9  H2  <0> d          -0.546   1.887  -0.873  0.00  0.00     0.030 H 
ATOM     10  H3  <0> d          -0.529   1.877   0.907  0.00  0.00     0.030 H 
ENDBRANCH   4   7
ENDBRANCH   3   4
ENDBRANCH   1   3
BRANCH   1  11
ATOM     11  C4  <0> d           1.500  -2.373   2.472  0.00  0.00     0.112 A 
ATOM     12  C7  <0> d           1.712  -3.841   2.791  0.00  0.00    -0.002 A 
ATOM     13  C6  <0> d           2.484  -3.790   4.097  0.00  0.00    -0.080 A 
ATOM     14  H8  <0> d           0.758  -4.350   2.924  0.00  0.00     0.048 H 
ATOM     15  H9  <0> d           2.304  -4.323   2.013  0.00  0.00     0.048 H 
ATOM     16  C5  <0> d           2.617  -2.489   4.372  0.00  0.00    -0.001 A 
ATOM     17  H7  <0> d           2.845  -4.625   4.679  0.00  0.00     0.079 H 
ATOM     18  N1  <0> d           2.055  -1.709   3.443  0.00  0.00    -0.259 NA
ATOM     19  H6  <0> d           3.123  -2.110   5.248  0.00  0.00     0.114 H 
ENDBRANCH   1  11
TORSDOF 4
