REMARK  2 active torsions:
REMARK  status: ('A' for Active; 'I' for Inactive)
REMARK    1  A    between atoms: C1_1  and  C2_2 
REMARK    2  A    between atoms: C2_2  and  C4_6 
ROOT
ATOM      1  C2  <0> d          -1.054   5.133   0.037  0.00  0.00     0.058 C 
ATOM      2  H1  <0> d          -0.217   5.848   0.068  0.00  0.00     0.070 H 
ATOM      3  C3  <0> d          -1.865   5.340   1.248  0.00  0.00     0.069 C 
ATOM      4  N1  <0> d          -2.492   5.498   2.182  0.00  0.00    -0.197 NA
ENDROOT
BRANCH   1   5
ATOM      5  C1  <0> d          -1.920   5.360  -1.203  0.00  0.00    -0.057 C 
ATOM      6  H2  <0> d          -1.314   5.206  -2.107  0.00  0.00     0.029 H 
ATOM      7  H3  <0> d          -2.311   6.388  -1.194  0.00  0.00     0.029 H 
ATOM      8  H4  <0> d          -2.759   4.648  -1.199  0.00  0.00     0.029 H 
ENDBRANCH   1   5
BRANCH   1   9
ATOM      9  C4  <0> d          -0.518   3.725   0.025  0.00  0.00    -0.000 A 
ATOM     10  S1  <0> d          -1.415   2.181   0.019  0.00  0.00    -0.105 SA
ATOM     11  C7  <0> d          -0.013   1.076   0.008  0.00  0.00    -0.044 A 
ATOM     12  C6  <0> d           1.029   1.944   0.003  0.00  0.00    -0.076 A 
ATOM     13  H7  <0> d           0.002  -0.004   0.002  0.00  0.00     0.095 H 
ATOM     14  C5  <0> d           0.770   3.301   0.012  0.00  0.00    -0.069 A 
ATOM     15  H6  <0> d           2.045   1.580  -0.009  0.00  0.00     0.084 H 
ATOM     16  H5  <0> d           1.581   4.014   0.008  0.00  0.00     0.085 H 
ENDBRANCH   1   9
TORSDOF 2
