REMARK  2 active torsions:
REMARK  status: ('A' for Active; 'I' for Inactive)
REMARK    1  A    between atoms: C1_1  and  C2_2 
REMARK    2  A    between atoms: C3_3  and  C6_9 
ROOT
ATOM      1  C2  <0> d           0.002  -0.004   0.002  0.00  0.00     0.003 A 
ATOM      2  C3  <0> d           0.006  -0.707  -1.192  0.00  0.00     0.041 A 
ATOM      3  N1  <0> d           0.024  -2.030  -1.160  0.00  0.00    -0.246 NA
ATOM      4  C4  <0> d           0.038  -2.679  -0.013  0.00  0.00     0.088 A 
ATOM      5  N2  <0> d           0.035  -2.045   1.143  0.00  0.00    -0.229 NA
ATOM      6  C5  <0> d           0.023  -0.721   1.190  0.00  0.00     0.135 A 
ATOM      7 Cl1  <0> d           0.026   0.105   2.717  0.00  0.00    -0.062 Cl
ATOM      8  H4  <0> d           0.053  -3.759  -0.020  0.00  0.00     0.146 H 
ENDROOT
BRANCH   1   9
ATOM      9  C1  <0> d          -0.018   1.503   0.010  0.00  0.00    -0.046 C 
ATOM     10  H1  <0> d           1.004   1.880   0.003  0.00  0.00     0.033 H 
ATOM     11  H2  <0> d          -0.545   1.864  -0.873  0.00  0.00     0.033 H 
ATOM     12  H3  <0> d          -0.529   1.854   0.907  0.00  0.00     0.033 H 
ENDBRANCH   1   9
BRANCH   2  13
ATOM     13  C6  <0> d          -0.010   0.025  -2.509  0.00  0.00    -0.035 C 
ATOM     14  H5  <0> d           1.013   0.216  -2.831  0.00  0.00     0.035 H 
ATOM     15  H6  <0> d          -0.519  -0.583  -3.256  0.00  0.00     0.035 H 
ATOM     16  H7  <0> d          -0.537   0.972  -2.391  0.00  0.00     0.035 H 
ENDBRANCH   2  13
TORSDOF 2
