REMARK  1 active torsions:
REMARK  status: ('A' for Active; 'I' for Inactive)
REMARK    1  A    between atoms: C3_3  and  O1_8 
ROOT
ATOM      1  C1  <0> d          -0.017   1.378   0.010  0.00  0.00    -0.077 A 
ATOM      2  C2  <0> d           1.169   2.087   0.002  0.00  0.00    -0.051 A 
ATOM      3  C3  <0> d           2.381   1.411  -0.013  0.00  0.00     0.068 A 
ATOM      4  C4  <0> d           2.400   0.024  -0.021  0.00  0.00    -0.014 A 
ATOM      5  C5  <0> d           1.210  -0.682  -0.013  0.00  0.00     0.119 A 
ATOM      6  C6  <0> d           0.002  -0.004   0.002  0.00  0.00    -0.045 A 
ATOM      7  F1  <0> d           1.226  -2.033  -0.021  0.00  0.00    -0.206 F 
ATOM      8  H1  <0> d          -0.960   1.904   0.026  0.00  0.00     0.083 H 
ATOM      9  H2  <0> d           1.153   3.167   0.008  0.00  0.00     0.087 H 
ATOM     10  H3  <0> d           3.342  -0.504  -0.033  0.00  0.00     0.092 H 
ATOM     11  H4  <0> d          -0.926  -0.556   0.008  0.00  0.00     0.088 H 
ENDROOT
BRANCH   3  12
ATOM     12  O1  <0> d           3.548   2.107  -0.021  0.00  0.00    -0.361 OA
ATOM     13  H5  <0> d           3.894   2.304   0.860  0.00  0.00     0.217 HD
ENDBRANCH   3  12
TORSDOF 1
