REMARK  4 active torsions:
REMARK  status: ('A' for Active; 'I' for Inactive)
REMARK    1  A    between atoms: C1_1  and  N1_2 
REMARK    2  A    between atoms: C3_4  and  C5_7 
REMARK    3  A    between atoms: C5_7  and  C6_8 
REMARK    4  A    between atoms: C6_8  and  C7_9 
ROOT
ATOM      1  C7  <0> d           1.497  -4.930  -2.767  0.00  0.00     0.015 C 
ATOM      2  C8  <0> d           2.889  -5.308  -3.063  0.00  0.00     0.059 C 
ATOM      3  N3  <0> d           3.963  -5.600  -3.291  0.00  0.00    -0.197 NA
ATOM      4  H10 <0> d           0.997  -5.753  -2.258  0.00  0.00     0.054 H 
ATOM      5  H11 <0> d           0.976  -4.708  -3.698  0.00  0.00     0.054 H 
ENDROOT
BRANCH   1   6
ATOM      6  C6  <0> d           1.485  -3.692  -1.868  0.00  0.00    -0.050 C 
ATOM      7  H8  <0> d           1.986  -2.868  -2.378  0.00  0.00     0.034 H 
ATOM      8  H9  <0> d           2.007  -3.914  -0.937  0.00  0.00     0.034 H 
BRANCH   6   9
ATOM      9  C5  <0> d           0.039  -3.298  -1.561  0.00  0.00    -0.037 C 
ATOM     10  H6  <0> d          -0.461  -4.122  -1.052  0.00  0.00     0.040 H 
ATOM     11  H7  <0> d          -0.483  -3.076  -2.492  0.00  0.00     0.040 H 
BRANCH   9  12
ATOM     12  C3  <0> d           0.027  -2.079  -0.676  0.00  0.00    -0.022 A 
ATOM     13  C2  <0> d           0.008  -0.792  -1.094  0.00  0.00     0.005 A 
ATOM     14  N1  <0> d           0.002  -0.004   0.002  0.00  0.00    -0.285 N 
ATOM     15  H4  <0> d          -0.002  -0.456  -2.120  0.00  0.00     0.115 H 
ATOM     16  N2  <0> d           0.025  -0.834   1.130  0.00  0.00    -0.185 NA
ATOM     17  C4  <0> d           0.034  -2.078   0.723  0.00  0.00     0.029 A 
ATOM     18  H5  <0> d           0.048  -2.952   1.357  0.00  0.00     0.118 H 
BRANCH  14  19
ATOM     19  C1  <0> d          -0.018   1.461   0.010  0.00  0.00     0.002 C 
ATOM     20  H1  <0> d           1.005   1.838   0.002  0.00  0.00     0.059 H 
ATOM     21  H2  <0> d          -0.545   1.822  -0.873  0.00  0.00     0.059 H 
ATOM     22  H3  <0> d          -0.528   1.812   0.907  0.00  0.00     0.059 H 
ENDBRANCH  14  19
ENDBRANCH   9  12
ENDBRANCH   6   9
ENDBRANCH   1   6
TORSDOF 4
