REMARK  3 active torsions:
REMARK  status: ('A' for Active; 'I' for Inactive)
REMARK    1  A    between atoms: C1_1  and  C2_2 
REMARK    2  A    between atoms: C5_5  and  C8_8 
REMARK    3  A    between atoms: C8_8  and  C9_10 
ROOT
ATOM      1  C8  <0> d           2.490   1.048  -0.016  0.00  0.00     0.052 C 
ATOM      2  H1  <0> d           2.308  -0.036  -0.054  0.00  0.00     0.069 H 
ATOM      3  C10 <0> d           3.246   1.420  -1.223  0.00  0.00     0.068 C 
ATOM      4  N1  <0> d           3.829   1.707  -2.154  0.00  0.00    -0.197 NA
ENDROOT
BRANCH   1   5
ATOM      5  C5  <0> d           1.175   1.783   0.000  0.00  0.00    -0.041 A 
ATOM      6  C4  <0> d          -0.013   1.076   0.008  0.00  0.00    -0.075 A 
ATOM      7  C3  <0> d          -1.219   1.751   0.017  0.00  0.00    -0.077 A 
ATOM      8  H6  <0> d           0.002  -0.004   0.002  0.00  0.00     0.084 H 
ATOM      9  C2  <0> d          -1.238   3.133   0.029  0.00  0.00    -0.062 A 
ATOM     10  H5  <0> d          -2.147   1.198   0.019  0.00  0.00     0.084 H 
ATOM     11  C7  <0> d          -0.050   3.840   0.022  0.00  0.00    -0.077 A 
ATOM     12  C6  <0> d           1.156   3.165   0.008  0.00  0.00    -0.075 A 
ATOM     13  H8  <0> d          -0.065   4.920   0.028  0.00  0.00     0.084 H 
ATOM     14  H7  <0> d           2.084   3.718   0.003  0.00  0.00     0.084 H 
BRANCH   9  15
ATOM     15  C1  <0> d          -2.553   3.869   0.044  0.00  0.00    -0.051 C 
ATOM     16  H2  <0> d          -3.379   3.142   0.048  0.00  0.00     0.033 H 
ATOM     17  H3  <0> d          -2.627   4.505  -0.850  0.00  0.00     0.033 H 
ATOM     18  H4  <0> d          -2.612   4.495   0.946  0.00  0.00     0.033 H 
ENDBRANCH   9  15
ENDBRANCH   1   5
BRANCH   1  19
ATOM     19  C9  <0> d           3.299   1.422   1.228  0.00  0.00    -0.057 C 
ATOM     20  H9  <0> d           4.259   0.885   1.216  0.00  0.00     0.029 H 
ATOM     21  H10 <0> d           2.734   1.143   2.130  0.00  0.00     0.029 H 
ATOM     22  H11 <0> d           3.485   2.506   1.232  0.00  0.00     0.029 H 
ENDBRANCH   1  19
TORSDOF 3
