REMARK  1 active torsions:
REMARK  status: ('A' for Active; 'I' for Inactive)
REMARK    1  A    between atoms: C4_4  and  C7_7 
ROOT
ATOM      1  C1  <0> d          -0.013   1.076   0.008  0.00  0.00    -0.083 A 
ATOM      2  C2  <0> d          -1.219   1.751   0.017  0.00  0.00    -0.082 A 
ATOM      3  C3  <0> d          -1.238   3.133   0.030  0.00  0.00    -0.068 A 
ATOM      4  C4  <0> d          -0.050   3.840   0.022  0.00  0.00     0.047 A 
ATOM      5  C5  <0> d           1.156   3.165   0.008  0.00  0.00    -0.068 A 
ATOM      6  C6  <0> d           1.175   1.783   0.000  0.00  0.00    -0.082 A 
ATOM      7  H1  <0> d           0.002  -0.004   0.002  0.00  0.00     0.083 H 
ATOM      8  H2  <0> d          -2.147   1.198   0.019  0.00  0.00     0.083 H 
ATOM      9  H3  <0> d          -2.180   3.660   0.041  0.00  0.00     0.084 H 
ATOM     10  H4  <0> d           2.084   3.718   0.001  0.00  0.00     0.084 H 
ATOM     11  H5  <0> d           2.118   1.256  -0.011  0.00  0.00     0.083 H 
ENDROOT
BRANCH   4  12
ATOM     12  C7  <0> d          -0.070   5.347   0.030  0.00  0.00     0.417 C 
ATOM     13  F1  <0> d          -0.089   5.820  -1.287  0.00  0.00    -0.166 F 
ATOM     14  F2  <0> d          -1.213   5.795   0.702  0.00  0.00    -0.166 F 
ATOM     15  F3  <0> d           1.072   5.826   0.681  0.00  0.00    -0.166 F 
ENDBRANCH   4  12
TORSDOF 1
