REMARK  2 active torsions:
REMARK  status: ('A' for Active; 'I' for Inactive)
REMARK    1  A    between atoms: C2_2  and  S1_3 
REMARK    2  A    between atoms: S1_3  and  C3_4 
ROOT
ATOM      1  C3  <0> d          -0.033   3.871  -0.285  0.00  0.00     0.004 A 
ATOM      2  C4  <0> d           1.178   3.237  -0.533  0.00  0.00    -0.066 A 
ATOM      3  C5  <0> d           1.206   1.878  -0.780  0.00  0.00    -0.082 A 
ATOM      4  C6  <0> d           0.030   1.150  -0.780  0.00  0.00    -0.083 A 
ATOM      5  C7  <0> d          -1.177   1.779  -0.539  0.00  0.00    -0.082 A 
ATOM      6  C8  <0> d          -1.212   3.136  -0.286  0.00  0.00    -0.066 A 
ATOM      7  H4  <0> d           2.096   3.805  -0.533  0.00  0.00     0.085 H 
ATOM      8  H5  <0> d           2.147   1.385  -0.973  0.00  0.00     0.083 H 
ATOM      9  H6  <0> d           0.055   0.087  -0.974  0.00  0.00     0.083 H 
ATOM     10  H7  <0> d          -2.094   1.207  -0.544  0.00  0.00     0.083 H 
ATOM     11  H8  <0> d          -2.155   3.626  -0.094  0.00  0.00     0.085 H 
ENDROOT
BRANCH   1  12
ATOM     12  S1  <0> d          -0.074   5.604   0.030  0.00  0.00    -0.103 SA
BRANCH  12  13
ATOM     13  C2  <0> d           1.625   6.053   0.164  0.00  0.00    -0.053 C 
ATOM     14  C1  <0> d           1.964   7.323   0.298  0.00  0.00    -0.115 C 
ATOM     15  H1  <0> d           3.005   7.598   0.380  0.00  0.00     0.067 H 
ATOM     16  H2  <0> d           1.200   8.086   0.324  0.00  0.00     0.067 H 
ATOM     17  H3  <0> d           2.388   5.290   0.138  0.00  0.00     0.093 H 
ENDBRANCH  12  13
ENDBRANCH   1  12
TORSDOF 2
