REMARK  5 active torsions:
REMARK  status: ('A' for Active; 'I' for Inactive)
REMARK    1  A    between atoms: C1_1  and  C2_2 
REMARK    2  A    between atoms: C2_2  and  C3_3 
REMARK    3  A    between atoms: C2_2  and  C4_4 
REMARK    4  A    between atoms: C4_4  and  C5_6 
REMARK    5  A    between atoms: C4_4  and  O1_13 
ROOT
ATOM      1  C5  <0> d          -1.344   3.157   0.021  0.00  0.00    -0.013 C 
ATOM      2  H2  <0> d          -1.630   3.484  -0.979  0.00  0.00     0.050 H 
ATOM      3  C6  <0> d          -0.039   3.846   0.425  0.00  0.00    -0.056 C 
ATOM      4  C7  <0> d           1.101   3.257  -0.415  0.00  0.00    -0.061 C 
ATOM      5  C8  <0> d           1.303   1.797  -0.001  0.00  0.00    -0.050 C 
ATOM      6  C9  <0> d          -0.013   1.076   0.008  0.00  0.00    -0.106 C 
ATOM      7  C10 <0> d          -1.164   1.667   0.017  0.00  0.00    -0.100 C 
ATOM      8  H10 <0> d           0.156   3.669   1.483  0.00  0.00     0.034 H 
ATOM      9  H11 <0> d          -0.117   4.917   0.238  0.00  0.00     0.034 H 
ATOM     10  H12 <0> d           2.018   3.819  -0.234  0.00  0.00     0.033 H 
ATOM     11  H13 <0> d           0.840   3.305  -1.472  0.00  0.00     0.033 H 
ATOM     12  H14 <0> d           1.741   1.762   0.997  0.00  0.00     0.038 H 
ATOM     13  H15 <0> d           1.977   1.312  -0.706  0.00  0.00     0.038 H 
ATOM     14  H16 <0> d           0.002  -0.004   0.002  0.00  0.00     0.076 H 
ATOM     15  H17 <0> d          -2.050   1.050   0.026  0.00  0.00     0.077 H 
ENDROOT
BRANCH   1  16
ATOM     16  C4  <0> d          -2.446   3.535   1.013  0.00  0.00     0.045 C 
ATOM     17  H1  <0> d          -2.159   3.214   2.014  0.00  0.00     0.084 H 
BRANCH  16  18
ATOM     18  C2  <0> d          -3.752   2.848   0.611  0.00  0.00    -0.036 C 
ATOM     19  H6  <0> d          -3.611   1.767   0.619  0.00  0.00     0.042 H 
BRANCH  18  20
ATOM     20  C1  <0> d          -4.854   3.226   1.602  0.00  0.00    -0.071 C 
ATOM     21  H3  <0> d          -4.995   4.307   1.594  0.00  0.00     0.028 H 
ATOM     22  H4  <0> d          -5.785   2.736   1.316  0.00  0.00     0.028 H 
ATOM     23  H5  <0> d          -4.567   2.904   2.604  0.00  0.00     0.028 H 
ENDBRANCH  18  20
BRANCH  18  24
ATOM     24  C3  <0> d          -4.154   3.299  -0.795  0.00  0.00    -0.071 C 
ATOM     25  H7  <0> d          -5.085   2.809  -1.082  0.00  0.00     0.028 H 
ATOM     26  H8  <0> d          -4.295   4.380  -0.803  0.00  0.00     0.028 H 
ATOM     27  H9  <0> d          -3.369   3.029  -1.502  0.00  0.00     0.028 H 
ENDBRANCH  18  24
ENDBRANCH  16  18
BRANCH  16  28
ATOM     28  O1  <0> d          -2.631   4.952   1.002  0.00  0.00    -0.395 OA
ATOM     29  H18 <0> d          -2.887   5.309   0.141  0.00  0.00     0.210 HD
ENDBRANCH  16  28
ENDBRANCH   1  16
TORSDOF 5
