REMARK  1 active torsions:
REMARK  status: ('A' for Active; 'I' for Inactive)
REMARK    1  A    between atoms: C2_2  and  N3_9 
ROOT
ATOM      1  C1  <0> d          -0.016   1.332   0.009  0.00  0.00     0.034 A 
ATOM      2  C2  <0> d           1.159   2.028   0.002  0.00  0.00     0.112 A 
ATOM      3  C3  <0> d           2.375   1.301  -0.014  0.00  0.00     0.274 A 
ATOM      4  O1  <0> d           3.449   1.881  -0.020  0.00  0.00    -0.266 OA
ATOM      5  N1  <0> d           2.319  -0.048  -0.020  0.00  0.00    -0.316 N 
ATOM      6  H1  <0> d           3.138  -0.568  -0.031  0.00  0.00     0.170 HD
ATOM      7  C4  <0> d           1.123  -0.673  -0.012  0.00  0.00     0.066 A 
ATOM      8  N2  <0> d           0.002  -0.004   0.002  0.00  0.00    -0.254 NA
ATOM      9  H2  <0> d          -0.958   1.860   0.026  0.00  0.00     0.118 H 
ATOM     10  H3  <0> d           1.092  -1.752  -0.018  0.00  0.00     0.143 H 
ENDROOT
BRANCH   2  11
ATOM     11  N3  <0> d           1.162   3.429   0.009  0.00  0.00    -0.394 N 
ATOM     12  H4  <0> d           0.323   3.916   0.019  0.00  0.00     0.156 HD
ATOM     13  H5  <0> d           2.003   3.912   0.004  0.00  0.00     0.156 HD
ENDBRANCH   2  11
TORSDOF 1
