REMARK  4 active torsions:
REMARK  status: ('A' for Active; 'I' for Inactive)
REMARK    1  A    between atoms: C1_1  and  N1_2 
REMARK       I    between atoms: N1_2  and  C2_3 
REMARK    2  A    between atoms: C2_3  and  C3_5 
REMARK    3  A    between atoms: N3_8  and  C6_11 
REMARK    4  A    between atoms: C5_9  and  N4_10 
ROOT
ATOM      1  C3  <0> d          -2.485   1.066   0.020  0.00  0.00     0.096 A 
ATOM      2  C4  <0> d          -3.418   2.129   0.031  0.00  0.00     0.041 A 
ATOM      3  N2  <0> d          -2.757   3.251   0.034  0.00  0.00    -0.182 NA
ATOM      4  N3  <0> d          -1.385   2.977   0.031  0.00  0.00    -0.258 N 
ATOM      5  C5  <0> d          -1.216   1.640   0.017  0.00  0.00     0.134 A 
ATOM      6  H5  <0> d          -4.494   2.027   0.035  0.00  0.00     0.119 H 
ENDROOT
BRANCH   1   7
ATOM      7  C2  <0> d          -2.795  -0.369   0.013  0.00  0.00     0.256 C 
ATOM      8  N1  <0> d          -4.078  -0.781   0.017  0.00  0.00    -0.361 N 
ATOM      9  H4  <0> d          -4.893  -0.043   0.025  0.00  0.00     0.162 HD
ATOM     10  O1  <0> d          -1.893  -1.186   0.004  0.00  0.00    -0.267 OA
BRANCH   8  11
ATOM     11  C1  <0> d          -4.387  -2.213   0.010  0.00  0.00    -0.018 C 
ATOM     12  H1  <0> d          -5.478  -2.353   0.015  0.00  0.00     0.056 H 
ATOM     13  H2  <0> d          -3.953  -2.686   0.903  0.00  0.00     0.056 H 
ATOM     14  H3  <0> d          -3.962  -2.676  -0.893  0.00  0.00     0.056 H 
ENDBRANCH   8  11
ENDBRANCH   1   7
BRANCH   5  15
ATOM     15  N4  <0> d          -0.011   0.966   0.007  0.00  0.00    -0.383 N 
ATOM     16  H6  <0> d           0.934   1.529   0.006  0.00  0.00     0.157 HD
ATOM     17  H7  <0> d           0.004  -0.134   0.001  0.00  0.00     0.157 HD
ENDBRANCH   5  15
BRANCH   4  18
ATOM     18  C6  <0> d          -0.313   3.976   0.038  0.00  0.00     0.004 C 
ATOM     19  H8  <0> d           0.662   3.467   0.033  0.00  0.00     0.059 H 
ATOM     20  H9  <0> d          -0.398   4.598   0.942  0.00  0.00     0.059 H 
ATOM     21  H10 <0> d          -0.399   4.613  -0.854  0.00  0.00     0.059 H 
ENDBRANCH   4  18
TORSDOF 4
