REMARK  7 active torsions:
REMARK  status: ('A' for Active; 'I' for Inactive)
REMARK    1  A    between atoms: C1_1  and  C2_2 
REMARK    2  A    between atoms: C2_2  and  C3_3 
REMARK    3  A    between atoms: C3_3  and  C4_5 
REMARK    4  A    between atoms: C3_3  and  C5_6 
REMARK    5  A    between atoms: C5_6  and  C6_7 
REMARK    6  A    between atoms: C6_7  and  O2_9 
REMARK    7  A    between atoms: O2_9  and  C7_10 
ROOT
ATOM      1  C3  <0> d           2.689   4.033  -0.002  0.00  0.00    -0.050 C 
ATOM      2  H1  <0> d           3.219   3.573   0.832  0.00  0.00     0.040 H 
ENDROOT
BRANCH   1   3
ATOM      3  C2  <0> d           2.752   5.556   0.131  0.00  0.00    -0.065 C 
ATOM      4  H5  <0> d           2.300   6.016  -0.747  0.00  0.00     0.033 H 
ATOM      5  H6  <0> d           2.208   5.865   1.024  0.00  0.00     0.033 H 
BRANCH   3   6
ATOM      6  C1  <0> d           4.212   5.999   0.245  0.00  0.00    -0.076 C 
ATOM      7  H2  <0> d           4.256   7.084   0.340  0.00  0.00     0.027 H 
ATOM      8  H3  <0> d           4.664   5.538   1.124  0.00  0.00     0.027 H 
ATOM      9  H4  <0> d           4.756   5.690  -0.647  0.00  0.00     0.027 H 
ENDBRANCH   3   6
ENDBRANCH   1   3
BRANCH   1  10
ATOM     10  C4  <0> d           3.345   3.609  -1.318  0.00  0.00    -0.072 C 
ATOM     11  H7  <0> d           4.386   3.932  -1.326  0.00  0.00     0.028 H 
ATOM     12  H8  <0> d           3.300   2.524  -1.413  0.00  0.00     0.028 H 
ATOM     13  H9  <0> d           2.815   4.069  -2.152  0.00  0.00     0.028 H 
ENDBRANCH   1  10
BRANCH   1  14
ATOM     14  C5  <0> d           1.228   3.579   0.010  0.00  0.00     0.019 C 
ATOM     15  H10 <0> d           0.721   3.967  -0.874  0.00  0.00     0.048 H 
ATOM     16  H11 <0> d           0.738   3.957   0.906  0.00  0.00     0.048 H 
BRANCH  14  17
ATOM     17  C6  <0> d           1.170   2.073   0.002  0.00  0.00     0.258 C 
ATOM     18  O1  <0> d           2.192   1.429  -0.011  0.00  0.00    -0.265 OA
BRANCH  17  19
ATOM     19  O2  <0> d          -0.018   1.448   0.010  0.00  0.00    -0.326 OA
BRANCH  19  20
ATOM     20  C7  <0> d           0.002  -0.004   0.002  0.00  0.00     0.013 C 
ATOM     21  H12 <0> d           0.512  -0.356  -0.895  0.00  0.00     0.067 H 
ATOM     22  H13 <0> d           0.529  -0.365   0.885  0.00  0.00     0.067 H 
ATOM     23  H14 <0> d          -1.020  -0.381   0.010  0.00  0.00     0.067 H 
ENDBRANCH  19  20
ENDBRANCH  17  19
ENDBRANCH  14  17
ENDBRANCH   1  14
TORSDOF 7
