REMARK  2 active torsions:
REMARK  status: ('A' for Active; 'I' for Inactive)
REMARK    1  A    between atoms: C1_1  and  C2_2 
REMARK    2  A    between atoms: C2_2  and  N1_3 
ROOT
ATOM      1  N1  <0> d          -0.698   1.558   1.213  0.00  0.00    -0.220 N 
ATOM      2  C3  <0> d          -1.671   0.808   1.760  0.00  0.00     0.345 A 
ATOM      3  O1  <0> d          -1.969  -0.253   1.247  0.00  0.00    -0.245 OA
ATOM      4  N2  <0> d          -2.321   1.214   2.868  0.00  0.00    -0.273 N 
ATOM      5  H1  <0> d          -3.020   0.662   3.250  0.00  0.00     0.173 HD
ATOM      6  C4  <0> d          -1.999   2.390   3.445  0.00  0.00     0.268 A 
ATOM      7  O2  <0> d          -2.582   2.765   4.446  0.00  0.00    -0.266 OA
ATOM      8  C5  <0> d          -0.939   3.211   2.853  0.00  0.00     0.087 A 
ATOM      9  N3  <0> d          -0.328   2.782   1.784  0.00  0.00    -0.175 NA
ATOM     10  H7  <0> d          -0.664   4.156   3.298  0.00  0.00     0.126 H 
ENDROOT
BRANCH   1  11
ATOM     11  C2  <0> d          -0.013   1.086   0.008  0.00  0.00     0.018 C 
ATOM     12  H5  <0> d           0.002  -0.004   0.002  0.00  0.00     0.067 H 
ATOM     13  H6  <0> d           1.010   1.463   0.000  0.00  0.00     0.067 H 
BRANCH  11  14
ATOM     14  C1  <0> d          -0.753   1.593  -1.232  0.00  0.00    -0.059 C 
ATOM     15  H2  <0> d          -0.242   1.241  -2.128  0.00  0.00     0.029 H 
ATOM     16  H3  <0> d          -1.775   1.215  -1.224  0.00  0.00     0.029 H 
ATOM     17  H4  <0> d          -0.767   2.683  -1.226  0.00  0.00     0.029 H 
ENDBRANCH  11  14
ENDBRANCH   1  11
TORSDOF 2
