REMARK  2 active torsions:
REMARK  status: ('A' for Active; 'I' for Inactive)
REMARK    1  A    between atoms: C1_1  and  N1_2 
REMARK    2  A    between atoms: C8_10  and  N3_11 
ROOT
ATOM      1  N1  <0> d          -0.016   1.361   0.009  0.00  0.00    -0.184 N 
ATOM      2  C2  <0> d           1.301   1.790  -0.001  0.00  0.00     0.080 A 
ATOM      3  C3  <0> d           1.906   3.038   0.000  0.00  0.00    -0.054 A 
ATOM      4  C4  <0> d           3.282   3.133  -0.013  0.00  0.00    -0.081 A 
ATOM      5  C5  <0> d           4.066   1.989  -0.026  0.00  0.00    -0.081 A 
ATOM      6  C6  <0> d           3.482   0.742  -0.027  0.00  0.00    -0.052 A 
ATOM      7  C7  <0> d           2.090   0.628  -0.015  0.00  0.00     0.103 A 
ATOM      8  N2  <0> d           1.240  -0.432  -0.012  0.00  0.00    -0.063 NA
ATOM      9  C8  <0> d           0.002  -0.004   0.002  0.00  0.00     0.701 A 
ATOM     10  H4  <0> d           1.301   3.932   0.010  0.00  0.00     0.087 H 
ATOM     11  H5  <0> d           3.752   4.106  -0.011  0.00  0.00     0.083 H 
ATOM     12  H6  <0> d           5.142   2.077  -0.035  0.00  0.00     0.083 H 
ATOM     13  H7  <0> d           4.098  -0.145  -0.038  0.00  0.00     0.087 H 
ENDROOT
BRANCH   1  14
ATOM     14  C1  <0> d          -1.208   2.214   0.020  0.00  0.00     0.003 C 
ATOM     15  H1  <0> d          -1.498   2.420   1.050  0.00  0.00     0.058 H 
ATOM     16  H2  <0> d          -0.988   3.152  -0.490  0.00  0.00     0.058 H 
ATOM     17  H3  <0> d          -2.024   1.704  -0.492  0.00  0.00     0.058 H 
ENDBRANCH   1  14
BRANCH   9  18
ATOM     18  N3  <0> d          -1.116  -0.811   0.008  0.00  0.00    -0.233 N 
ATOM     19  H8  <0> d          -2.001  -0.415   0.018  0.00  0.00     0.174 HD
ATOM     20  H9  <0> d          -1.017  -1.776   0.002  0.00  0.00     0.174 HD
ENDBRANCH   9  18
TORSDOF 2
