REMARK  4 active torsions:
REMARK  status: ('A' for Active; 'I' for Inactive)
REMARK    1  A    between atoms: C2_2  and  C4_7 
REMARK    2  A    between atoms: C5_8  and  C6_9 
REMARK    3  A    between atoms: C6_9  and  C7_10 
REMARK    4  A    between atoms: C7_10  and  O1_11 
ROOT
ATOM      1  C4  <0> d           1.721   3.137   0.002  0.00  0.00    -0.064 C 
ATOM      2  C5  <0> d           2.081   4.254   0.004  0.00  0.00    -0.099 C 
ENDROOT
BRANCH   1   3
ATOM      3  C2  <0> d           1.281   1.774  -0.001  0.00  0.00     0.053 A 
ATOM      4  C1  <0> d          -0.016   1.344   0.009  0.00  0.00     0.015 A 
ATOM      5  N2  <0> d           0.002  -0.004   0.002  0.00  0.00    -0.288 N 
ATOM      6  H2  <0> d          -0.896   1.970   0.025  0.00  0.00     0.116 H 
ATOM      7  N1  <0> d           1.337  -0.425  -0.013  0.00  0.00    -0.186 NA
ATOM      8  H1  <0> d          -0.776  -0.583   0.007  0.00  0.00     0.188 HD
ATOM      9  C3  <0> d           2.107   0.631  -0.015  0.00  0.00     0.041 A 
ATOM     10  H3  <0> d           3.186   0.629  -0.025  0.00  0.00     0.119 H 
ENDBRANCH   1   3
BRANCH   2  11
ATOM     11  C6  <0> d           2.534   5.655   0.007  0.00  0.00     0.011 C 
ATOM     12  H4  <0> d           2.148   6.163  -0.877  0.00  0.00     0.055 H 
ATOM     13  H5  <0> d           2.165   6.154   0.903  0.00  0.00     0.055 H 
BRANCH  11  14
ATOM     14  C7  <0> d           4.063   5.697  -0.007  0.00  0.00     0.026 C 
ATOM     15  H6  <0> d           4.449   5.189   0.877  0.00  0.00     0.075 H 
ATOM     16  H7  <0> d           4.432   5.198  -0.903  0.00  0.00     0.075 H 
BRANCH  14  17
ATOM     17  O1  <0> d           4.502   7.057  -0.004  0.00  0.00    -0.400 OA
ATOM     18  H8  <0> d           5.464   7.160  -0.013  0.00  0.00     0.209 HD
ENDBRANCH  14  17
ENDBRANCH  11  14
ENDBRANCH   2  11
TORSDOF 4
