REMARK  2 active torsions:
REMARK  status: ('A' for Active; 'I' for Inactive)
REMARK    1  A    between atoms: C2_3  and  C3_5 
REMARK    2  A    between atoms: C2_3  and  N3_8 
REMARK       I    between atoms: C3_5  and  N2_7 
REMARK       I    between atoms: N3_8  and  C4_9 
REMARK       I    between atoms: C4_9  and  N4_11 
ROOT
ATOM      1  C1  <0> d          -2.978   3.828  -1.346  0.00  0.00     0.094 C 
ATOM      2  N1  <0> d          -3.359   3.937  -2.410  0.00  0.00    -0.195 NA
ATOM      3  C2  <0> d          -2.484   3.687   0.034  0.00  0.00     0.174 C 
ATOM      4  H1  <0> d          -3.209   3.126   0.624  0.00  0.00     0.111 H 
ENDROOT
BRANCH   3   5
ATOM      5  C3  <0> d          -2.291   5.052   0.641  0.00  0.00     0.252 C 
ATOM      6  O1  <0> d          -1.194   5.395   1.027  0.00  0.00    -0.270 OA
ATOM      7  N2  <0> d          -3.338   5.893   0.754  0.00  0.00    -0.368 N 
ATOM      8  H2  <0> d          -4.216   5.620   0.446  0.00  0.00     0.159 HD
ATOM      9  H3  <0> d          -3.214   6.772   1.145  0.00  0.00     0.159 HD
ENDBRANCH   3   5
BRANCH   3  10
ATOM     10  N3  <0> d          -1.206   2.971   0.024  0.00  0.00    -0.318 N 
ATOM     11  C4  <0> d          -1.187   1.624   0.017  0.00  0.00     0.315 C 
ATOM     12  O2  <0> d          -2.232   1.002   0.018  0.00  0.00    -0.248 OA
ATOM     13  N4  <0> d          -0.011   0.966   0.007  0.00  0.00    -0.352 N 
ATOM     14  H5  <0> d           0.002  -0.004   0.002  0.00  0.00     0.160 HD
ATOM     15  H6  <0> d           0.822   1.462   0.002  0.00  0.00     0.160 HD
ATOM     16  H4  <0> d          -0.372   3.468   0.023  0.00  0.00     0.166 HD
ENDBRANCH   3  10
TORSDOF 2
