REMARK  1 active torsions:
REMARK  status: ('A' for Active; 'I' for Inactive)
REMARK    1  A    between atoms: C7_9  and  N1_11 
REMARK       I    between atoms: N1_11  and  C8_12 
REMARK       I    between atoms: C8_12  and  N2_14 
ROOT
ATOM      1  C1  <0> d          -0.746   1.394  -1.056  0.00  0.00    -0.061 C 
ATOM      2  C2  <0> d           0.030   0.984   0.216  0.00  0.00    -0.059 C 
ATOM      3  C3  <0> d          -0.774   1.616   1.393  0.00  0.00    -0.034 C 
ATOM      4  H1  <0> d          -0.590   1.189   2.379  0.00  0.00     0.043 H 
ATOM      5  C4  <0> d          -2.239   1.506   0.830  0.00  0.00    -0.056 C 
ATOM      6  C5  <0> d          -1.949   2.235  -0.530  0.00  0.00    -0.052 C 
ATOM      7  H2  <0> d          -2.788   2.347  -1.217  0.00  0.00     0.040 H 
ATOM      8  C6  <0> d          -1.306   3.559  -0.017  0.00  0.00    -0.042 C 
ATOM      9  C7  <0> d          -0.530   3.149   1.255  0.00  0.00     0.017 C 
ATOM     10  H3  <0> d          -0.920   3.677   2.125  0.00  0.00     0.073 H 
ATOM     11  H4  <0> d          -0.116   2.000  -1.708  0.00  0.00     0.033 H 
ATOM     12  H5  <0> d          -1.100   0.510  -1.587  0.00  0.00     0.033 H 
ATOM     13  H6  <0> d           0.056  -0.101   0.312  0.00  0.00     0.033 H 
ATOM     14  H7  <0> d           1.043   1.387   0.189  0.00  0.00     0.033 H 
ATOM     15  H8  <0> d          -2.954   2.055   1.443  0.00  0.00     0.034 H 
ATOM     16  H9  <0> d          -2.544   0.470   0.682  0.00  0.00     0.034 H 
ATOM     17  H10 <0> d          -0.624   3.965  -0.764  0.00  0.00     0.036 H 
ATOM     18  H11 <0> d          -2.080   4.287   0.228  0.00  0.00     0.036 H 
ENDROOT
BRANCH   9  19
ATOM     19  N1  <0> d           0.900   3.423   1.092  0.00  0.00    -0.338 N 
ATOM     20  C8  <0> d           1.677   3.619   2.175  0.00  0.00     0.314 C 
ATOM     21  O1  <0> d           1.191   3.568   3.289  0.00  0.00    -0.248 OA
ATOM     22  N2  <0> d           2.992   3.871   2.025  0.00  0.00    -0.352 N 
ATOM     23  H13 <0> d           3.380   3.912   1.137  0.00  0.00     0.160 HD
ATOM     24  H14 <0> d           3.551   4.012   2.805  0.00  0.00     0.160 HD
ATOM     25  H12 <0> d           1.287   3.464   0.203  0.00  0.00     0.164 HD
ENDBRANCH   9  19
TORSDOF 1
