REMARK  6 active torsions:
REMARK  status: ('A' for Active; 'I' for Inactive)
REMARK    1  A    between atoms: C1_1  and  C2_2 
REMARK    2  A    between atoms: C2_2  and  C3_3 
REMARK    3  A    between atoms: C3_3  and  C4_4 
REMARK    4  A    between atoms: C5_5  and  C8_11 
REMARK    5  A    between atoms: C6_6  and  C7_10 
REMARK    6  A    between atoms: C8_11  and  O1_12 
ROOT
ATOM      1  C4  <0> d           0.739  -2.004  -1.265  0.00  0.00     0.038 A 
ATOM      2  C5  <0> d          -0.243  -2.813  -1.727  0.00  0.00     0.015 A 
ATOM      3  C6  <0> d           0.172  -4.137  -1.552  0.00  0.00     0.061 A 
ATOM      4  N1  <0> d           1.360  -4.124  -1.004  0.00  0.00    -0.179 NA
ATOM      5  N2  <0> d           1.742  -2.789  -0.819  0.00  0.00    -0.281 N 
ATOM      6  H1  <0> d           2.578  -2.482  -0.435  0.00  0.00     0.189 HD
ENDROOT
BRANCH   1   7
ATOM      7  C3  <0> d           0.718  -0.497  -1.257  0.00  0.00    -0.025 C 
ATOM      8  H7  <0> d           0.191  -0.136  -2.140  0.00  0.00     0.042 H 
ATOM      9  H8  <0> d           1.741  -0.120  -1.264  0.00  0.00     0.042 H 
BRANCH   7  10
ATOM     10  C2  <0> d           0.002  -0.004   0.002  0.00  0.00    -0.063 C 
ATOM     11  H5  <0> d           0.529  -0.365   0.885  0.00  0.00     0.033 H 
ATOM     12  H6  <0> d          -1.020  -0.381   0.010  0.00  0.00     0.033 H 
BRANCH  10  13
ATOM     13  C1  <0> d          -0.019   1.526   0.010  0.00  0.00    -0.076 C 
ATOM     14  H2  <0> d           1.004   1.903   0.003  0.00  0.00     0.027 H 
ATOM     15  H3  <0> d          -0.546   1.887  -0.873  0.00  0.00     0.027 H 
ATOM     16  H4  <0> d          -0.529   1.877   0.907  0.00  0.00     0.027 H 
ENDBRANCH  10  13
ENDBRANCH   7  10
ENDBRANCH   1   7
BRANCH   2  17
ATOM     17  C8  <0> d          -1.552  -2.366  -2.324  0.00  0.00     0.044 C 
ATOM     18  H12 <0> d          -2.319  -3.114  -2.120  0.00  0.00     0.081 H 
ATOM     19  H13 <0> d          -1.847  -1.414  -1.882  0.00  0.00     0.081 H 
BRANCH  17  20
ATOM     20  O1  <0> d          -1.403  -2.209  -3.736  0.00  0.00    -0.396 OA
ATOM     21  H14 <0> d          -2.209  -1.923  -4.188  0.00  0.00     0.209 HD
ENDBRANCH  17  20
ENDBRANCH   2  17
BRANCH   3  22
ATOM     22  C7  <0> d          -0.614  -5.367  -1.928  0.00  0.00    -0.033 C 
ATOM     23  H9  <0> d          -0.374  -5.652  -2.952  0.00  0.00     0.035 H 
ATOM     24  H10 <0> d          -0.356  -6.183  -1.253  0.00  0.00     0.035 H 
ATOM     25  H11 <0> d          -1.680  -5.154  -1.850  0.00  0.00     0.035 H 
ENDBRANCH   3  22
TORSDOF 6
