REMARK  2 active torsions:
REMARK  status: ('A' for Active; 'I' for Inactive)
REMARK    1  A    between atoms: C1_1  and  C2_2 
REMARK    2  A    between atoms: C4_4  and  O1_12 
ROOT
ATOM      1  C2  <0> d          -0.718   1.572   1.248  0.00  0.00    -0.052 A 
ATOM      2  C3  <0> d          -1.232   0.782   2.174  0.00  0.00    -0.065 A 
ATOM      3  C4  <0> d          -1.847   1.648   3.248  0.00  0.00     0.078 A 
ATOM      4  H1  <0> d          -2.916   1.451   3.326  0.00  0.00     0.097 H 
ATOM      5  C5  <0> d          -1.610   3.071   2.802  0.00  0.00    -0.015 A 
ATOM      6  C6  <0> d          -0.920   2.992   1.591  0.00  0.00    -0.021 A 
ATOM      7  C7  <0> d          -0.565   4.171   0.931  0.00  0.00    -0.072 A 
ATOM      8  C8  <0> d          -0.889   5.392   1.484  0.00  0.00    -0.082 A 
ATOM      9  C9  <0> d          -1.569   5.457   2.687  0.00  0.00    -0.082 A 
ATOM     10  C10 <0> d          -1.929   4.293   3.345  0.00  0.00    -0.073 A 
ATOM     11  H5  <0> d          -1.216  -0.298   2.165  0.00  0.00     0.082 H 
ATOM     12  H6  <0> d          -0.034   4.126  -0.009  0.00  0.00     0.084 H 
ATOM     13  H7  <0> d          -0.610   6.303   0.975  0.00  0.00     0.083 H 
ATOM     14  H8  <0> d          -1.819   6.417   3.113  0.00  0.00     0.083 H 
ATOM     15  H9  <0> d          -2.459   4.345   4.285  0.00  0.00     0.084 H 
ENDROOT
BRANCH   1  16
ATOM     16  C1  <0> d          -0.013   1.086   0.008  0.00  0.00    -0.051 C 
ATOM     17  H2  <0> d           0.002  -0.004   0.002  0.00  0.00     0.033 H 
ATOM     18  H3  <0> d           1.010   1.463   0.000  0.00  0.00     0.033 H 
ATOM     19  H4  <0> d          -0.540   1.447  -0.875  0.00  0.00     0.033 H 
ENDBRANCH   1  16
BRANCH   3  20
ATOM     20  O1  <0> d          -1.206   1.410   4.503  0.00  0.00    -0.387 OA
ATOM     21  H10 <0> d          -1.291   0.501   4.822  0.00  0.00     0.210 HD
ENDBRANCH   3  20
TORSDOF 2
