REMARK  3 active torsions:
REMARK  status: ('A' for Active; 'I' for Inactive)
REMARK    1  A    between atoms: C1_1  and  C2_2 
REMARK    2  A    between atoms: C5_5  and  C8_9 
REMARK    3  A    between atoms: C6_7  and  C7_8 
ROOT
ATOM      1  C2  <0> d          -0.089   4.222   0.025  0.00  0.00    -0.038 A 
ATOM      2  C3  <0> d           1.144   3.588   0.010  0.00  0.00    -0.073 A 
ATOM      3  C4  <0> d           1.174   2.202   0.003  0.00  0.00    -0.059 A 
ATOM      4  C5  <0> d          -0.018   1.503   0.010  0.00  0.00     0.031 A 
ATOM      5  N1  <0> d          -1.173   2.139   0.019  0.00  0.00    -0.258 NA
ATOM      6  C6  <0> d          -1.240   3.456   0.032  0.00  0.00     0.037 A 
ATOM      7  H4  <0> d           2.060   4.161   0.004  0.00  0.00     0.084 H 
ATOM      8  H5  <0> d           2.117   1.676  -0.009  0.00  0.00     0.086 H 
ENDROOT
BRANCH   1   9
ATOM      9  C1  <0> d          -0.174   5.726   0.033  0.00  0.00    -0.049 C 
ATOM     10  H1  <0> d          -0.205   6.094  -0.993  0.00  0.00     0.033 H 
ATOM     11  H2  <0> d          -1.079   6.036   0.556  0.00  0.00     0.033 H 
ATOM     12  H3  <0> d           0.699   6.137   0.540  0.00  0.00     0.033 H 
ENDBRANCH   1   9
BRANCH   6  13
ATOM     13  C7  <0> d          -2.586   4.134   0.048  0.00  0.00    -0.035 C 
ATOM     14  H6  <0> d          -2.920   4.302  -0.976  0.00  0.00     0.035 H 
ATOM     15  H7  <0> d          -3.305   3.500   0.565  0.00  0.00     0.035 H 
ATOM     16  H8  <0> d          -2.505   5.089   0.566  0.00  0.00     0.035 H 
ENDBRANCH   6  13
BRANCH   4  17
ATOM     17  C8  <0> d           0.002  -0.004   0.002  0.00  0.00    -0.035 C 
ATOM     18  H9  <0> d           0.017  -0.373   1.028  0.00  0.00     0.035 H 
ATOM     19  H10 <0> d          -0.888  -0.377  -0.505  0.00  0.00     0.035 H 
ATOM     20  H11 <0> d           0.892  -0.352  -0.522  0.00  0.00     0.035 H 
ENDBRANCH   4  17
TORSDOF 3
