REMARK  3 active torsions:
REMARK  status: ('A' for Active; 'I' for Inactive)
REMARK    1  A    between atoms: C1_1  and  O1_2 
REMARK    2  A    between atoms: O1_2  and  C2_3 
REMARK    3  A    between atoms: C2_3  and  C3_5 
ROOT
ATOM      1  C3  <0> d          -1.247  -2.108   0.003  0.00  0.00     0.039 A 
ATOM      2  C4  <0> d          -0.068  -2.856  -0.007  0.00  0.00    -0.067 A 
ATOM      3  C5  <0> d          -0.129  -4.234  -0.014  0.00  0.00    -0.082 A 
ATOM      4  C6  <0> d          -1.354  -4.875  -0.011  0.00  0.00    -0.083 A 
ATOM      5  C7  <0> d          -2.527  -4.141  -0.002  0.00  0.00    -0.082 A 
ATOM      6  C8  <0> d          -2.481  -2.762   0.011  0.00  0.00    -0.067 A 
ATOM      7  H4  <0> d           0.890  -2.356  -0.009  0.00  0.00     0.085 H 
ATOM      8  H5  <0> d           0.783  -4.813  -0.021  0.00  0.00     0.083 H 
ATOM      9  H6  <0> d          -1.396  -5.955  -0.017  0.00  0.00     0.083 H 
ATOM     10  H7  <0> d          -3.481  -4.648  -0.001  0.00  0.00     0.083 H 
ATOM     11  H8  <0> d          -3.397  -2.190   0.023  0.00  0.00     0.085 H 
ENDROOT
BRANCH   1  12
ATOM     12  C2  <0> d          -1.190  -0.632   0.010  0.00  0.00     0.292 C 
ATOM     13  O2  <0> d          -2.217   0.016   0.023  0.00  0.00    -0.259 OA
BRANCH  12  14
ATOM     14  O1  <0> d           0.002  -0.004   0.002  0.00  0.00    -0.323 OA
BRANCH  14  15
ATOM     15  C1  <0> d          -0.017   1.425   0.010  0.00  0.00     0.013 C 
ATOM     16  H1  <0> d           1.005   1.802   0.002  0.00  0.00     0.067 H 
ATOM     17  H2  <0> d          -0.544   1.786  -0.873  0.00  0.00     0.067 H 
ATOM     18  H3  <0> d          -0.527   1.776   0.907  0.00  0.00     0.067 H 
ENDBRANCH  14  15
ENDBRANCH  12  14
ENDBRANCH   1  12
TORSDOF 3
