REMARK  4 active torsions:
REMARK  status: ('A' for Active; 'I' for Inactive)
REMARK    1  A    between atoms: C1_1  and  C2_2 
REMARK    2  A    between atoms: C3_3  and  C6_8 
REMARK    3  A    between atoms: C4_5  and  C5_7 
REMARK    4  A    between atoms: C6_8  and  O1_9 
ROOT
ATOM      1  C2  <0> d           1.071   3.920   1.057  0.00  0.00     0.046 A 
ATOM      2  C3  <0> d           1.147   3.062   0.008  0.00  0.00     0.032 A 
ATOM      3  S1  <0> d           1.028   4.206  -1.360  0.00  0.00    -0.075 SA
ATOM      4  C4  <0> d           0.901   5.663  -0.423  0.00  0.00     0.072 A 
ATOM      5  N1  <0> d           0.955   5.207   0.807  0.00  0.00    -0.250 NA
ENDROOT
BRANCH   2   6
ATOM      6  C6  <0> d           1.286   1.562  -0.002  0.00  0.00     0.048 C 
ATOM      7  H7  <0> d           1.840   1.243   0.881  0.00  0.00     0.082 H 
ATOM      8  H8  <0> d           1.823   1.252  -0.899  0.00  0.00     0.082 H 
BRANCH   6   9
ATOM      9  O1  <0> d          -0.011   0.963   0.007  0.00  0.00    -0.396 OA
ATOM     10  H9  <0> d           0.002  -0.004   0.002  0.00  0.00     0.209 HD
ENDBRANCH   6   9
ENDBRANCH   2   6
BRANCH   1  11
ATOM     11  C1  <0> d           1.124   3.411   2.475  0.00  0.00    -0.034 C 
ATOM     12  H1  <0> d           2.160   3.383   2.813  0.00  0.00     0.035 H 
ATOM     13  H2  <0> d           0.548   4.074   3.120  0.00  0.00     0.035 H 
ATOM     14  H3  <0> d           0.701   2.407   2.516  0.00  0.00     0.035 H 
ENDBRANCH   1  11
BRANCH   4  15
ATOM     15  C5  <0> d           0.763   7.086  -0.900  0.00  0.00    -0.029 C 
ATOM     16  H4  <0> d          -0.294   7.333  -1.005  0.00  0.00     0.036 H 
ATOM     17  H5  <0> d           1.223   7.758  -0.176  0.00  0.00     0.036 H 
ATOM     18  H6  <0> d           1.259   7.196  -1.864  0.00  0.00     0.036 H 
ENDBRANCH   4  15
TORSDOF 4
