REMARK  4 active torsions:
REMARK  status: ('A' for Active; 'I' for Inactive)
REMARK    1  A    between atoms: C1_1  and  C2_2 
REMARK    2  A    between atoms: C2_2  and  C3_3 
REMARK    3  A    between atoms: C2_2  and  C4_4 
REMARK    4  A    between atoms: C10_10  and  O1_12 
ROOT
ATOM      1  C4  <0> d          -0.468   3.845   2.184  0.00  0.00    -0.095 C 
ATOM      2  C5  <0> d          -0.829   3.085   1.180  0.00  0.00    -0.055 C 
ATOM      3  C6  <0> d          -1.123   3.683  -0.178  0.00  0.00    -0.042 C 
ATOM      4  C7  <0> d          -0.316   2.917  -1.232  0.00  0.00    -0.061 C 
ATOM      5  C8  <0> d          -0.624   1.423  -1.121  0.00  0.00    -0.062 C 
ATOM      6  C9  <0> d          -0.163   0.898   0.240  0.00  0.00    -0.037 C 
ATOM      7  C10 <0> d          -0.964   1.588   1.349  0.00  0.00     0.057 C 
ATOM      8  H1  <0> d          -2.014   1.304   1.274  0.00  0.00     0.090 H 
ATOM      9  H9  <0> d          -0.148   3.396   3.113  0.00  0.00     0.077 H 
ATOM     10  H10 <0> d          -0.833   4.733  -0.187  0.00  0.00     0.039 H 
ATOM     11  H11 <0> d          -2.188   3.593  -0.395  0.00  0.00     0.039 H 
ATOM     12  H12 <0> d           0.748   3.082  -1.066  0.00  0.00     0.033 H 
ATOM     13  H13 <0> d          -0.588   3.271  -2.227  0.00  0.00     0.033 H 
ATOM     14  H14 <0> d          -0.102   0.885  -1.912  0.00  0.00     0.033 H 
ATOM     15  H15 <0> d          -1.698   1.266  -1.225  0.00  0.00     0.033 H 
ATOM     16  H16 <0> d          -0.327  -0.178   0.289  0.00  0.00     0.037 H 
ATOM     17  H17 <0> d           0.898   1.111   0.371  0.00  0.00     0.037 H 
ENDROOT
BRANCH   1  18
ATOM     18  C2  <0> d          -0.497   5.345   2.043  0.00  0.00    -0.044 C 
ATOM     19  H5  <0> d          -0.952   5.611   1.088  0.00  0.00     0.044 H 
BRANCH  18  20
ATOM     20  C1  <0> d          -1.318   5.948   3.184  0.00  0.00    -0.070 C 
ATOM     21  H2  <0> d          -0.864   5.682   4.139  0.00  0.00     0.028 H 
ATOM     22  H3  <0> d          -1.340   7.033   3.082  0.00  0.00     0.028 H 
ATOM     23  H4  <0> d          -2.336   5.560   3.145  0.00  0.00     0.028 H 
ENDBRANCH  18  20
BRANCH  18  24
ATOM     24  C3  <0> d           0.931   5.891   2.098  0.00  0.00    -0.070 C 
ATOM     25  H6  <0> d           1.516   5.461   1.285  0.00  0.00     0.028 H 
ATOM     26  H7  <0> d           0.909   6.976   1.996  0.00  0.00     0.028 H 
ATOM     27  H8  <0> d           1.385   5.625   3.052  0.00  0.00     0.028 H 
ENDBRANCH  18  24
ENDBRANCH   1  18
BRANCH   7  28
ATOM     28  O1  <0> d          -0.449   1.201   2.625  0.00  0.00    -0.391 OA
ATOM     29  H18 <0> d          -0.491   0.250   2.794  0.00  0.00     0.210 HD
ENDBRANCH   7  28
TORSDOF 4
