REMARK  3 active torsions:
REMARK  status: ('A' for Active; 'I' for Inactive)
REMARK    1  A    between atoms: C1_1  and  C2_2 
REMARK    2  A    between atoms: C6_7  and  C9_13 
REMARK       I    between atoms: N1_9  and  C7_10 
REMARK    3  A    between atoms: C7_10  and  C8_12 
ROOT
ATOM      1  C2  <0> d           1.491   2.190   0.218  0.00  0.00     0.011 C 
ATOM      2  H1  <0> d           1.902   1.830  -0.725  0.00  0.00     0.072 H 
ATOM      3  C3  <0> d           2.437   1.821   1.365  0.00  0.00    -0.046 C 
ATOM      4  C4  <0> d           2.493   0.298   1.506  0.00  0.00    -0.061 C 
ATOM      5  C5  <0> d           1.098  -0.236   1.839  0.00  0.00    -0.046 C 
ATOM      6  C6  <0> d           0.137   0.109   0.698  0.00  0.00     0.011 C 
ATOM      7  H2  <0> d          -0.877  -0.181   0.973  0.00  0.00     0.072 H 
ATOM      8  N1  <0> d           0.186   1.558   0.460  0.00  0.00    -0.344 N 
ATOM      9  C7  <0> d          -0.943   2.293   0.457  0.00  0.00     0.216 C 
ATOM     10  O1  <0> d          -0.881   3.500   0.362  0.00  0.00    -0.274 OA
ATOM     11  H6  <0> d           2.071   2.259   2.294  0.00  0.00     0.035 H 
ATOM     12  H7  <0> d           3.435   2.204   1.151  0.00  0.00     0.035 H 
ATOM     13  H8  <0> d           3.184   0.032   2.306  0.00  0.00     0.033 H 
ATOM     14  H9  <0> d           2.835  -0.141   0.569  0.00  0.00     0.033 H 
ATOM     15  H10 <0> d           0.744   0.221   2.764  0.00  0.00     0.035 H 
ATOM     16  H11 <0> d           1.143  -1.318   1.962  0.00  0.00     0.035 H 
ENDROOT
BRANCH   1  17
ATOM     17  C1  <0> d           1.322   3.709   0.161  0.00  0.00    -0.057 C 
ATOM     18  H3  <0> d           0.852   4.058   1.081  0.00  0.00     0.030 H 
ATOM     19  H4  <0> d           2.299   4.180   0.052  0.00  0.00     0.030 H 
ATOM     20  H5  <0> d           0.694   3.973  -0.690  0.00  0.00     0.030 H 
ENDBRANCH   1  17
BRANCH   6  21
ATOM     21  C9  <0> d           0.559  -0.634  -0.571  0.00  0.00    -0.057 C 
ATOM     22  H15 <0> d           1.576  -0.346  -0.840  0.00  0.00     0.030 H 
ATOM     23  H16 <0> d           0.522  -1.709  -0.392  0.00  0.00     0.030 H 
ATOM     24  H17 <0> d          -0.118  -0.377  -1.385  0.00  0.00     0.030 H 
ENDBRANCH   6  21
BRANCH   9  25
ATOM     25  C8  <0> d          -2.284   1.614   0.572  0.00  0.00    -0.003 C 
ATOM     26  H12 <0> d          -2.147   0.533   0.550  0.00  0.00     0.040 H 
ATOM     27  H13 <0> d          -2.758   1.901   1.510  0.00  0.00     0.040 H 
ATOM     28  H14 <0> d          -2.917   1.916  -0.263  0.00  0.00     0.040 H 
ENDBRANCH   9  25
TORSDOF 3
