REMARK  3 active torsions:
REMARK  status: ('A' for Active; 'I' for Inactive)
REMARK    1  A    between atoms: C1_1  and  C2_2 
REMARK    2  A    between atoms: C2_2  and  C3_4 
REMARK    3  A    between atoms: C2_2  and  O2_9 
ROOT
ATOM      1  C3  <0> d          -0.718   1.572   1.248  0.00  0.00    -0.006 A 
ATOM      2  C4  <0> d          -1.612   0.830   2.054  0.00  0.00    -0.051 A 
ATOM      3  C5  <0> d          -2.004   1.644   3.051  0.00  0.00     0.019 A 
ATOM      4  O1  <0> d          -1.399   2.832   2.892  0.00  0.00    -0.334 OA
ATOM      5  C6  <0> d          -0.614   2.793   1.803  0.00  0.00     0.027 A 
ATOM      6  H5  <0> d          -1.921  -0.193   1.899  0.00  0.00     0.087 H 
ATOM      7  H6  <0> d          -2.690   1.385   3.845  0.00  0.00     0.123 H 
ATOM      8  H7  <0> d          -0.004   3.604   1.434  0.00  0.00     0.124 H 
ENDROOT
BRANCH   1   9
ATOM      9  C2  <0> d          -0.013   1.086   0.008  0.00  0.00     0.059 C 
ATOM     10  H1  <0> d           0.002  -0.004   0.002  0.00  0.00     0.090 H 
BRANCH   9  11
ATOM     11  C1  <0> d          -0.753   1.593  -1.232  0.00  0.00    -0.049 C 
ATOM     12  H2  <0> d          -0.242   1.241  -2.128  0.00  0.00     0.031 H 
ATOM     13  H3  <0> d          -1.775   1.215  -1.224  0.00  0.00     0.031 H 
ATOM     14  H4  <0> d          -0.767   2.683  -1.226  0.00  0.00     0.031 H 
ENDBRANCH   9  11
BRANCH   9  15
ATOM     15  O2  <0> d           1.328   1.580  -0.002  0.00  0.00    -0.391 OA
ATOM     16  H8  <0> d           1.391   2.545   0.002  0.00  0.00     0.210 HD
ENDBRANCH   9  15
ENDBRANCH   1   9
TORSDOF 3
