REMARK  9 active torsions:
REMARK  status: ('A' for Active; 'I' for Inactive)
REMARK    1  A    between atoms: C1_1  and  O1_2 
REMARK    2  A    between atoms: O1_2  and  C2_3 
REMARK    3  A    between atoms: C2_3  and  C3_4 
REMARK    4  A    between atoms: C3_4  and  C4_5 
REMARK    5  A    between atoms: C4_5  and  C5_6 
REMARK    6  A    between atoms: C4_5  and  C7_9 
REMARK    7  A    between atoms: C4_5  and  O3_11 
REMARK    8  A    between atoms: C5_6  and  O2_7 
REMARK    9  A    between atoms: O2_7  and  C6_8 
ROOT
ATOM      1  C7  <0> d           0.002  -0.004   0.002  0.00  0.00    -0.077 C 
ATOM      2  C8  <0> d           0.018  -1.178  -0.004  0.00  0.00    -0.151 C 
ATOM      3  H13 <0> d           0.032  -2.228  -0.010  0.00  0.00     0.166 H 
ENDROOT
BRANCH   1   4
ATOM      4  C4  <0> d          -0.018   1.468   0.010  0.00  0.00     0.143 C 
BRANCH   4   5
ATOM      5  C3  <0> d          -0.758   1.975  -1.229  0.00  0.00    -0.004 C 
ATOM      6  H6  <0> d          -1.804   1.672  -1.177  0.00  0.00     0.042 H 
ATOM      7  H7  <0> d          -0.696   3.062  -1.270  0.00  0.00     0.042 H 
BRANCH   5   8
ATOM      8  C2  <0> d          -0.117   1.380  -2.485  0.00  0.00     0.022 C 
ATOM      9  H4  <0> d           0.929   1.683  -2.537  0.00  0.00     0.074 H 
ATOM     10  H5  <0> d          -0.178   0.293  -2.444  0.00  0.00     0.074 H 
BRANCH   8  11
ATOM     11  O1  <0> d          -0.808   1.853  -3.643  0.00  0.00    -0.396 OA
BRANCH  11  12
ATOM     12  C1  <0> d          -0.285   1.355  -4.876  0.00  0.00     0.004 C 
ATOM     13  H1  <0> d           0.757   1.657  -4.977  0.00  0.00     0.066 H 
ATOM     14  H2  <0> d          -0.350   0.267  -4.885  0.00  0.00     0.066 H 
ATOM     15  H3  <0> d          -0.864   1.761  -5.706  0.00  0.00     0.066 H 
ENDBRANCH  11  12
ENDBRANCH   8  11
ENDBRANCH   5   8
ENDBRANCH   4   5
BRANCH   4  16
ATOM     16  C5  <0> d          -0.734   1.961   1.269  0.00  0.00     0.058 C 
ATOM     17  H8  <0> d          -0.749   3.051   1.275  0.00  0.00     0.080 H 
ATOM     18  H9  <0> d          -1.757   1.584   1.277  0.00  0.00     0.080 H 
BRANCH  16  19
ATOM     19  O2  <0> d          -0.043   1.488   2.427  0.00  0.00    -0.392 OA
BRANCH  19  20
ATOM     20  C6  <0> d          -0.633   1.895   3.663  0.00  0.00     0.004 C 
ATOM     21  H10 <0> d          -0.646   2.983   3.718  0.00  0.00     0.066 H 
ATOM     22  H11 <0> d          -1.654   1.516   3.720  0.00  0.00     0.066 H 
ATOM     23  H12 <0> d          -0.050   1.495   4.493  0.00  0.00     0.066 H 
ENDBRANCH  19  20
ENDBRANCH  16  19
ENDBRANCH   4  16
BRANCH   4  24
ATOM     24  O3  <0> d           1.323   1.962  -0.000  0.00  0.00    -0.375 OA
ATOM     25  H14 <0> d           1.386   2.927   0.004  0.00  0.00     0.211 HD
ENDBRANCH   4  24
ENDBRANCH   1   4
TORSDOF 9
