REMARK  3 active torsions:
REMARK  status: ('A' for Active; 'I' for Inactive)
REMARK    1  A    between atoms: C1_1  and  C2_2 
REMARK    2  A    between atoms: C2_2  and  C3_3 
REMARK    3  A    between atoms: C2_2  and  O1_5 
ROOT
ATOM      1  C2  <0> d          -0.013   1.086   0.008  0.00  0.00     0.085 C 
ATOM      2  H3  <0> d           0.002  -0.004   0.002  0.00  0.00     0.090 H 
ENDROOT
BRANCH   1   3
ATOM      3  C1  <0> d          -0.753   1.593  -1.232  0.00  0.00     0.084 C 
ATOM      4  F2  <0> d          -0.166   1.049  -2.380  0.00  0.00    -0.253 F 
ATOM      5  H1  <0> d          -1.798   1.290  -1.179  0.00  0.00     0.086 H 
ATOM      6  H2  <0> d          -0.691   2.680  -1.272  0.00  0.00     0.086 H 
ENDBRANCH   1   3
BRANCH   1   7
ATOM      7  C3  <0> d          -0.729   1.579   1.267  0.00  0.00     0.084 C 
ATOM      8  F1  <0> d          -0.121   1.023   2.397  0.00  0.00    -0.253 F 
ATOM      9  H4  <0> d          -0.666   2.666   1.318  0.00  0.00     0.086 H 
ATOM     10  H5  <0> d          -1.776   1.277   1.232  0.00  0.00     0.086 H 
ENDBRANCH   1   7
BRANCH   1  11
ATOM     11  O1  <0> d           1.328   1.580  -0.002  0.00  0.00    -0.391 OA
ATOM     12  H6  <0> d           1.391   2.545   0.002  0.00  0.00     0.210 HD
ENDBRANCH   1  11
TORSDOF 3
