REMARK  0 active torsions:
REMARK  status: ('A' for Active; 'I' for Inactive)
ROOT
ATOM      1  C1  <0> d          -2.643   2.055   0.038  0.00  0.00    -0.051 A 
ATOM      2  C2  <0> d          -3.348   3.198   0.050  0.00  0.00    -0.020 A 
ATOM      3  N1  <0> d          -2.496   4.271   0.048  0.00  0.00    -0.350 N 
ATOM      4  H1  <0> d          -2.900   5.295   0.056  0.00  0.00     0.166 HD
ATOM      5  C3  <0> d          -1.198   3.840   0.033  0.00  0.00     0.142 A 
ATOM      6  C4  <0> d          -1.230   2.429   0.021  0.00  0.00     0.052 A 
ATOM      7  C5  <0> d          -0.021   1.732   0.012  0.00  0.00     0.141 A 
ATOM      8  N2  <0> d           1.107   2.425   0.004  0.00  0.00    -0.229 NA
ATOM      9  C6  <0> d           1.097   3.746   0.011  0.00  0.00     0.090 A 
ATOM     10  N3  <0> d          -0.015   4.448   0.025  0.00  0.00    -0.223 NA
ATOM     11 Cl1  <0> d           0.002  -0.004   0.002  0.00  0.00    -0.061 Cl
ATOM     12  H2  <0> d          -3.044   1.052   0.036  0.00  0.00     0.087 H 
ATOM     13  H3  <0> d          -4.426   3.262   0.060  0.00  0.00     0.111 H 
ATOM     14  H4  <0> d           2.041   4.271   0.005  0.00  0.00     0.146 H 
ENDROOT
TORSDOF 0
