REMARK  5 active torsions:
REMARK  status: ('A' for Active; 'I' for Inactive)
REMARK    1  A    between atoms: C1_1  and  C2_2 
REMARK    2  A    between atoms: C5_5  and  C9_10 
REMARK    3  A    between atoms: N1_6  and  C6_7 
REMARK    4  A    between atoms: C6_7  and  C7_8 
REMARK    5  A    between atoms: C6_7  and  C8_9 
ROOT
ATOM      1  C2  <0> d           2.115  -0.214  -1.355  0.00  0.00     0.008 A 
ATOM      2  C3  <0> d           2.478  -0.813  -2.508  0.00  0.00    -0.060 A 
ATOM      3  C4  <0> d           1.337  -1.458  -3.025  0.00  0.00    -0.060 A 
ATOM      4  C5  <0> d           0.322  -1.234  -2.166  0.00  0.00     0.008 A 
ATOM      5  N1  <0> d           0.795  -0.474  -1.137  0.00  0.00    -0.351 N 
ATOM      6  H4  <0> d           3.461  -0.797  -2.955  0.00  0.00     0.086 H 
ATOM      7  H5  <0> d           1.285  -2.028  -3.941  0.00  0.00     0.086 H 
ENDROOT
BRANCH   5   8
ATOM      8  C6  <0> d           0.011  -0.008   0.010  0.00  0.00     0.010 C 
ATOM      9  H6  <0> d           0.618   0.666   0.615  0.00  0.00     0.072 H 
BRANCH   8  10
ATOM     10  C7  <0> d          -0.415  -1.209   0.858  0.00  0.00    -0.057 C 
ATOM     11  H7  <0> d          -1.107  -1.828   0.288  0.00  0.00     0.030 H 
ATOM     12  H8  <0> d           0.464  -1.796   1.124  0.00  0.00     0.030 H 
ATOM     13  H9  <0> d          -0.905  -0.857   1.766  0.00  0.00     0.030 H 
ENDBRANCH   8  10
BRANCH   8  14
ATOM     14  C8  <0> d          -1.232   0.732  -0.488  0.00  0.00    -0.057 C 
ATOM     15  H10 <0> d          -1.838   0.057  -1.092  0.00  0.00     0.030 H 
ATOM     16  H11 <0> d          -1.815   1.078   0.366  0.00  0.00     0.030 H 
ATOM     17  H12 <0> d          -0.928   1.587  -1.092  0.00  0.00     0.030 H 
ENDBRANCH   8  14
ENDBRANCH   5   8
BRANCH   1  18
ATOM     18  C1  <0> d           3.015   0.599  -0.461  0.00  0.00    -0.037 C 
ATOM     19  H1  <0> d           3.411  -0.036   0.331  0.00  0.00     0.035 H 
ATOM     20  H2  <0> d           3.840   1.005  -1.048  0.00  0.00     0.035 H 
ATOM     21  H3  <0> d           2.446   1.417  -0.020  0.00  0.00     0.035 H 
ENDBRANCH   1  18
BRANCH   4  22
ATOM     22  C9  <0> d          -1.090  -1.737  -2.316  0.00  0.00    -0.037 C 
ATOM     23  H13 <0> d          -1.657  -1.048  -2.941  0.00  0.00     0.035 H 
ATOM     24  H14 <0> d          -1.077  -2.723  -2.781  0.00  0.00     0.035 H 
ATOM     25  H15 <0> d          -1.558  -1.806  -1.334  0.00  0.00     0.035 H 
ENDBRANCH   4  22
TORSDOF 5
