REMARK  2 active torsions:
REMARK  status: ('A' for Active; 'I' for Inactive)
REMARK    1  A    between atoms: C1_1  and  N1_2 
REMARK    2  A    between atoms: N3_9  and  C5_12 
ROOT
ATOM      1  N1  <0> d           1.129   3.003   0.007  0.00  0.00    -0.255 N 
ATOM      2  C2  <0> d           1.147   1.655  -0.000  0.00  0.00     0.334 A 
ATOM      3  O1  <0> d           2.207   1.062  -0.013  0.00  0.00    -0.246 OA
ATOM      4  N2  <0> d          -0.011   0.966   0.007  0.00  0.00    -0.260 N 
ATOM      5  H1  <0> d           0.002  -0.004   0.002  0.00  0.00     0.175 HD
ATOM      6  C3  <0> d          -1.187   1.624   0.017  0.00  0.00     0.334 A 
ATOM      7  O2  <0> d          -2.231   1.002   0.018  0.00  0.00    -0.246 OA
ATOM      8  N3  <0> d          -1.206   2.971   0.029  0.00  0.00    -0.255 N 
ATOM      9  C4  <0> d          -0.048   3.661   0.021  0.00  0.00     0.336 A 
ATOM     10  O3  <0> d          -0.064   4.876   0.028  0.00  0.00    -0.246 OA
ENDROOT
BRANCH   1  11
ATOM     11  C1  <0> d           2.387   3.753  -0.002  0.00  0.00    -0.005 C 
ATOM     12  H2  <0> d           3.225   3.056  -0.013  0.00  0.00     0.057 H 
ATOM     13  H3  <0> d           2.428   4.385  -0.889  0.00  0.00     0.057 H 
ATOM     14  H4  <0> d           2.445   4.376   0.891  0.00  0.00     0.057 H 
ENDBRANCH   1  11
BRANCH   8  15
ATOM     15  C5  <0> d          -2.484   3.687   0.045  0.00  0.00    -0.005 C 
ATOM     16  H5  <0> d          -2.811   3.869  -0.978  0.00  0.00     0.057 H 
ATOM     17  H6  <0> d          -3.231   3.084   0.563  0.00  0.00     0.057 H 
ATOM     18  H7  <0> d          -2.362   4.638   0.563  0.00  0.00     0.057 H 
ENDBRANCH   8  15
TORSDOF 2
