REMARK  0 active torsions:
REMARK  status: ('A' for Active; 'I' for Inactive)
ROOT
ATOM      1  C1  <0> d          -3.405   2.494   0.046  0.00  0.00    -0.060 A 
ATOM      2  C2  <0> d          -2.503   1.469   0.033  0.00  0.00    -0.053 A 
ATOM      3  C3  <0> d          -1.138   1.746   0.016  0.00  0.00     0.061 A 
ATOM      4  C4  <0> d          -0.704   3.086   0.025  0.00  0.00     0.013 A 
ATOM      5  C5  <0> d          -1.647   4.119   0.039  0.00  0.00    -0.048 A 
ATOM      6  C6  <0> d          -2.979   3.818   0.049  0.00  0.00     0.035 A 
ATOM      7 Cl1  <0> d          -4.151   5.098   0.067  0.00  0.00    -0.084 Cl
ATOM      8  C7  <0> d           0.755   3.044   0.011  0.00  0.00     0.034 A 
ATOM      9  N1  <0> d           1.117   1.793   0.001  0.00  0.00    -0.186 NA
ATOM     10  N2  <0> d          -0.011   0.966   0.007  0.00  0.00    -0.278 N 
ATOM     11  H1  <0> d           0.003  -0.034   0.006  0.00  0.00     0.189 HD
ATOM     12  H2  <0> d          -4.463   2.274   0.055  0.00  0.00     0.086 H 
ATOM     13  H3  <0> d          -2.847   0.445   0.031  0.00  0.00     0.087 H 
ATOM     14  H4  <0> d          -1.323   5.150   0.041  0.00  0.00     0.087 H 
ATOM     15  H5  <0> d           1.416   3.898   0.009  0.00  0.00     0.118 H 
ENDROOT
TORSDOF 0
