REMARK  2 active torsions:
REMARK  status: ('A' for Active; 'I' for Inactive)
REMARK    1  A    between atoms: C1_1  and  N5_10 
REMARK    2  A    between atoms: C3_7  and  N4_9 
ROOT
ATOM      1  C1  <0> d          -0.016   1.318   0.009  0.00  0.00     0.694 A 
ATOM      2  N1  <0> d           1.161   2.010   0.002  0.00  0.00    -0.139 N 
ATOM      3  H1  <0> d           1.158   2.980   0.007  0.00  0.00     0.189 HD
ATOM      4  C2  <0> d           2.327   1.332  -0.013  0.00  0.00     0.376 A 
ATOM      5  O1  <0> d           3.387   1.935  -0.019  0.00  0.00    -0.243 OA
ATOM      6  N2  <0> d           2.316  -0.002  -0.020  0.00  0.00    -0.005 NA
ATOM      7  C3  <0> d           1.163  -0.662  -0.013  0.00  0.00     0.717 A 
ATOM      8  N3  <0> d           0.002  -0.004   0.002  0.00  0.00    -0.021 N 
ATOM      9  H6  <0> d          -0.833  -0.498   0.007  0.00  0.00     0.203 HD
ENDROOT
BRANCH   1  10
ATOM     10  N5  <0> d          -1.206   1.988   0.030  0.00  0.00    -0.234 N 
ATOM     11  H4  <0> d          -2.041   1.494   0.039  0.00  0.00     0.174 HD
ATOM     12  H5  <0> d          -1.217   2.958   0.035  0.00  0.00     0.174 HD
ENDBRANCH   1  10
BRANCH   7  13
ATOM     13  N4  <0> d           1.167  -2.036  -0.020  0.00  0.00    -0.232 N 
ATOM     14  H2  <0> d           2.008  -2.519  -0.031  0.00  0.00     0.174 HD
ATOM     15  H3  <0> d           0.328  -2.523  -0.015  0.00  0.00     0.174 HD
ENDBRANCH   7  13
TORSDOF 2
