REMARK  8 active torsions:
REMARK  status: ('A' for Active; 'I' for Inactive)
REMARK    1  A    between atoms: C1_1  and  C2_2 
REMARK    2  A    between atoms: C2_2  and  C3_3 
REMARK    3  A    between atoms: C3_3  and  C4_4 
REMARK    4  A    between atoms: C4_4  and  O1_5 
REMARK    5  A    between atoms: O1_5  and  C5_6 
REMARK    6  A    between atoms: C5_6  and  C6_7 
REMARK    7  A    between atoms: C6_7  and  O3_9 
REMARK    8  A    between atoms: O3_9  and  C7_10 
ROOT
ATOM      1  C4  <0> d          -3.701   1.593   0.028  0.00  0.00     0.020 C 
ATOM      2  H8  <0> d          -3.812   2.207   0.922  0.00  0.00     0.074 H 
ATOM      3  H9  <0> d          -3.821   2.217  -0.858  0.00  0.00     0.074 H 
ENDROOT
BRANCH   1   4
ATOM      4  C3  <0> d          -4.767   0.496   0.027  0.00  0.00    -0.045 C 
ATOM      5  H6  <0> d          -4.656  -0.118  -0.867  0.00  0.00     0.036 H 
ATOM      6  H7  <0> d          -4.648  -0.128   0.913  0.00  0.00     0.036 H 
BRANCH   4   7
ATOM      7  C2  <0> d          -6.157   1.135   0.037  0.00  0.00    -0.067 C 
ATOM      8  H4  <0> d          -6.269   1.749   0.931  0.00  0.00     0.032 H 
ATOM      9  H5  <0> d          -6.277   1.758  -0.849  0.00  0.00     0.032 H 
BRANCH   7  10
ATOM     10  C1  <0> d          -7.223   0.037   0.036  0.00  0.00    -0.076 C 
ATOM     11  H1  <0> d          -7.112  -0.576  -0.857  0.00  0.00     0.027 H 
ATOM     12  H2  <0> d          -7.104  -0.586   0.923  0.00  0.00     0.027 H 
ATOM     13  H3  <0> d          -8.214   0.493   0.044  0.00  0.00     0.027 H 
ENDBRANCH   7  10
ENDBRANCH   4   7
ENDBRANCH   1   4
BRANCH   1  14
ATOM     14  O1  <0> d          -2.403   0.997   0.019  0.00  0.00    -0.381 OA
BRANCH  14  15
ATOM     15  C5  <0> d          -1.329   1.940   0.019  0.00  0.00     0.099 C 
ATOM     16  H10 <0> d          -1.391   2.561   0.913  0.00  0.00     0.089 H 
ATOM     17  H11 <0> d          -1.400   2.570  -0.867  0.00  0.00     0.089 H 
BRANCH  15  18
ATOM     18  C6  <0> d          -0.014   1.204   0.009  0.00  0.00     0.282 C 
ATOM     19  O2  <0> d           0.002  -0.004   0.002  0.00  0.00    -0.263 OA
BRANCH  18  20
ATOM     20  O3  <0> d           1.139   1.891   0.001  0.00  0.00    -0.325 OA
BRANCH  20  21
ATOM     21  C7  <0> d           2.367   1.117  -0.015  0.00  0.00     0.013 C 
ATOM     22  H12 <0> d           2.392   0.493  -0.908  0.00  0.00     0.067 H 
ATOM     23  H13 <0> d           3.223   1.792  -0.019  0.00  0.00     0.067 H 
ATOM     24  H14 <0> d           2.409   0.484   0.872  0.00  0.00     0.067 H 
ENDBRANCH  20  21
ENDBRANCH  18  20
ENDBRANCH  15  18
ENDBRANCH  14  15
ENDBRANCH   1  14
TORSDOF 8
