REMARK  0 active torsions:
REMARK  status: ('A' for Active; 'I' for Inactive)
ROOT
ATOM      1  C1  <0> d          -0.708   5.587   0.037  0.00  0.00    -0.080 A 
ATOM      2  C2  <0> d           0.699   5.547   0.024  0.00  0.00    -0.068 A 
ATOM      3  C3  <0> d           1.350   4.368   0.012  0.00  0.00    -0.015 A 
ATOM      4  N1  <0> d           0.656   3.185   0.012  0.00  0.00    -0.333 N 
ATOM      5  C4  <0> d           1.072   1.887   0.002  0.00  0.00    -0.015 A 
ATOM      6  C5  <0> d          -0.013   1.076   0.008  0.00  0.00    -0.065 A 
ATOM      7  C6  <0> d          -1.154   1.882   0.017  0.00  0.00    -0.055 A 
ATOM      8  C7  <0> d          -0.723   3.197   0.025  0.00  0.00     0.038 A 
ATOM      9  C8  <0> d          -1.414   4.427   0.038  0.00  0.00    -0.057 A 
ATOM     10  H1  <0> d          -1.223   6.536   0.046  0.00  0.00     0.083 H 
ATOM     11  H2  <0> d           1.262   6.469   0.022  0.00  0.00     0.085 H 
ATOM     12  H3  <0> d           2.430   4.354   0.002  0.00  0.00     0.112 H 
ATOM     13  H4  <0> d           2.101   1.559  -0.009  0.00  0.00     0.112 H 
ATOM     14  H5  <0> d           0.002  -0.004   0.002  0.00  0.00     0.085 H 
ATOM     15  H6  <0> d          -2.180   1.543   0.020  0.00  0.00     0.087 H 
ATOM     16  H7  <0> d          -2.494   4.446   0.048  0.00  0.00     0.086 H 
ENDROOT
TORSDOF 0
