REMARK  1 active torsions:
REMARK  status: ('A' for Active; 'I' for Inactive)
REMARK    1  A    between atoms: C1_1  and  C2_2 
ROOT
ATOM      1  C2  <0> d           0.002  -0.004   0.002  0.00  0.00    -0.046 A 
ATOM      2  C3  <0> d          -0.016   1.362   0.009  0.00  0.00    -0.076 A 
ATOM      3  C4  <0> d           1.169   2.084   0.002  0.00  0.00    -0.080 A 
ATOM      4  C5  <0> d           2.384   1.438  -0.013  0.00  0.00    -0.055 A 
ATOM      5  C6  <0> d           2.426   0.046  -0.021  0.00  0.00     0.064 A 
ATOM      6  C7  <0> d           1.222  -0.681  -0.013  0.00  0.00     0.039 A 
ATOM      7  C8  <0> d           1.598  -2.101  -0.025  0.00  0.00     0.169 A 
ATOM      8  N1  <0> d           2.911  -2.162  -0.039  0.00  0.00    -0.162 NA
ATOM      9  N2  <0> d           3.448  -0.871  -0.036  0.00  0.00    -0.276 N 
ATOM     10  H1  <0> d           4.423  -0.649  -0.045  0.00  0.00     0.189 HD
ATOM     11  C9  <0> d           0.699  -3.216  -0.023  0.00  0.00     0.122 C 
ATOM     12  N3  <0> d          -0.014  -4.100  -0.021  0.00  0.00    -0.190 NA
ATOM     13  H5  <0> d          -0.962   1.884   0.017  0.00  0.00     0.084 H 
ATOM     14  H6  <0> d           1.138   3.164   0.008  0.00  0.00     0.083 H 
ATOM     15  H7  <0> d           3.302   2.008  -0.018  0.00  0.00     0.087 H 
ENDROOT
BRANCH   1  16
ATOM     16  C1  <0> d          -1.291  -0.777   0.010  0.00  0.00    -0.050 C 
ATOM     17  H2  <0> d          -1.613  -0.958  -1.016  0.00  0.00     0.033 H 
ATOM     18  H3  <0> d          -1.142  -1.730   0.517  0.00  0.00     0.033 H 
ATOM     19  H4  <0> d          -2.055  -0.203   0.534  0.00  0.00     0.033 H 
ENDBRANCH   1  16
TORSDOF 1
