REMARK  3 active torsions:
REMARK  status: ('A' for Active; 'I' for Inactive)
REMARK    1  A    between atoms: C1_1  and  C2_2 
REMARK    2  A    between atoms: C2_2  and  C4_5 
REMARK    3  A    between atoms: C2_2  and  N2_8 
ROOT
ATOM      1  C2  <0> d          -0.448   2.233  -1.276  0.00  0.00     0.242 C 
ATOM      2  C3  <0> d           0.390   1.772  -2.394  0.00  0.00     0.101 C 
ATOM      3  N1  <0> d           1.038   1.415  -3.257  0.00  0.00    -0.195 NA
ENDROOT
BRANCH   1   4
ATOM      4  C1  <0> d          -0.284   3.745  -1.106  0.00  0.00    -0.030 C 
ATOM      5  H1  <0> d          -0.911   4.090  -0.271  0.00  0.00     0.032 H 
ATOM      6  H2  <0> d          -0.593   4.254  -2.031  0.00  0.00     0.032 H 
ATOM      7  H3  <0> d           0.770   3.978  -0.894  0.00  0.00     0.032 H 
ENDBRANCH   1   4
BRANCH   1   8
ATOM      8  C4  <0> d          -0.019   1.526   0.010  0.00  0.00    -0.007 A 
ATOM      9  C6  <0> d           0.002  -0.004   0.002  0.00  0.00    -0.058 A 
ATOM     10  C5  <0> d           1.317   0.779  -0.006  0.00  0.00    -0.058 A 
ATOM     11  H7  <0> d          -0.503  -0.383   0.903  0.00  0.00     0.033 H 
ATOM     12  H8  <0> d          -0.520  -0.373  -0.893  0.00  0.00     0.033 H 
ATOM     13  H5  <0> d           1.881   1.057  -0.908  0.00  0.00     0.033 H 
ATOM     14  H6  <0> d           1.898   1.048   0.888  0.00  0.00     0.033 H 
ATOM     15  H4  <0> d          -0.472   2.295   0.653  0.00  0.00     0.045 H 
ENDBRANCH   1   8
BRANCH   1  16
ATOM     16  N2  <0> d          -1.856   1.923  -1.559  0.00  0.00     0.102 N 
ATOM     17  H9  <0> d          -1.974   0.836  -1.681  0.00  0.00     0.315 HD
ATOM     18  H10 <0> d          -2.483   2.268  -0.724  0.00  0.00     0.315 HD
ENDBRANCH   1  16
TORSDOF 3
