REMARK  8 active torsions:
REMARK  status: ('A' for Active; 'I' for Inactive)
REMARK    1  A    between atoms: C1_1  and  C2_2 
REMARK    2  A    between atoms: C2_2  and  O1_3 
REMARK    3  A    between atoms: O1_3  and  C3_4 
REMARK    4  A    between atoms: C3_4  and  C4_6 
REMARK    5  A    between atoms: C4_6  and  C5_8 
REMARK    6  A    between atoms: C4_6  and  C6_9 
REMARK    7  A    between atoms: C6_9  and  C7_11 
REMARK    8  A    between atoms: C6_9  and  O3_12 
ROOT
ATOM      1  C4  <0> d          -0.729   1.579   1.267  0.00  0.00     0.051 C 
ATOM      2  H1  <0> d          -0.744   2.669   1.273  0.00  0.00     0.058 H 
ENDROOT
BRANCH   1   3
ATOM      3  C3  <0> d           0.000   1.080   2.488  0.00  0.00     0.265 C 
ATOM      4  O2  <0> d          -0.570   0.373   3.285  0.00  0.00    -0.265 OA
BRANCH   3   5
ATOM      5  O1  <0> d           1.283   1.421   2.690  0.00  0.00    -0.322 OA
BRANCH   5   6
ATOM      6  C2  <0> d           1.921   0.903   3.887  0.00  0.00     0.025 C 
ATOM      7  H6  <0> d           1.383   1.255   4.767  0.00  0.00     0.074 H 
ATOM      8  H7  <0> d           1.908  -0.186   3.864  0.00  0.00     0.074 H 
BRANCH   6   9
ATOM      9  C1  <0> d           3.369   1.394   3.945  0.00  0.00    -0.056 C 
ATOM     10  H3  <0> d           3.383   2.484   3.968  0.00  0.00     0.030 H 
ATOM     11  H4  <0> d           3.849   1.006   4.844  0.00  0.00     0.030 H 
ATOM     12  H5  <0> d           3.908   1.043   3.065  0.00  0.00     0.030 H 
ENDBRANCH   6   9
ENDBRANCH   5   6
ENDBRANCH   3   5
ENDBRANCH   1   3
BRANCH   1  13
ATOM     13  C5  <0> d          -0.013   1.086   0.008  0.00  0.00    -0.062 C 
ATOM     14  H8  <0> d           0.002  -0.004   0.002  0.00  0.00     0.028 H 
ATOM     15  H9  <0> d           1.010   1.463   0.000  0.00  0.00     0.028 H 
ATOM     16  H10 <0> d          -0.540   1.447  -0.875  0.00  0.00     0.028 H 
ENDBRANCH   1  13
BRANCH   1  17
ATOM     17  C6  <0> d          -2.164   1.050   1.278  0.00  0.00     0.044 C 
ATOM     18  H2  <0> d          -2.674   1.401   2.175  0.00  0.00     0.083 H 
BRANCH  17  19
ATOM     19  C7  <0> d          -2.904   1.556   0.038  0.00  0.00    -0.052 C 
ATOM     20  H11 <0> d          -2.394   1.205  -0.859  0.00  0.00     0.030 H 
ATOM     21  H12 <0> d          -3.927   1.179   0.046  0.00  0.00     0.030 H 
ATOM     22  H13 <0> d          -2.919   2.646   0.044  0.00  0.00     0.030 H 
ENDBRANCH  17  19
BRANCH  17  23
ATOM     23  O3  <0> d          -2.145  -0.379   1.270  0.00  0.00    -0.395 OA
ATOM     24  H14 <0> d          -1.705  -0.762   0.498  0.00  0.00     0.210 HD
ENDBRANCH  17  23
ENDBRANCH   1  17
TORSDOF 8
