REMARK  3 active torsions:
REMARK  status: ('A' for Active; 'I' for Inactive)
REMARK    1  A    between atoms: C1_1  and  N1_2 
REMARK    2  A    between atoms: C3_4  and  C6_9 
REMARK    3  A    between atoms: C6_9  and  O2_10 
ROOT
ATOM      1  N1  <0> d           1.390   1.951  -0.001  0.00  0.00    -0.356 N 
ATOM      2  C2  <0> d          -0.019   1.541   0.011  0.00  0.00     0.003 C 
ATOM      3  C3  <0> d           0.002  -0.004   0.002  0.00  0.00    -0.010 C 
ATOM      4  H1  <0> d          -0.051  -0.389  -1.016  0.00  0.00     0.046 H 
ATOM      5  C4  <0> d           1.380  -0.304   0.637  0.00  0.00     0.016 C 
ATOM      6  C5  <0> d           2.197   0.936   0.353  0.00  0.00     0.219 C 
ATOM      7  O1  <0> d           3.406   1.005   0.432  0.00  0.00    -0.273 OA
ATOM      8  H5  <0> d          -0.528   1.916  -0.877  0.00  0.00     0.065 H 
ATOM      9  H6  <0> d          -0.511   1.906   0.912  0.00  0.00     0.065 H 
ATOM     10  H7  <0> d           1.279  -0.457   1.712  0.00  0.00     0.048 H 
ATOM     11  H8  <0> d           1.834  -1.177   0.168  0.00  0.00     0.048 H 
ENDROOT
BRANCH   3  12
ATOM     12  C6  <0> d          -1.131  -0.572   0.859  0.00  0.00     0.022 C 
ATOM     13  H9  <0> d          -0.969  -0.300   1.902  0.00  0.00     0.074 H 
ATOM     14  H10 <0> d          -2.083  -0.162   0.520  0.00  0.00     0.074 H 
BRANCH  12  15
ATOM     15  O2  <0> d          -1.154  -1.995   0.736  0.00  0.00    -0.400 OA
ATOM     16  H11 <0> d          -1.849  -2.424   1.254  0.00  0.00     0.209 HD
ENDBRANCH  12  15
ENDBRANCH   3  12
BRANCH   1  17
ATOM     17  C1  <0> d           1.857   3.295  -0.352  0.00  0.00    -0.016 C 
ATOM     18  H2  <0> d           1.897   3.912   0.545  0.00  0.00     0.056 H 
ATOM     19  H3  <0> d           2.851   3.230  -0.794  0.00  0.00     0.056 H 
ATOM     20  H4  <0> d           1.169   3.742  -1.070  0.00  0.00     0.056 H 
ENDBRANCH   1  17
TORSDOF 3
