REMARK  4 active torsions:
REMARK  status: ('A' for Active; 'I' for Inactive)
REMARK    1  A    between atoms: C1_1  and  C2_2 
REMARK    2  A    between atoms: C2_2  and  C3_3 
REMARK    3  A    between atoms: C2_2  and  S1_4 
REMARK    4  A    between atoms: S1_4  and  O2_6 
ROOT
ATOM      1  C2  <0> d           1.685   2.045  -0.003  0.00  0.00     0.037 C 
ATOM      2  H4  <0> d           1.855   3.119   0.158  0.00  0.00     0.062 H 
ENDROOT
BRANCH   1   3
ATOM      3  C1  <0> d           2.490   1.357   1.101  0.00  0.00    -0.060 C 
ATOM      4  H1  <0> d           2.029   1.568   2.077  0.00  0.00     0.029 H 
ATOM      5  H2  <0> d           3.522   1.738   1.093  0.00  0.00     0.029 H 
ATOM      6  H3  <0> d           2.499   0.271   0.926  0.00  0.00     0.029 H 
ENDBRANCH   1   3
BRANCH   1   7
ATOM      7  C3  <0> d           2.326   1.751  -1.361  0.00  0.00    -0.060 C 
ATOM      8  H5  <0> d           1.747   2.246  -2.155  0.00  0.00     0.029 H 
ATOM      9  H6  <0> d           2.335   0.665  -1.535  0.00  0.00     0.029 H 
ATOM     10  H7  <0> d           3.358   2.132  -1.369  0.00  0.00     0.029 H 
ENDBRANCH   1   7
BRANCH   1  11
ATOM     11  S1  <0> d          -0.017   1.417   0.010  0.00  0.00     0.154 S 
ATOM     12  O1  <0> d           0.002  -0.004   0.002  0.00  0.00    -0.228 OA
BRANCH  11  13
ATOM     13  O2  <0> d          -0.530   1.770   1.399  0.00  0.00    -0.306 OA
ATOM     14  H8  <0> d          -1.556   1.503   1.691  0.00  0.00     0.230 HD
ENDBRANCH  11  13
ENDBRANCH   1  11
TORSDOF 4
