REMARK  2 active torsions:
REMARK  status: ('A' for Active; 'I' for Inactive)
REMARK    1  A    between atoms: C1_1  and  C2_2 
REMARK    2  A    between atoms: C3_3  and  C4_4 
ROOT
ATOM      1  C4  <0> d           2.403   0.034  -0.021  0.00  0.00     0.017 A 
ATOM      2  C5  <0> d           1.204  -0.681  -0.013  0.00  0.00    -0.065 A 
ATOM      3  C6  <0> d           0.002  -0.004   0.002  0.00  0.00    -0.082 A 
ATOM      4  C7  <0> d          -0.017   1.379   0.010  0.00  0.00    -0.083 A 
ATOM      5  C8  <0> d           1.168   2.093   0.002  0.00  0.00    -0.082 A 
ATOM      6  C9  <0> d           2.377   1.429  -0.013  0.00  0.00    -0.065 A 
ATOM      7  H4  <0> d           1.218  -1.760  -0.019  0.00  0.00     0.085 H 
ATOM      8  H5  <0> d          -0.926  -0.556   0.007  0.00  0.00     0.083 H 
ATOM      9  H6  <0> d          -0.961   1.904   0.017  0.00  0.00     0.083 H 
ATOM     10  H7  <0> d           1.147   3.173   0.008  0.00  0.00     0.083 H 
ATOM     11  H8  <0> d           3.302   1.987  -0.019  0.00  0.00     0.085 H 
ENDROOT
BRANCH   1  12
ATOM     12  C3  <0> d           3.655  -0.662  -0.037  0.00  0.00    -0.067 C 
ATOM     13  C2  <0> d           4.681  -1.233  -0.050  0.00  0.00    -0.105 C 
BRANCH  13  14
ATOM     14  C1  <0> d           5.967  -1.948  -0.067  0.00  0.00    -0.021 C 
ATOM     15  H1  <0> d           6.784  -1.227  -0.070  0.00  0.00     0.044 H 
ATOM     16  H2  <0> d           6.043  -2.579   0.819  0.00  0.00     0.044 H 
ATOM     17  H3  <0> d           6.026  -2.569  -0.961  0.00  0.00     0.044 H 
ENDBRANCH  13  14
ENDBRANCH   1  12
TORSDOF 2
