REMARK  5 active torsions:
REMARK  status: ('A' for Active; 'I' for Inactive)
REMARK    1  A    between atoms: C1_1  and  C2_2 
REMARK    2  A    between atoms: C2_2  and  C3_3 
REMARK    3  A    between atoms: C3_3  and  C4_4 
REMARK    4  A    between atoms: C3_3  and  C5_5 
REMARK    5  A    between atoms: C3_3  and  O1_8 
ROOT
ATOM      1  C3  <0> d           1.286   1.562  -0.002  0.00  0.00     0.057 C 
ENDROOT
BRANCH   1   2
ATOM      2  C2  <0> d           2.040   1.127  -1.261  0.00  0.00    -0.040 C 
ATOM      3  H4  <0> d           3.059   1.512  -1.225  0.00  0.00     0.036 H 
ATOM      4  H5  <0> d           2.063   0.039  -1.313  0.00  0.00     0.036 H 
BRANCH   2   5
ATOM      5  C1  <0> d           1.329   1.682  -2.497  0.00  0.00    -0.074 C 
ATOM      6  H1  <0> d           0.310   1.298  -2.533  0.00  0.00     0.027 H 
ATOM      7  H2  <0> d           1.306   2.770  -2.445  0.00  0.00     0.027 H 
ATOM      8  H3  <0> d           1.866   1.372  -3.394  0.00  0.00     0.027 H 
ENDBRANCH   2   5
ENDBRANCH   1   2
BRANCH   1   9
ATOM      9  C4  <0> d           1.145   3.085   0.008  0.00  0.00    -0.048 C 
ATOM     10  H6  <0> d           0.608   3.395   0.904  0.00  0.00     0.031 H 
ATOM     11  H7  <0> d           2.135   3.542   0.001  0.00  0.00     0.031 H 
ATOM     12  H8  <0> d           0.591   3.404  -0.875  0.00  0.00     0.031 H 
ENDBRANCH   1   9
BRANCH   1  13
ATOM     13  C5  <0> d           2.064   1.114   1.238  0.00  0.00    -0.025 A 
ATOM     14  C7  <0> d           1.469   1.454   2.606  0.00  0.00    -0.059 A 
ATOM     15  C6  <0> d           1.446   0.010   2.099  0.00  0.00    -0.059 A 
ATOM     16  H12 <0> d           2.163   1.694   3.411  0.00  0.00     0.033 H 
ATOM     17  H13 <0> d           0.524   1.998   2.623  0.00  0.00     0.033 H 
ATOM     18  H10 <0> d           0.485  -0.397   1.782  0.00  0.00     0.033 H 
ATOM     19  H11 <0> d           2.125  -0.700   2.570  0.00  0.00     0.033 H 
ATOM     20  H9  <0> d           3.149   1.130   1.143  0.00  0.00     0.044 H 
ENDBRANCH   1  13
BRANCH   1  21
ATOM     21  O1  <0> d          -0.011   0.963   0.007  0.00  0.00    -0.390 OA
ATOM     22  H14 <0> d           0.002  -0.004   0.002  0.00  0.00     0.210 HD
ENDBRANCH   1  21
TORSDOF 5
