REMARK  1 active torsions:
REMARK  status: ('A' for Active; 'I' for Inactive)
REMARK    1  A    between atoms: C4_6  and  N4_9 
ROOT
ATOM      1  C1  <0> d          -3.334   4.548   0.044  0.00  0.00     0.121 C 
ATOM      2  N1  <0> d          -3.827   5.572   0.052  0.00  0.00    -0.190 NA
ATOM      3  C2  <0> d          -2.713   3.258   0.034  0.00  0.00     0.169 A 
ATOM      4  C3  <0> d          -3.352   2.023   0.030  0.00  0.00     0.193 A 
ATOM      5  N2  <0> d          -2.399   1.074   0.020  0.00  0.00    -0.051 NA
ATOM      6  C4  <0> d          -1.214   1.639   0.017  0.00  0.00     0.700 A 
ATOM      7  N3  <0> d          -1.358   2.990   0.030  0.00  0.00    -0.177 N 
ATOM      8  H1  <0> d          -0.620   3.665   0.036  0.00  0.00     0.185 HD
ATOM      9  C5  <0> d          -4.767   1.802   0.035  0.00  0.00     0.123 C 
ATOM     10  N5  <0> d          -5.889   1.627   0.040  0.00  0.00    -0.190 NA
ENDROOT
BRANCH   6  11
ATOM     11  N4  <0> d          -0.011   0.966   0.007  0.00  0.00    -0.233 N 
ATOM     12  H2  <0> d           0.002  -0.004   0.002  0.00  0.00     0.174 HD
ATOM     13  H3  <0> d           0.822   1.462   0.002  0.00  0.00     0.174 HD
ENDBRANCH   6  11
TORSDOF 1
