REMARK  6 active torsions:
REMARK  status: ('A' for Active; 'I' for Inactive)
REMARK    1  A    between atoms: C1_1  and  C2_2 
REMARK    2  A    between atoms: C5_5  and  C9_11 
REMARK    3  A    between atoms: N1_6  and  C6_7 
REMARK    4  A    between atoms: C6_7  and  C7_8 
REMARK    5  A    between atoms: C7_8  and  O1_9 
REMARK    6  A    between atoms: O1_9  and  C8_10 
ROOT
ATOM      1  C2  <0> d          -0.439   2.725   1.869  0.00  0.00     0.008 A 
ATOM      2  C3  <0> d          -1.274   2.810   2.925  0.00  0.00    -0.060 A 
ATOM      3  C4  <0> d          -2.071   1.649   2.926  0.00  0.00    -0.060 A 
ATOM      4  C5  <0> d          -1.698   0.901   1.868  0.00  0.00     0.008 A 
ATOM      5  N1  <0> d          -0.698   1.558   1.213  0.00  0.00    -0.353 N 
ATOM      6  H4  <0> d          -1.319   3.618   3.640  0.00  0.00     0.086 H 
ATOM      7  H5  <0> d          -2.841   1.403   3.643  0.00  0.00     0.086 H 
ENDROOT
BRANCH   5   8
ATOM      8  C6  <0> d          -0.013   1.086   0.008  0.00  0.00     0.019 C 
ATOM      9  H6  <0> d           0.002  -0.004   0.002  0.00  0.00     0.068 H 
ATOM     10  H7  <0> d           1.010   1.463   0.000  0.00  0.00     0.068 H 
BRANCH   8  11
ATOM     11  C7  <0> d          -0.753   1.593  -1.232  0.00  0.00     0.034 C 
ATOM     12  H8  <0> d          -1.775   1.215  -1.224  0.00  0.00     0.076 H 
ATOM     13  H9  <0> d          -0.767   2.683  -1.226  0.00  0.00     0.076 H 
BRANCH  11  14
ATOM     14  O1  <0> d          -0.084   1.132  -2.407  0.00  0.00    -0.394 OA
BRANCH  14  15
ATOM     15  C8  <0> d          -0.698   1.552  -3.627  0.00  0.00     0.004 C 
ATOM     16  H10 <0> d          -0.711   2.641  -3.671  0.00  0.00     0.066 H 
ATOM     17  H11 <0> d          -0.131   1.161  -4.473  0.00  0.00     0.066 H 
ATOM     18  H12 <0> d          -1.719   1.174  -3.669  0.00  0.00     0.066 H 
ENDBRANCH  14  15
ENDBRANCH  11  14
ENDBRANCH   8  11
ENDBRANCH   5   8
BRANCH   1  19
ATOM     19  C1  <0> d           0.600   3.745   1.480  0.00  0.00    -0.037 C 
ATOM     20  H1  <0> d           0.157   4.474   0.801  0.00  0.00     0.035 H 
ATOM     21  H2  <0> d           0.962   4.254   2.373  0.00  0.00     0.035 H 
ATOM     22  H3  <0> d           1.432   3.246   0.983  0.00  0.00     0.035 H 
ENDBRANCH   1  19
BRANCH   4  23
ATOM     23  C9  <0> d          -2.284  -0.431   1.476  0.00  0.00    -0.037 C 
ATOM     24  H13 <0> d          -1.728  -1.230   1.965  0.00  0.00     0.035 H 
ATOM     25  H14 <0> d          -3.329  -0.473   1.785  0.00  0.00     0.035 H 
ATOM     26  H15 <0> d          -2.219  -0.552   0.395  0.00  0.00     0.035 H 
ENDBRANCH   4  23
TORSDOF 6
