REMARK  5 active torsions:
REMARK  status: ('A' for Active; 'I' for Inactive)
REMARK    1  A    between atoms: C1_1  and  C2_2 
REMARK    2  A    between atoms: C2_2  and  N1_3 
REMARK    3  A    between atoms: N1_3  and  C3_4 
REMARK    4  A    between atoms: C4_6  and  N6_11 
REMARK    5  A    between atoms: C5_8  and  N5_10 
ROOT
ATOM      1  C3  <0> d           0.857  -1.846   1.399  0.00  0.00     0.753 A 
ATOM      2  N2  <0> d           0.351  -2.712   0.526  0.00  0.00     0.131 NA
ATOM      3  C4  <0> d           0.496  -4.018   0.726  0.00  0.00     0.751 A 
ATOM      4  N3  <0> d           1.139  -4.458   1.803  0.00  0.00     0.130 NA
ATOM      5  C5  <0> d           1.641  -3.592   2.678  0.00  0.00     0.751 A 
ATOM      6  N4  <0> d           1.500  -2.286   2.476  0.00  0.00     0.131 NA
ENDROOT
BRANCH   1   7
ATOM      7  N1  <0> d           0.711  -0.489   1.189  0.00  0.00    -0.222 N 
ATOM      8  H6  <0> d           1.077   0.142   1.827  0.00  0.00     0.177 HD
BRANCH   7   9
ATOM      9  C2  <0> d           0.002  -0.004   0.002  0.00  0.00     0.006 C 
ATOM     10  H4  <0> d          -1.020  -0.381   0.010  0.00  0.00     0.064 H 
ATOM     11  H5  <0> d           0.512  -0.356  -0.895  0.00  0.00     0.064 H 
BRANCH   9  12
ATOM     12  C1  <0> d          -0.019   1.526   0.010  0.00  0.00    -0.061 C 
ATOM     13  H1  <0> d           1.004   1.903   0.003  0.00  0.00     0.029 H 
ATOM     14  H2  <0> d          -0.546   1.887  -0.873  0.00  0.00     0.029 H 
ATOM     15  H3  <0> d          -0.529   1.877   0.907  0.00  0.00     0.029 H 
ENDBRANCH   9  12
ENDBRANCH   7   9
ENDBRANCH   1   7
BRANCH   5  16
ATOM     16  N5  <0> d           2.309  -4.049   3.796  0.00  0.00    -0.230 N 
ATOM     17  H7  <0> d           2.675  -3.418   4.434  0.00  0.00     0.174 HD
ATOM     18  H8  <0> d           2.412  -5.003   3.943  0.00  0.00     0.174 HD
ENDBRANCH   5  16
BRANCH   3  19
ATOM     19  N6  <0> d          -0.025  -4.917  -0.182  0.00  0.00    -0.230 N 
ATOM     20  H9  <0> d           0.078  -5.870  -0.035  0.00  0.00     0.174 HD
ATOM     21  H10 <0> d          -0.494  -4.596  -0.968  0.00  0.00     0.174 HD
ENDBRANCH   3  19
TORSDOF 5
