REMARK  3 active torsions:
REMARK  status: ('A' for Active; 'I' for Inactive)
REMARK    1  A    between atoms: C1_1  and  C2_2 
REMARK    2  A    between atoms: C2_2  and  C6_8 
REMARK    3  A    between atoms: C4_4  and  C5_6 
ROOT
ATOM      1  C2  <0> d          -0.631   1.371   1.381  0.00  0.00    -0.026 A 
ATOM      2  C3  <0> d          -0.595   2.882   1.147  0.00  0.00    -0.044 A 
ATOM      3  C4  <0> d          -0.073   2.298   2.462  0.00  0.00     0.038 A 
ATOM      4  H1  <0> d           1.006   2.296   2.619  0.00  0.00     0.057 H 
ATOM      5  H5  <0> d           0.141   3.264   0.440  0.00  0.00     0.035 H 
ATOM      6  H6  <0> d          -1.542   3.419   1.176  0.00  0.00     0.035 H 
ENDROOT
BRANCH   1   7
ATOM      7  C1  <0> d           0.367   0.511   0.604  0.00  0.00    -0.068 C 
ATOM      8  H2  <0> d           0.561  -0.409   1.155  0.00  0.00     0.028 H 
ATOM      9  H3  <0> d           1.299   1.061   0.476  0.00  0.00     0.028 H 
ATOM     10  H4  <0> d          -0.048   0.267  -0.375  0.00  0.00     0.028 H 
ENDBRANCH   1   7
BRANCH   1  11
ATOM     11  C6  <0> d          -1.996   0.728   1.638  0.00  0.00    -0.046 A 
ATOM     12  C8  <0> d          -2.877   0.431   0.423  0.00  0.00    -0.061 A 
ATOM     13  C7  <0> d          -2.196  -0.716   1.174  0.00  0.00    -0.061 A 
ATOM     14  H10 <0> d          -3.954   0.541   0.543  0.00  0.00     0.033 H 
ATOM     15  H11 <0> d          -2.484   0.693  -0.560  0.00  0.00     0.033 H 
ATOM     16  H8  <0> d          -1.355  -1.209   0.686  0.00  0.00     0.033 H 
ATOM     17  H9  <0> d          -2.826  -1.360   1.788  0.00  0.00     0.033 H 
ATOM     18  H7  <0> d          -2.495   1.034   2.558  0.00  0.00     0.041 H 
ENDBRANCH   1  11
BRANCH   3  19
ATOM     19  C5  <0> d          -0.909   2.510   3.698  0.00  0.00     0.177 C 
ATOM     20  O1  <0> d          -1.635   3.473   3.778  0.00  0.00    -0.648 OA
ATOM     21  O2  <0> d          -0.848   1.629   4.709  0.00  0.00    -0.648 OA
ENDBRANCH   3  19
TORSDOF 3
