REMARK  9 active torsions:
REMARK  status: ('A' for Active; 'I' for Inactive)
REMARK    1  A    between atoms: C1_1  and  C2_2 
REMARK    2  A    between atoms: C1_1  and  O4_10 
REMARK    3  A    between atoms: C2_2  and  O1_3 
REMARK    4  A    between atoms: O1_3  and  C3_4 
REMARK    5  A    between atoms: C3_4  and  C4_5 
REMARK    6  A    between atoms: C4_5  and  O2_6 
REMARK    7  A    between atoms: O2_6  and  C5_7 
REMARK    8  A    between atoms: C5_7  and  C6_8 
REMARK    9  A    between atoms: C6_8  and  O3_9 
ROOT
ATOM      1  C3  <0> d           0.657  -1.903   1.309  0.00  0.00     0.039 C 
ATOM      2  H5  <0> d          -0.348  -2.320   1.254  0.00  0.00     0.077 H 
ATOM      3  H6  <0> d           1.257  -2.294   0.487  0.00  0.00     0.077 H 
ENDROOT
BRANCH   1   4
ATOM      4  O1  <0> d           0.590  -0.479   1.215  0.00  0.00    -0.387 OA
BRANCH   4   5
ATOM      5  C2  <0> d           0.002  -0.004   0.002  0.00  0.00     0.039 C 
ATOM      6  H3  <0> d          -1.018  -0.381  -0.080  0.00  0.00     0.077 H 
ATOM      7  H4  <0> d           0.588  -0.355  -0.847  0.00  0.00     0.077 H 
BRANCH   5   8
ATOM      8  C1  <0> d          -0.019   1.526   0.010  0.00  0.00     0.036 C 
ATOM      9  H1  <0> d          -0.546   1.887  -0.873  0.00  0.00     0.077 H 
ATOM     10  H2  <0> d          -0.529   1.877   0.907  0.00  0.00     0.077 H 
BRANCH   8  11
ATOM     11  O4  <0> d           1.322   2.020   0.000  0.00  0.00    -0.399 OA
ATOM     12  H14 <0> d           1.385   2.985   0.005  0.00  0.00     0.209 HD
ENDBRANCH   8  11
ENDBRANCH   5   8
ENDBRANCH   4   5
ENDBRANCH   1   4
BRANCH   1  13
ATOM     13  C4  <0> d           1.300  -2.297   2.640  0.00  0.00     0.039 C 
ATOM     14  H7  <0> d           1.433  -3.378   2.675  0.00  0.00     0.077 H 
ATOM     15  H8  <0> d           2.270  -1.808   2.734  0.00  0.00     0.077 H 
BRANCH  13  16
ATOM     16  O2  <0> d           0.455  -1.887   3.717  0.00  0.00    -0.387 OA
BRANCH  16  17
ATOM     17  C5  <0> d           0.966  -2.208   5.012  0.00  0.00     0.039 C 
ATOM     18  H9  <0> d           1.092  -3.288   5.096  0.00  0.00     0.077 H 
ATOM     19  H10 <0> d           1.929  -1.718   5.155  0.00  0.00     0.077 H 
BRANCH  17  20
ATOM     20  C6  <0> d          -0.016  -1.725   6.082  0.00  0.00     0.036 C 
ATOM     21  H11 <0> d           0.413  -1.890   7.070  0.00  0.00     0.077 H 
ATOM     22  H12 <0> d          -0.211  -0.662   5.943  0.00  0.00     0.077 H 
BRANCH  20  23
ATOM     23  O3  <0> d          -1.241  -2.453   5.968  0.00  0.00    -0.399 OA
ATOM     24  H13 <0> d          -1.911  -2.198   6.616  0.00  0.00     0.209 HD
ENDBRANCH  20  23
ENDBRANCH  17  20
ENDBRANCH  16  17
ENDBRANCH  13  16
ENDBRANCH   1  13
TORSDOF 9
