REMARK  3 active torsions:
REMARK  status: ('A' for Active; 'I' for Inactive)
REMARK    1  A    between atoms: C2_2  and  C3_3 
REMARK    2  A    between atoms: C6_7  and  O2_13 
REMARK    3  A    between atoms: C7_9  and  O1_12 
ROOT
ATOM      1  C3  <0> d           1.417   2.055  -0.000  0.00  0.00    -0.036 C 
ATOM      2  H1  <0> d           1.927   1.704  -0.897  0.00  0.00     0.046 H 
ATOM      3  C4  <0> d          -0.019   1.526   0.010  0.00  0.00    -0.056 C 
ATOM      4  C5  <0> d           0.002  -0.004   0.002  0.00  0.00    -0.038 C 
ATOM      5  C6  <0> d           0.742  -0.511   1.242  0.00  0.00     0.060 C 
ATOM      6  H2  <0> d           0.232  -0.159   2.138  0.00  0.00     0.086 H 
ATOM      7  C7  <0> d           2.178   0.019   1.231  0.00  0.00     0.061 C 
ATOM      8  H3  <0> d           2.705  -0.342   2.114  0.00  0.00     0.086 H 
ATOM      9  C8  <0> d           2.157   1.548   1.239  0.00  0.00    -0.032 C 
ATOM     10  H7  <0> d          -0.546   1.887  -0.873  0.00  0.00     0.034 H 
ATOM     11  H8  <0> d          -0.529   1.877   0.907  0.00  0.00     0.034 H 
ATOM     12  H9  <0> d          -1.020  -0.381   0.010  0.00  0.00     0.036 H 
ATOM     13  H10 <0> d           0.512  -0.356  -0.895  0.00  0.00     0.036 H 
ATOM     14  H11 <0> d           1.647   1.900   2.136  0.00  0.00     0.037 H 
ATOM     15  H12 <0> d           3.179   1.926   1.231  0.00  0.00     0.037 H 
ENDROOT
BRANCH   1  16
ATOM     16  C2  <0> d           1.396   3.562   0.008  0.00  0.00    -0.108 C 
ATOM     17  C1  <0> d           1.945   4.230  -0.976  0.00  0.00    -0.124 C 
ATOM     18  H4  <0> d           2.412   3.701  -1.794  0.00  0.00     0.066 H 
ATOM     19  H5  <0> d           1.931   5.310  -0.970  0.00  0.00     0.066 H 
ATOM     20  H6  <0> d           0.929   4.091   0.825  0.00  0.00     0.076 H 
ENDBRANCH   1  16
BRANCH   7  21
ATOM     21  O1  <0> d           2.846  -0.442   0.055  0.00  0.00    -0.393 OA
ATOM     22  H13 <0> d           2.897  -1.405  -0.017  0.00  0.00     0.210 HD
ENDBRANCH   7  21
BRANCH   5  23
ATOM     23  O2  <0> d           0.761  -1.940   1.234  0.00  0.00    -0.393 OA
ATOM     24  H14 <0> d          -0.117  -2.345   1.240  0.00  0.00     0.210 HD
ENDBRANCH   5  23
TORSDOF 3
