REMARK  7 active torsions:
REMARK  status: ('A' for Active; 'I' for Inactive)
REMARK    1  A    between atoms: C1_1  and  C2_2 
REMARK    2  A    between atoms: C2_2  and  C3_4 
REMARK    3  A    between atoms: C2_2  and  O1_6 
REMARK    4  A    between atoms: O1_6  and  C5_7 
REMARK    5  A    between atoms: C5_7  and  C6_8 
REMARK    6  A    between atoms: C5_7  and  C7_9 
REMARK    7  A    between atoms: C5_7  and  C8_10 
ROOT
ATOM      1  C3  <0> d          -0.131   0.121   0.535  0.00  0.00    -0.086 C 
ATOM      2  C4  <0> d          -0.276  -0.984   0.905  0.00  0.00    -0.151 C 
ATOM      3  H5  <0> d          -0.405  -1.971   1.237  0.00  0.00     0.166 H 
ENDROOT
BRANCH   1   4
ATOM      4  C2  <0> d           0.050   1.506   0.070  0.00  0.00     0.093 C 
ATOM      5  H1  <0> d          -0.386   2.193   0.796  0.00  0.00     0.103 H 
BRANCH   4   6
ATOM      6  C1  <0> d          -0.644   1.685  -1.282  0.00  0.00    -0.042 C 
ATOM      7  H2  <0> d          -0.136   1.081  -2.033  0.00  0.00     0.032 H 
ATOM      8  H3  <0> d          -1.683   1.367  -1.202  0.00  0.00     0.032 H 
ATOM      9  H4  <0> d          -0.607   2.735  -1.573  0.00  0.00     0.032 H 
ENDBRANCH   4   6
BRANCH   4  10
ATOM     10  O1  <0> d           1.444   1.783  -0.070  0.00  0.00    -0.364 OA
BRANCH  10  11
ATOM     11  C5  <0> d           1.829   3.080   0.392  0.00  0.00     0.051 C 
BRANCH  11  12
ATOM     12  C6  <0> d           1.513   3.205   1.883  0.00  0.00    -0.048 C 
ATOM     13  H6  <0> d           2.064   2.445   2.437  0.00  0.00     0.031 H 
ATOM     14  H7  <0> d           1.806   4.195   2.235  0.00  0.00     0.031 H 
ATOM     15  H8  <0> d           0.443   3.066   2.041  0.00  0.00     0.031 H 
ENDBRANCH  11  12
BRANCH  11  16
ATOM     16  C7  <0> d           3.330   3.276   0.170  0.00  0.00    -0.048 C 
ATOM     17  H9  <0> d           3.555   3.187  -0.893  0.00  0.00     0.031 H 
ATOM     18  H10 <0> d           3.623   4.266   0.521  0.00  0.00     0.031 H 
ATOM     19  H11 <0> d           3.881   2.516   0.723  0.00  0.00     0.031 H 
ENDBRANCH  11  16
BRANCH  11  20
ATOM     20  C8  <0> d           1.055   4.147  -0.385  0.00  0.00    -0.048 C 
ATOM     21  H12 <0> d          -0.015   3.957  -0.297  0.00  0.00     0.031 H 
ATOM     22  H13 <0> d           1.284   5.132   0.023  0.00  0.00     0.031 H 
ATOM     23  H14 <0> d           1.344   4.114  -1.436  0.00  0.00     0.031 H 
ENDBRANCH  11  20
ENDBRANCH  10  11
ENDBRANCH   4  10
ENDBRANCH   1   4
TORSDOF 7
