REMARK  8 active torsions:
REMARK  status: ('A' for Active; 'I' for Inactive)
REMARK    1  A    between atoms: C1_1  and  C2_2 
REMARK    2  A    between atoms: C1_1  and  N1_4 
REMARK    3  A    between atoms: C2_2  and  O1_3 
REMARK    4  A    between atoms: N1_4  and  C3_5 
REMARK    5  A    between atoms: N1_4  and  C5_8 
REMARK    6  A    between atoms: C3_5  and  C4_6 
REMARK    7  A    between atoms: C4_6  and  O2_7 
REMARK    8  A    between atoms: C5_8  and  O3_9 
ROOT
ATOM      1  N1  <0> d           0.529   3.512   1.271  0.00  0.00     0.115 N 
ENDROOT
BRANCH   1   2
ATOM      2  C1  <0> d           1.145   3.085   0.008  0.00  0.00     0.135 C 
ATOM      3  H1  <0> d           2.130   3.542  -0.089  0.00  0.00     0.083 H 
ATOM      4  H2  <0> d           0.516   3.397  -0.827  0.00  0.00     0.083 H 
BRANCH   2   5
ATOM      5  C2  <0> d           1.286   1.562  -0.002  0.00  0.00     0.042 C 
ATOM      6  H3  <0> d           1.840   1.243   0.881  0.00  0.00     0.076 H 
ATOM      7  H4  <0> d           1.823   1.252  -0.899  0.00  0.00     0.076 H 
BRANCH   5   8
ATOM      8  O1  <0> d          -0.011   0.963   0.007  0.00  0.00    -0.399 OA
ATOM      9  H5  <0> d           0.002  -0.004   0.002  0.00  0.00     0.209 HD
ENDBRANCH   5   8
ENDBRANCH   2   5
ENDBRANCH   1   2
BRANCH   1  10
ATOM     10  C3  <0> d           0.160   4.933   1.224  0.00  0.00     0.135 C 
ATOM     11  H6  <0> d           1.063   5.543   1.228  0.00  0.00     0.083 H 
ATOM     12  H7  <0> d          -0.408   5.131   0.314  0.00  0.00     0.083 H 
BRANCH  10  13
ATOM     13  C4  <0> d          -0.695   5.279   2.444  0.00  0.00     0.042 C 
ATOM     14  H8  <0> d          -1.043   6.309   2.364  0.00  0.00     0.076 H 
ATOM     15  H9  <0> d          -1.553   4.609   2.489  0.00  0.00     0.076 H 
BRANCH  13  16
ATOM     16  O2  <0> d           0.087   5.131   3.631  0.00  0.00    -0.399 OA
ATOM     17  H10 <0> d          -0.393   5.335   4.446  0.00  0.00     0.209 HD
ENDBRANCH  13  16
ENDBRANCH  10  13
ENDBRANCH   1  10
BRANCH   1  18
ATOM     18  C5  <0> d           1.416   3.236   2.409  0.00  0.00     0.193 C 
ATOM     19  H11 <0> d           1.965   2.312   2.226  0.00  0.00     0.122 H 
ATOM     20  H12 <0> d           2.120   4.059   2.529  0.00  0.00     0.122 H 
BRANCH  18  21
ATOM     21  O3  <0> d           0.636   3.100   3.599  0.00  0.00    -0.373 OA
ATOM     22  H13 <0> d           1.158   2.916   4.392  0.00  0.00     0.211 HD
ENDBRANCH  18  21
ENDBRANCH   1  18
TORSDOF 8
