REMARK  0 active torsions:
REMARK  status: ('A' for Active; 'I' for Inactive)
ROOT
ATOM      1  C1  <0> d          -3.414   2.471   0.048  0.00  0.00    -0.061 A 
ATOM      2  C2  <0> d          -2.502   1.458   0.034  0.00  0.00    -0.053 A 
ATOM      3  C3  <0> d          -1.137   1.744   0.016  0.00  0.00     0.061 A 
ATOM      4  C4  <0> d          -0.703   3.085   0.025  0.00  0.00     0.013 A 
ATOM      5  C5  <0> d          -1.641   4.119   0.040  0.00  0.00    -0.049 A 
ATOM      6  C6  <0> d          -2.996   3.810   0.051  0.00  0.00     0.045 A 
ATOM      7  C7  <0> d          -3.968   4.862   0.067  0.00  0.00     0.099 C 
ATOM      8  N1  <0> d          -4.739   5.696   0.079  0.00  0.00    -0.191 NA
ATOM      9  C8  <0> d           0.757   3.043   0.011  0.00  0.00     0.034 A 
ATOM     10  N2  <0> d           1.117   1.792   0.001  0.00  0.00    -0.186 NA
ATOM     11  N3  <0> d          -0.011   0.966   0.007  0.00  0.00    -0.278 N 
ATOM     12  H1  <0> d           0.003  -0.034   0.006  0.00  0.00     0.189 HD
ATOM     13  H2  <0> d          -4.469   2.240   0.057  0.00  0.00     0.086 H 
ATOM     14  H3  <0> d          -2.838   0.432   0.032  0.00  0.00     0.087 H 
ATOM     15  H4  <0> d          -1.316   5.149   0.043  0.00  0.00     0.087 H 
ATOM     16  H5  <0> d           1.419   3.896   0.009  0.00  0.00     0.118 H 
ENDROOT
TORSDOF 0
