REMARK  2 active torsions:
REMARK  status: ('A' for Active; 'I' for Inactive)
REMARK    1  A    between atoms: C2_3  and  C3_7 
REMARK    2  A    between atoms: C4_8  and  N6_12 
ROOT
ATOM      1  C3  <0> d           1.589   4.298   0.009  0.00  0.00     0.181 A 
ATOM      2  C4  <0> d           3.057   4.257  -0.010  0.00  0.00     0.186 A 
ATOM      3  N4  <0> d           3.502   5.483  -0.006  0.00  0.00    -0.085 NA
ATOM      4  O1  <0> d           2.384   6.353   0.015  0.00  0.00    -0.104 OA
ATOM      5  N5  <0> d           1.216   5.552   0.019  0.00  0.00    -0.097 NA
ENDROOT
BRANCH   1   6
ATOM      6  C2  <0> d           0.689   3.124   0.011  0.00  0.00     0.180 A 
ATOM      7  N1  <0> d           1.060   1.860   0.002  0.00  0.00    -0.219 NA
ATOM      8  C1  <0> d          -0.013   1.076   0.008  0.00  0.00     0.108 A 
ATOM      9  H2  <0> d           0.002  -0.004   0.002  0.00  0.00     0.149 H 
ATOM     10  N3  <0> d          -1.089   1.819   0.017  0.00  0.00    -0.166 NA
ATOM     11  N2  <0> d          -0.664   3.157   0.024  0.00  0.00    -0.258 N 
ATOM     12  H1  <0> d          -1.226   3.947   0.033  0.00  0.00     0.191 HD
ENDBRANCH   1   6
BRANCH   2  13
ATOM     13  N6  <0> d           3.838   3.108  -0.029  0.00  0.00    -0.380 N 
ATOM     14  H3  <0> d           3.416   2.235  -0.031  0.00  0.00     0.158 HD
ATOM     15  H4  <0> d           4.805   3.180  -0.042  0.00  0.00     0.158 HD
ENDBRANCH   2  13
TORSDOF 2
