REMARK  0 active torsions:
REMARK  status: ('A' for Active; 'I' for Inactive)
ROOT
ATOM      1  C1  <0> d          -0.013   1.086   0.008  0.00  0.00    -0.061 C 
ATOM      2  C2  <0> d          -0.753   1.593  -1.232  0.00  0.00    -0.060 C 
ATOM      3  C3  <0> d          -1.962   2.424  -0.799  0.00  0.00    -0.038 C 
ATOM      4  C4  <0> d          -2.904   1.556   0.038  0.00  0.00    -0.060 C 
ATOM      5  C5  <0> d          -2.164   1.050   1.278  0.00  0.00    -0.061 C 
ATOM      6  C6  <0> d          -0.729   1.579   1.267  0.00  0.00    -0.053 C 
ATOM      7  C7  <0> d          -0.750   3.109   1.275  0.00  0.00    -0.046 C 
ATOM      8  C8  <0> d          -1.490   3.616   0.036  0.00  0.00     0.034 C 
ATOM      9  H1  <0> d          -0.818   4.234  -0.561  0.00  0.00     0.063 H 
ATOM     10  C9  <0> d          -2.653   4.416   0.452  0.00  0.00     0.064 C 
ATOM     11  N1  <0> d          -3.551   5.033   0.773  0.00  0.00    -0.197 NA
ATOM     12  H2  <0> d           0.002  -0.004   0.002  0.00  0.00     0.033 H 
ATOM     13  H3  <0> d           1.010   1.463   0.000  0.00  0.00     0.033 H 
ATOM     14  H4  <0> d          -0.082   2.211  -1.828  0.00  0.00     0.033 H 
ATOM     15  H5  <0> d          -1.089   0.744  -1.826  0.00  0.00     0.033 H 
ATOM     16  H6  <0> d          -2.489   2.785  -1.682  0.00  0.00     0.042 H 
ATOM     17  H7  <0> d          -3.766   2.149   0.346  0.00  0.00     0.033 H 
ATOM     18  H8  <0> d          -3.241   0.707  -0.557  0.00  0.00     0.033 H 
ATOM     19  H9  <0> d          -2.674   1.401   2.175  0.00  0.00     0.033 H 
ATOM     20  H10 <0> d          -2.149  -0.040   1.272  0.00  0.00     0.033 H 
ATOM     21  H11 <0> d          -0.202   1.218   2.150  0.00  0.00     0.040 H 
ATOM     22  H12 <0> d          -1.260   3.461   2.172  0.00  0.00     0.035 H 
ATOM     23  H13 <0> d           0.273   3.486   1.268  0.00  0.00     0.035 H 
ENDROOT
TORSDOF 0
