REMARK  2 active torsions:
REMARK  status: ('A' for Active; 'I' for Inactive)
REMARK    1  A    between atoms: N2_4  and  C4_6 
REMARK    2  A    between atoms: C4_6  and  C5_7 
ROOT
ATOM      1  C5  <0> d           0.002  -0.004   0.002  0.00  0.00     0.031 C 
ATOM      2  C6  <0> d           0.691  -0.479  -1.209  0.00  0.00     0.060 C 
ATOM      3  N3  <0> d           1.223  -0.845  -2.144  0.00  0.00    -0.197 NA
ATOM      4  H6  <0> d           0.529  -0.365   0.885  0.00  0.00     0.057 H 
ATOM      5  H7  <0> d          -1.020  -0.381   0.010  0.00  0.00     0.057 H 
ENDROOT
BRANCH   1   6
ATOM      6  C4  <0> d          -0.019   1.526   0.010  0.00  0.00     0.027 C 
ATOM      7  H4  <0> d           1.004   1.903   0.003  0.00  0.00     0.068 H 
ATOM      8  H5  <0> d          -0.546   1.887  -0.873  0.00  0.00     0.068 H 
BRANCH   6   9
ATOM      9  N2  <0> d          -0.704   1.998   1.216  0.00  0.00    -0.280 N 
ATOM     10  N1  <0> d          -1.998   1.645   1.619  0.00  0.00    -0.185 NA
ATOM     11  C2  <0> d          -2.259   2.263   2.743  0.00  0.00     0.023 A 
ATOM     12  C1  <0> d          -1.144   3.036   3.085  0.00  0.00    -0.048 A 
ATOM     13  H2  <0> d          -3.178   2.193   3.306  0.00  0.00     0.117 H 
ATOM     14  C3  <0> d          -0.203   2.855   2.130  0.00  0.00    -0.000 A 
ATOM     15  H1  <0> d          -1.051   3.666   3.958  0.00  0.00     0.087 H 
ATOM     16  H3  <0> d           0.774   3.313   2.104  0.00  0.00     0.114 H 
ENDBRANCH   6   9
ENDBRANCH   1   6
TORSDOF 2
