REMARK  7 active torsions:
REMARK  status: ('A' for Active; 'I' for Inactive)
REMARK    1  A    between atoms: C1_1  and  C2_2 
REMARK    2  A    between atoms: C2_2  and  C3_3 
REMARK    3  A    between atoms: C2_2  and  C4_4 
REMARK    4  A    between atoms: C2_2  and  N1_6 
REMARK       I    between atoms: N1_6  and  C6_7 
REMARK    5  A    between atoms: C6_7  and  C7_9 
REMARK    6  A    between atoms: C7_9  and  O2_10 
REMARK    7  A    between atoms: O2_10  and  C8_11 
ROOT
ATOM      1  C4  <0> d           0.002  -0.004   0.002  0.00  0.00    -0.086 C 
ATOM      2  C5  <0> d           0.018  -1.178  -0.004  0.00  0.00    -0.151 C 
ATOM      3  H7  <0> d           0.032  -2.228  -0.010  0.00  0.00     0.166 H 
ENDROOT
BRANCH   1   4
ATOM      4  C2  <0> d          -0.018   1.468   0.010  0.00  0.00     0.088 C 
BRANCH   4   5
ATOM      5  C1  <0> d          -0.758   1.975  -1.229  0.00  0.00    -0.043 C 
ATOM      6  H1  <0> d          -1.780   1.597  -1.222  0.00  0.00     0.032 H 
ATOM      7  H2  <0> d          -0.773   3.064  -1.223  0.00  0.00     0.032 H 
ATOM      8  H3  <0> d          -0.248   1.623  -2.126  0.00  0.00     0.032 H 
ENDBRANCH   4   5
BRANCH   4   9
ATOM      9  C3  <0> d          -0.734   1.961   1.269  0.00  0.00    -0.043 C 
ATOM     10  H4  <0> d          -0.207   1.600   2.152  0.00  0.00     0.032 H 
ATOM     11  H5  <0> d          -0.749   3.051   1.275  0.00  0.00     0.032 H 
ATOM     12  H6  <0> d          -1.757   1.584   1.277  0.00  0.00     0.032 H 
ENDBRANCH   4   9
BRANCH   4  13
ATOM     13  N1  <0> d           1.357   1.975  -0.000  0.00  0.00    -0.340 N 
ATOM     14  C6  <0> d           1.585   3.303   0.005  0.00  0.00     0.242 C 
ATOM     15  O1  <0> d           0.652   4.079   0.018  0.00  0.00    -0.271 OA
ATOM     16  H8  <0> d           2.102   1.355  -0.011  0.00  0.00     0.164 HD
BRANCH  14  17
ATOM     17  C7  <0> d           2.999   3.825  -0.006  0.00  0.00     0.092 C 
ATOM     18  H9  <0> d           3.526   3.464   0.877  0.00  0.00     0.088 H 
ATOM     19  H10 <0> d           3.509   3.473  -0.903  0.00  0.00     0.088 H 
BRANCH  17  20
ATOM     20  O2  <0> d           2.979   5.254   0.002  0.00  0.00    -0.387 OA
BRANCH  20  21
ATOM     21  C8  <0> d           4.277   5.853  -0.007  0.00  0.00     0.005 C 
ATOM     22  H11 <0> d           4.176   6.938  -0.001  0.00  0.00     0.066 H 
ATOM     23  H12 <0> d           4.830   5.534   0.876  0.00  0.00     0.066 H 
ATOM     24  H13 <0> d           4.813   5.543  -0.904  0.00  0.00     0.066 H 
ENDBRANCH  20  21
ENDBRANCH  17  20
ENDBRANCH  14  17
ENDBRANCH   4  13
ENDBRANCH   1   4
TORSDOF 7
