REMARK  3 active torsions:
REMARK  status: ('A' for Active; 'I' for Inactive)
REMARK    1  A    between atoms: C1_1  and  O1_2 
REMARK    2  A    between atoms: O1_2  and  C2_3 
REMARK    3  A    between atoms: C4_6  and  C6_9 
ROOT
ATOM      1  C2  <0> d           0.604  -0.605  -1.052  0.00  0.00     0.181 A 
ATOM      2  C3  <0> d           0.653  -2.000  -1.126  0.00  0.00     0.054 A 
ATOM      3  N1  <0> d           1.237  -2.585  -2.148  0.00  0.00    -0.248 NA
ATOM      4  C4  <0> d           1.782  -1.847  -3.115  0.00  0.00     0.150 A 
ATOM      5  C5  <0> d           1.732  -0.455  -3.042  0.00  0.00     0.039 A 
ATOM      6  N2  <0> d           1.141   0.130  -2.016  0.00  0.00    -0.233 NA
ATOM      7  H4  <0> d           0.212  -2.598  -0.342  0.00  0.00     0.121 H 
ATOM      8  H5  <0> d           2.174   0.144  -3.825  0.00  0.00     0.118 H 
ENDROOT
BRANCH   1   9
ATOM      9  O1  <0> d           0.002  -0.004   0.002  0.00  0.00    -0.338 OA
BRANCH   9  10
ATOM     10  C1  <0> d          -0.017   1.425   0.010  0.00  0.00     0.012 C 
ATOM     11  H1  <0> d           1.005   1.802   0.002  0.00  0.00     0.067 H 
ATOM     12  H2  <0> d          -0.544   1.786  -0.873  0.00  0.00     0.067 H 
ATOM     13  H3  <0> d          -0.527   1.776   0.907  0.00  0.00     0.067 H 
ENDBRANCH   9  10
ENDBRANCH   1   9
BRANCH   4  14
ATOM     14  C6  <0> d           2.438  -2.503  -4.264  0.00  0.00     0.230 C 
ATOM     15  O2  <0> d           2.482  -3.723  -4.328  0.00  0.00    -0.643 OA
ATOM     16  O3  <0> d           2.938  -1.826  -5.151  0.00  0.00    -0.643 OA
ENDBRANCH   4  14
TORSDOF 3
