REMARK  3 active torsions:
REMARK  status: ('A' for Active; 'I' for Inactive)
REMARK    1  A    between atoms: C1_1  and  C2_2 
REMARK    2  A    between atoms: C2_2  and  C3_4 
REMARK    3  A    between atoms: C3_4  and  C9_11 
ROOT
ATOM      1  C3  <0> d          -0.000  -0.750  -1.307  0.00  0.00     0.017 C 
ATOM      2  C4  <0> d          -1.258  -0.386  -2.098  0.00  0.00    -0.046 C 
ATOM      3  C5  <0> d          -2.498  -0.691  -1.251  0.00  0.00    -0.009 C 
ATOM      4  C6  <0> d          -2.436  -2.136  -0.810  0.00  0.00     0.127 C 
ATOM      5  O2  <0> d          -3.374  -2.877  -0.983  0.00  0.00    -0.298 OA
ATOM      6  C7  <0> d          -1.169  -2.630  -0.147  0.00  0.00    -0.009 C 
ATOM      7  C8  <0> d           0.023  -2.255  -1.034  0.00  0.00    -0.046 C 
ATOM      8  H4  <0> d          -1.237   0.676  -2.344  0.00  0.00     0.035 H 
ATOM      9  H5  <0> d          -1.292  -0.972  -3.017  0.00  0.00     0.035 H 
ATOM     10  H6  <0> d          -3.321  -0.534  -1.797  0.00  0.00     0.044 H 
ATOM     11  H7  <0> d          -2.515  -0.041  -0.376  0.00  0.00     0.044 H 
ATOM     12  H8  <0> d          -1.215  -3.623  -0.038  0.00  0.00     0.044 H 
ATOM     13  H9  <0> d          -1.058  -2.163   0.831  0.00  0.00     0.044 H 
ATOM     14  H10 <0> d          -0.042  -2.797  -1.978  0.00  0.00     0.035 H 
ATOM     15  H11 <0> d           0.951  -2.519  -0.527  0.00  0.00     0.035 H 
ENDROOT
BRANCH   1  16
ATOM     16  C2  <0> d           0.002  -0.004   0.002  0.00  0.00     0.131 C 
ATOM     17  O1  <0> d           0.020  -0.613   1.044  0.00  0.00    -0.298 OA
BRANCH  16  18
ATOM     18  C1  <0> d          -0.018   1.503   0.010  0.00  0.00    -0.020 C 
ATOM     19  H1  <0> d           0.920   1.849   0.003  0.00  0.00     0.037 H 
ATOM     20  H2  <0> d          -0.545   1.864  -0.873  0.00  0.00     0.037 H 
ATOM     21  H3  <0> d          -0.529   1.854   0.907  0.00  0.00     0.037 H 
ENDBRANCH  16  18
ENDBRANCH   1  16
BRANCH   1  22
ATOM     22  C9  <0> d           1.238  -0.361  -2.117  0.00  0.00    -0.062 C 
ATOM     23  H12 <0> d           2.136  -0.617  -1.553  0.00  0.00     0.029 H 
ATOM     24  H13 <0> d           1.238  -0.901  -3.064  0.00  0.00     0.029 H 
ATOM     25  H14 <0> d           1.224   0.711  -2.309  0.00  0.00     0.029 H 
ENDBRANCH   1  22
TORSDOF 3
