REMARK  1 active torsions:
REMARK  status: ('A' for Active; 'I' for Inactive)
REMARK    1  A    between atoms: C1_1  and  N1_2 
ROOT
ATOM      1  N1  <0> d           0.002  -0.004   0.002  0.00  0.00    -0.274 N 
ATOM      2  C2  <0> d           0.008  -0.791  -1.118  0.00  0.00     0.064 A 
ATOM      3  C3  <0> d          -0.003  -0.517  -2.486  0.00  0.00    -0.053 A 
ATOM      4  C4  <0> d           0.006  -1.536  -3.389  0.00  0.00    -0.061 A 
ATOM      5  C5  <0> d           0.026  -2.873  -2.960  0.00  0.00     0.045 A 
ATOM      6  C6  <0> d           0.037  -3.170  -1.603  0.00  0.00    -0.049 A 
ATOM      7  C7  <0> d           0.028  -2.128  -0.673  0.00  0.00     0.013 A 
ATOM      8  C8  <0> d           0.034  -2.075   0.787  0.00  0.00     0.034 A 
ATOM      9  N2  <0> d           0.024  -0.821   1.137  0.00  0.00    -0.184 NA
ATOM     10  C9  <0> d           0.035  -3.932  -3.924  0.00  0.00     0.099 C 
ATOM     11  N3  <0> d           0.043  -4.772  -4.688  0.00  0.00    -0.191 NA
ATOM     12  H4  <0> d          -0.018   0.507  -2.829  0.00  0.00     0.087 H 
ATOM     13  H5  <0> d          -0.003  -1.314  -4.446  0.00  0.00     0.086 H 
ATOM     14  H6  <0> d           0.052  -4.197  -1.270  0.00  0.00     0.087 H 
ATOM     15  H7  <0> d           0.048  -2.923   1.455  0.00  0.00     0.118 H 
ENDROOT
BRANCH   1  16
ATOM     16  C1  <0> d          -0.018   1.461   0.010  0.00  0.00     0.003 C 
ATOM     17  H1  <0> d           1.005   1.838   0.002  0.00  0.00     0.059 H 
ATOM     18  H2  <0> d          -0.545   1.822  -0.873  0.00  0.00     0.059 H 
ATOM     19  H3  <0> d          -0.528   1.812   0.907  0.00  0.00     0.059 H 
ENDBRANCH   1  16
TORSDOF 1
