REMARK  3 active torsions:
REMARK  status: ('A' for Active; 'I' for Inactive)
REMARK    1  A    between atoms: C1_1  and  C2_2 
REMARK    2  A    between atoms: C5_5  and  O2_10 
REMARK    3  A    between atoms: C7_7  and  C8_8 
ROOT
ATOM      1  C2  <0> d           1.196   1.820   0.009  0.00  0.00    -0.045 A 
ATOM      2  C3  <0> d           0.047   1.103   0.274  0.00  0.00    -0.074 A 
ATOM      3  C4  <0> d          -1.183   1.734   0.276  0.00  0.00    -0.051 A 
ATOM      4  C5  <0> d          -1.269   3.097   0.022  0.00  0.00     0.066 A 
ATOM      5  C6  <0> d          -0.123   3.826  -0.245  0.00  0.00    -0.034 A 
ATOM      6  C7  <0> d           1.118   3.189  -0.253  0.00  0.00     0.049 A 
ATOM      7  H4  <0> d           0.108   0.043   0.476  0.00  0.00     0.084 H 
ATOM      8  H5  <0> d          -2.079   1.167   0.479  0.00  0.00     0.087 H 
ATOM      9  H6  <0> d          -0.190   4.885  -0.447  0.00  0.00     0.089 H 
ENDROOT
BRANCH   1  10
ATOM     10  C1  <0> d           2.533   1.125   0.002  0.00  0.00    -0.050 C 
ATOM     11  H1  <0> d           2.802   0.864  -1.022  0.00  0.00     0.033 H 
ATOM     12  H2  <0> d           3.290   1.790   0.417  0.00  0.00     0.033 H 
ATOM     13  H3  <0> d           2.475   0.219   0.605  0.00  0.00     0.033 H 
ENDBRANCH   1  10
BRANCH   6  14
ATOM     14  C8  <0> d           2.346   3.960  -0.537  0.00  0.00     0.210 C 
ATOM     15  O1  <0> d           3.410   3.386  -0.655  0.00  0.00    -0.644 OA
ATOM     16  O3  <0> d           2.285   5.300  -0.665  0.00  0.00    -0.644 OA
ENDBRANCH   6  14
BRANCH   4  17
ATOM     17  O2  <0> d          -2.480   3.714   0.030  0.00  0.00    -0.361 OA
ATOM     18  H7  <0> d          -2.923   3.722  -0.829  0.00  0.00     0.217 HD
ENDBRANCH   4  17
TORSDOF 3
