REMARK  2 active torsions:
REMARK  status: ('A' for Active; 'I' for Inactive)
REMARK    1  A    between atoms: C1_1  and  C2_2 
REMARK    2  A    between atoms: C3_4  and  C7_11 
ROOT
ATOM      1  C2  <0> d           0.002  -0.004   0.002  0.00  0.00     0.057 C 
ATOM      2  H1  <0> d          -1.020  -0.382   0.010  0.00  0.00     0.085 H 
ATOM      3  C3  <0> d           0.720  -0.499  -1.256  0.00  0.00     0.056 C 
ATOM      4  H2  <0> d           1.734  -0.098  -1.278  0.00  0.00     0.060 H 
ATOM      5  C4  <0> d           0.776  -2.030  -1.241  0.00  0.00    -0.042 C 
ATOM      6  C5  <0> d           1.529  -2.486   0.015  0.00  0.00     0.017 C 
ATOM      7  C6  <0> d           0.903  -1.811   1.216  0.00  0.00     0.259 C 
ATOM      8  O1  <0> d           0.596  -2.447   2.196  0.00  0.00    -0.265 OA
ATOM      9  O2  <0> d           0.696  -0.479   1.161  0.00  0.00    -0.316 OA
ATOM     10  H6  <0> d          -0.237  -2.431  -1.225  0.00  0.00     0.035 H 
ATOM     11  H7  <0> d           1.298  -2.385  -2.129  0.00  0.00     0.035 H 
ATOM     12  H8  <0> d           1.449  -3.568   0.118  0.00  0.00     0.048 H 
ATOM     13  H9  <0> d           2.578  -2.200  -0.061  0.00  0.00     0.048 H 
ENDROOT
BRANCH   1  14
ATOM     14  C1  <0> d          -0.019   1.526   0.010  0.00  0.00    -0.051 C 
ATOM     15  H3  <0> d           1.004   1.903   0.003  0.00  0.00     0.030 H 
ATOM     16  H4  <0> d          -0.546   1.887  -0.873  0.00  0.00     0.030 H 
ATOM     17  H5  <0> d          -0.529   1.877   0.907  0.00  0.00     0.030 H 
ENDBRANCH   1  14
BRANCH   3  18
ATOM     18  C7  <0> d          -0.029  -0.034  -2.478  0.00  0.00     0.179 C 
ATOM     19  O3  <0> d           0.583   0.356  -3.458  0.00  0.00    -0.648 OA
ATOM     20  O4  <0> d          -1.249  -0.050  -2.488  0.00  0.00    -0.648 OA
ENDBRANCH   3  18
TORSDOF 2
