REMARK  8 active torsions:
REMARK  status: ('A' for Active; 'I' for Inactive)
REMARK    1  A    between atoms: C1_1  and  C2_2 
REMARK    2  A    between atoms: C2_2  and  C3_3 
REMARK    3  A    between atoms: C3_3  and  C4_4 
REMARK    4  A    between atoms: C4_4  and  C5_5 
REMARK    5  A    between atoms: C5_5  and  C6_6 
REMARK    6  A    between atoms: C6_6  and  O1_7 
REMARK    7  A    between atoms: O1_7  and  C7_8 
REMARK    8  A    between atoms: C7_8  and  C8_9 
ROOT
ATOM      1  C5  <0> d           1.139   3.547   0.010  0.00  0.00    -0.045 C 
ATOM      2  H10 <0> d           0.585   3.866  -0.873  0.00  0.00     0.036 H 
ATOM      3  H11 <0> d           0.602   3.857   0.907  0.00  0.00     0.036 H 
ENDROOT
BRANCH   1   4
ATOM      4  C4  <0> d           2.528   4.188   0.000  0.00  0.00    -0.063 C 
ATOM      5  H8  <0> d           3.081   3.869   0.883  0.00  0.00     0.033 H 
ATOM      6  H9  <0> d           3.064   3.879  -0.896  0.00  0.00     0.033 H 
BRANCH   4   7
ATOM      7  C3  <0> d           2.386   5.712   0.010  0.00  0.00    -0.065 C 
ATOM      8  H6  <0> d           1.833   6.031  -0.873  0.00  0.00     0.033 H 
ATOM      9  H7  <0> d           1.849   6.021   0.907  0.00  0.00     0.033 H 
BRANCH   7  10
ATOM     10  C2  <0> d           3.775   6.353   0.000  0.00  0.00    -0.069 C 
ATOM     11  H4  <0> d           4.329   6.034   0.883  0.00  0.00     0.032 H 
ATOM     12  H5  <0> d           4.312   6.044  -0.897  0.00  0.00     0.032 H 
BRANCH  10  13
ATOM     13  C1  <0> d           3.634   7.877   0.010  0.00  0.00    -0.077 C 
ATOM     14  H1  <0> d           3.097   8.186   0.906  0.00  0.00     0.027 H 
ATOM     15  H2  <0> d           4.623   8.333   0.003  0.00  0.00     0.027 H 
ATOM     16  H3  <0> d           3.080   8.195  -0.873  0.00  0.00     0.027 H 
ENDBRANCH  10  13
ENDBRANCH   7  10
ENDBRANCH   4   7
ENDBRANCH   1   4
BRANCH   1  17
ATOM     17  C6  <0> d           1.280   2.024   0.001  0.00  0.00     0.019 C 
ATOM     18  H12 <0> d           1.834   1.705   0.884  0.00  0.00     0.074 H 
ATOM     19  H13 <0> d           1.817   1.714  -0.896  0.00  0.00     0.074 H 
BRANCH  17  20
ATOM     20  O1  <0> d          -0.017   1.425   0.010  0.00  0.00    -0.391 OA
BRANCH  20  21
ATOM     21  C7  <0> d           0.002  -0.004   0.002  0.00  0.00     0.016 C 
ATOM     22  H14 <0> d           0.512  -0.356  -0.895  0.00  0.00     0.073 H 
ATOM     23  H15 <0> d           0.529  -0.365   0.885  0.00  0.00     0.073 H 
BRANCH  21  24
ATOM     24  C8  <0> d          -1.433  -0.534   0.013  0.00  0.00    -0.056 C 
ATOM     25  H16 <0> d          -1.960  -0.173  -0.870  0.00  0.00     0.030 H 
ATOM     26  H17 <0> d          -1.419  -1.623   0.007  0.00  0.00     0.030 H 
ATOM     27  H18 <0> d          -1.944  -0.182   0.910  0.00  0.00     0.030 H 
ENDBRANCH  21  24
ENDBRANCH  20  21
ENDBRANCH  17  20
ENDBRANCH   1  17
TORSDOF 8
