REMARK  2 active torsions:
REMARK  status: ('A' for Active; 'I' for Inactive)
REMARK    1  A    between atoms: C8_10  and  C9_11 
REMARK    2  A    between atoms: C9_11  and  O1_12 
ROOT
ATOM      1  C1  <0> d           3.365   2.564  -0.017  0.00  0.00    -0.073 A 
ATOM      2  C2  <0> d           2.472   1.515  -0.013  0.00  0.00    -0.056 A 
ATOM      3  C3  <0> d           1.105   1.772   0.001  0.00  0.00     0.042 A 
ATOM      4  C4  <0> d           0.654   3.105   0.012  0.00  0.00    -0.008 A 
ATOM      5  C5  <0> d          -0.809   3.037   0.025  0.00  0.00    -0.056 A 
ATOM      6  C6  <0> d          -1.142   1.737   0.016  0.00  0.00    -0.022 A 
ATOM      7  N1  <0> d          -0.011   0.966   0.007  0.00  0.00    -0.365 N 
ATOM      8  H1  <0> d           0.002  -0.004   0.002  0.00  0.00     0.165 HD
ATOM      9  C7  <0> d           1.577   4.152   0.008  0.00  0.00    -0.063 A 
ATOM     10  C8  <0> d           2.916   3.877  -0.006  0.00  0.00    -0.034 A 
ATOM     11  H2  <0> d           4.426   2.363  -0.028  0.00  0.00     0.084 H 
ATOM     12  H3  <0> d           2.832   0.497  -0.022  0.00  0.00     0.087 H 
ATOM     13  H4  <0> d          -1.491   3.874   0.035  0.00  0.00     0.086 H 
ATOM     14  H5  <0> d          -2.152   1.355   0.019  0.00  0.00     0.111 H 
ATOM     15  H6  <0> d           1.234   5.176   0.016  0.00  0.00     0.085 H 
ENDROOT
BRANCH  10  16
ATOM     16  C9  <0> d           3.911   5.008  -0.009  0.00  0.00     0.040 C 
ATOM     17  H7  <0> d           4.814   4.696  -0.534  0.00  0.00     0.081 H 
ATOM     18  H8  <0> d           3.478   5.872  -0.515  0.00  0.00     0.081 H 
BRANCH  16  19
ATOM     19  O1  <0> d           4.239   5.359   1.337  0.00  0.00    -0.396 OA
ATOM     20  H9  <0> d           4.877   6.082   1.411  0.00  0.00     0.209 HD
ENDBRANCH  16  19
ENDBRANCH  10  16
TORSDOF 2
