REMARK  5 active torsions:
REMARK  status: ('A' for Active; 'I' for Inactive)
REMARK    1  A    between atoms: C1_1  and  C2_2 
REMARK    2  A    between atoms: C2_2  and  C5_7 
REMARK    3  A    between atoms: C5_7  and  C6_9 
REMARK    4  A    between atoms: C5_7  and  O4_11 
REMARK    5  A    between atoms: C6_9  and  O3_10 
ROOT
ATOM      1  C2  <0> d           1.989   0.846  -0.831  0.00  0.00     0.188 C 
ATOM      2  O1  <0> d           1.395   1.858  -0.001  0.00  0.00    -0.351 OA
ATOM      3  C3  <0> d          -0.019   1.545   0.011  0.00  0.00     0.043 C 
ATOM      4  C4  <0> d           0.002  -0.004   0.002  0.00  0.00     0.043 C 
ATOM      5  O2  <0> d           1.141  -0.310  -0.827  0.00  0.00    -0.351 OA
ATOM      6  H5  <0> d          -0.512   1.933  -0.880  0.00  0.00     0.077 H 
ATOM      7  H6  <0> d          -0.495   1.924   0.915  0.00  0.00     0.077 H 
ATOM      8  H7  <0> d           0.144  -0.393   1.010  0.00  0.00     0.077 H 
ATOM      9  H8  <0> d          -0.914  -0.399  -0.436  0.00  0.00     0.077 H 
ENDROOT
BRANCH   1  10
ATOM     10  C1  <0> d           2.133   1.373  -2.260  0.00  0.00    -0.023 C 
ATOM     11  H2  <0> d           1.150   1.631  -2.654  0.00  0.00     0.035 H 
ATOM     12  H3  <0> d           2.767   2.259  -2.259  0.00  0.00     0.035 H 
ATOM     13  H4  <0> d           2.584   0.604  -2.887  0.00  0.00     0.035 H 
ENDBRANCH   1  10
BRANCH   1  14
ATOM     14  C5  <0> d           3.366   0.476  -0.279  0.00  0.00     0.109 C 
ATOM     15  H1  <0> d           3.975   1.375  -0.188  0.00  0.00     0.094 H 
BRANCH  14  16
ATOM     16  C6  <0> d           3.206  -0.173   1.098  0.00  0.00     0.045 C 
ATOM     17  H9  <0> d           2.641   0.493   1.750  0.00  0.00     0.078 H 
ATOM     18  H10 <0> d           2.673  -1.118   0.995  0.00  0.00     0.078 H 
BRANCH  16  19
ATOM     19  O3  <0> d           4.496  -0.413   1.665  0.00  0.00    -0.398 OA
ATOM     20  H11 <0> d           4.471  -0.823   2.540  0.00  0.00     0.209 HD
ENDBRANCH  16  19
ENDBRANCH  14  16
BRANCH  14  21
ATOM     21  O4  <0> d           4.004  -0.444  -1.167  0.00  0.00    -0.388 OA
ATOM     22  H12 <0> d           3.517  -1.269  -1.295  0.00  0.00     0.210 HD
ENDBRANCH  14  21
ENDBRANCH   1  14
TORSDOF 5
