REMARK  2 active torsions:
REMARK  status: ('A' for Active; 'I' for Inactive)
REMARK    1  A    between atoms: N1_4  and  C5_6 
REMARK    2  A    between atoms: C5_6  and  C6_7 
ROOT
ATOM      1  C1  <0> d          -1.274   2.810   2.925  0.00  0.00    -0.067 A 
ATOM      2  C2  <0> d          -2.071   1.649   2.926  0.00  0.00    -0.067 A 
ATOM      3  C3  <0> d          -1.698   0.901   1.868  0.00  0.00    -0.020 A 
ATOM      4  N1  <0> d          -0.698   1.558   1.213  0.00  0.00    -0.357 N 
ATOM      5  C4  <0> d          -0.439   2.725   1.869  0.00  0.00    -0.020 A 
ATOM      6  H1  <0> d          -1.319   3.618   3.640  0.00  0.00     0.085 H 
ATOM      7  H2  <0> d          -2.841   1.403   3.643  0.00  0.00     0.085 H 
ATOM      8  H3  <0> d          -2.118  -0.053   1.587  0.00  0.00     0.111 H 
ATOM      9  H4  <0> d           0.305   3.456   1.590  0.00  0.00     0.111 H 
ENDROOT
BRANCH   4  10
ATOM     10  C5  <0> d          -0.013   1.086   0.008  0.00  0.00     0.079 C 
ATOM     11  H5  <0> d           0.002  -0.004   0.002  0.00  0.00     0.081 H 
ATOM     12  H6  <0> d           1.010   1.463   0.000  0.00  0.00     0.081 H 
BRANCH  10  13
ATOM     13  C6  <0> d          -0.742   1.585  -1.213  0.00  0.00     0.191 C 
ATOM     14  O1  <0> d          -1.732   2.266  -1.089  0.00  0.00    -0.647 OA
ATOM     15  O2  <0> d          -0.290   1.274  -2.438  0.00  0.00    -0.647 OA
ENDBRANCH  10  13
ENDBRANCH   4  10
TORSDOF 2
