REMARK  2 active torsions:
REMARK  status: ('A' for Active; 'I' for Inactive)
REMARK    1  A    between atoms: C2_2  and  C3_3 
REMARK    2  A    between atoms: C3_3  and  N1_4 
ROOT
ATOM      1  N1  <0> d          -3.270   1.369   1.157  0.00  0.00    -0.353 N 
ATOM      2  C4  <0> d          -3.308   0.745   2.374  0.00  0.00    -0.019 A 
ATOM      3  C5  <0> d          -4.158   1.387   3.191  0.00  0.00    -0.056 A 
ATOM      4  C6  <0> d          -4.710   2.515   2.435  0.00  0.00    -0.008 A 
ATOM      5  C7  <0> d          -4.112   2.458   1.162  0.00  0.00     0.044 A 
ATOM      6  C8  <0> d          -4.450   3.412   0.208  0.00  0.00    -0.056 A 
ATOM      7  C9  <0> d          -5.354   4.403   0.521  0.00  0.00    -0.081 A 
ATOM      8  C10 <0> d          -5.937   4.458   1.780  0.00  0.00    -0.082 A 
ATOM      9  C11 <0> d          -5.623   3.528   2.731  0.00  0.00    -0.071 A 
ATOM     10  H6  <0> d          -2.739  -0.134   2.638  0.00  0.00     0.111 H 
ATOM     11  H7  <0> d          -4.391   1.123   4.212  0.00  0.00     0.086 H 
ATOM     12  H8  <0> d          -4.002   3.378  -0.774  0.00  0.00     0.087 H 
ATOM     13  H9  <0> d          -5.612   5.146  -0.220  0.00  0.00     0.083 H 
ATOM     14  H10 <0> d          -6.644   5.241   2.009  0.00  0.00     0.083 H 
ATOM     15  H11 <0> d          -6.080   3.576   3.708  0.00  0.00     0.084 H 
ENDROOT
BRANCH   1  16
ATOM     16  C3  <0> d          -2.451   0.944   0.019  0.00  0.00     0.014 C 
ATOM     17  H4  <0> d          -2.989   1.136  -0.909  0.00  0.00     0.070 H 
ATOM     18  H5  <0> d          -2.239  -0.122   0.102  0.00  0.00     0.070 H 
BRANCH  16  19
ATOM     19  C2  <0> d          -1.156   1.715   0.017  0.00  0.00    -0.095 C 
ATOM     20  C1  <0> d          -0.013   1.076   0.008  0.00  0.00    -0.123 C 
ATOM     21  H1  <0> d           0.002  -0.004   0.002  0.00  0.00     0.066 H 
ATOM     22  H2  <0> d           0.915   1.629   0.002  0.00  0.00     0.066 H 
ATOM     23  H3  <0> d          -1.171   2.795   0.023  0.00  0.00     0.078 H 
ENDBRANCH  16  19
ENDBRANCH   1  16
TORSDOF 2
