REMARK  2 active torsions:
REMARK  status: ('A' for Active; 'I' for Inactive)
REMARK    1  A    between atoms: C3_3  and  C7_8 
REMARK    2  A    between atoms: C5_5  and  N1_7 
ROOT
ATOM      1  C1  <0> d          -0.017   1.378   0.010  0.00  0.00    -0.080 A 
ATOM      2  C2  <0> d           1.167   2.089   0.002  0.00  0.00    -0.071 A 
ATOM      3  C3  <0> d           2.387   1.412  -0.014  0.00  0.00    -0.006 A 
ATOM      4  C4  <0> d           2.406   0.018  -0.021  0.00  0.00    -0.046 A 
ATOM      5  C5  <0> d           1.213  -0.687  -0.013  0.00  0.00     0.026 A 
ATOM      6  C6  <0> d           0.002  -0.004   0.002  0.00  0.00    -0.058 A 
ATOM      7  H2  <0> d          -0.960   1.903   0.026  0.00  0.00     0.083 H 
ATOM      8  H3  <0> d           1.148   3.168   0.008  0.00  0.00     0.084 H 
ATOM      9  H4  <0> d           3.348  -0.511  -0.034  0.00  0.00     0.088 H 
ATOM     10  H5  <0> d          -0.927  -0.555   0.008  0.00  0.00     0.086 H 
ENDROOT
BRANCH   3  11
ATOM     11  C7  <0> d           3.656   2.172  -0.023  0.00  0.00     0.061 A 
ATOM     12  N3  <0> d           3.797   3.541  -0.017  0.00  0.00    -0.349 N 
ATOM     13  C9  <0> d           5.121   3.804  -0.027  0.00  0.00     0.064 A 
ATOM     14  H1  <0> d           3.079   4.194  -0.007  0.00  0.00     0.167 HD
ATOM     15  N2  <0> d           5.779   2.676  -0.046  0.00  0.00    -0.254 NA
ATOM     16  H9  <0> d           5.565   4.789  -0.024  0.00  0.00     0.143 H 
ATOM     17  C8  <0> d           4.915   1.655  -0.044  0.00  0.00     0.030 A 
ATOM     18  H8  <0> d           5.170   0.606  -0.057  0.00  0.00     0.118 H 
ENDBRANCH   3  11
BRANCH   5  19
ATOM     19  N1  <0> d           1.227  -2.084  -0.021  0.00  0.00    -0.399 N 
ATOM     20  H6  <0> d           2.072  -2.561  -0.032  0.00  0.00     0.156 HD
ATOM     21  H7  <0> d           0.392  -2.578  -0.015  0.00  0.00     0.156 HD
ENDBRANCH   5  19
TORSDOF 2
