REMARK  2 active torsions:
REMARK  status: ('A' for Active; 'I' for Inactive)
REMARK    1  A    between atoms: C1_1  and  C2_2 
REMARK    2  A    between atoms: C2_2  and  C3_4 
ROOT
ATOM      1  C3  <0> d          -0.864   2.958   1.480  0.00  0.00     0.120 A 
ATOM      2  C4  <0> d          -1.484   3.540   2.568  0.00  0.00    -0.045 A 
ATOM      3  C5  <0> d          -1.394   4.926   2.383  0.00  0.00    -0.059 A 
ATOM      4  C6  <0> d          -0.739   5.133   1.218  0.00  0.00     0.019 A 
ATOM      5  O2  <0> d          -0.416   3.950   0.682  0.00  0.00    -0.319 OA
ATOM      6  H4  <0> d          -1.948   3.028   3.398  0.00  0.00     0.088 H 
ATOM      7  H5  <0> d          -1.778   5.687   3.047  0.00  0.00     0.086 H 
ATOM      8  H6  <0> d          -0.508   6.099   0.792  0.00  0.00     0.123 H 
ENDROOT
BRANCH   1   9
ATOM      9  C2  <0> d          -0.718   1.572   1.248  0.00  0.00     0.179 C 
ATOM     10  O1  <0> d          -1.161   0.772   2.047  0.00  0.00    -0.291 OA
BRANCH   9  11
ATOM     11  C1  <0> d          -0.013   1.086   0.008  0.00  0.00    -0.015 C 
ATOM     12  H1  <0> d           0.001   0.086   0.003  0.00  0.00     0.038 H 
ATOM     13  H2  <0> d           1.010   1.463   0.000  0.00  0.00     0.038 H 
ATOM     14  H3  <0> d          -0.540   1.447  -0.875  0.00  0.00     0.038 H 
ENDBRANCH   9  11
ENDBRANCH   1   9
TORSDOF 2
