REMARK  2 active torsions:
REMARK  status: ('A' for Active; 'I' for Inactive)
REMARK    1  A    between atoms: C1_1  and  N1_2 
REMARK    2  A    between atoms: N1_2  and  C2_3 
ROOT
ATOM      1  C2  <0> d           0.034   3.799   0.021  0.00  0.00     0.144 A 
ATOM      2  C3  <0> d          -1.195   3.144   0.030  0.00  0.00     0.079 A 
ATOM      3  C4  <0> d          -1.221   1.761   0.017  0.00  0.00    -0.057 A 
ATOM      4  C5  <0> d          -0.013   1.076   0.008  0.00  0.00    -0.064 A 
ATOM      5  C6  <0> d           1.169   1.789   0.001  0.00  0.00     0.004 A 
ATOM      6  N2  <0> d           1.164   3.109   0.007  0.00  0.00    -0.242 NA
ATOM      7 Cl1  <0> d          -2.675   4.052   0.049  0.00  0.00    -0.080 Cl
ATOM      8  H5  <0> d          -2.159   1.226   0.019  0.00  0.00     0.086 H 
ATOM      9  H6  <0> d           0.002  -0.004   0.002  0.00  0.00     0.085 H 
ATOM     10  H7  <0> d           2.111   1.260  -0.011  0.00  0.00     0.114 H 
ENDROOT
BRANCH   1  11
ATOM     11  N1  <0> d           0.075   5.189   0.028  0.00  0.00    -0.378 N 
ATOM     12  H4  <0> d          -0.861   5.766   0.039  0.00  0.00     0.160 HD
BRANCH  11  13
ATOM     13  C1  <0> d           1.365   5.883   0.019  0.00  0.00    -0.020 C 
ATOM     14  H1  <0> d           1.196   6.970   0.026  0.00  0.00     0.056 H 
ATOM     15  H2  <0> d           1.925   5.605  -0.885  0.00  0.00     0.056 H 
ATOM     16  H3  <0> d           1.942   5.596   0.911  0.00  0.00     0.056 H 
ENDBRANCH  11  13
ENDBRANCH   1  11
TORSDOF 2
