REMARK  1 active torsions:
REMARK  status: ('A' for Active; 'I' for Inactive)
REMARK    1  A    between atoms: C1_1  and  C2_2 
ROOT
ATOM      1  C2  <0> d           2.430   0.052  -0.021  0.00  0.00    -0.045 A 
ATOM      2  C3  <0> d           2.389   1.415  -0.012  0.00  0.00    -0.039 A 
ATOM      3  C4  <0> d           1.171   2.088   0.002  0.00  0.00     0.119 A 
ATOM      4  C5  <0> d          -0.017   1.388   0.010  0.00  0.00    -0.018 A 
ATOM      5  C6  <0> d           0.002  -0.004   0.002  0.00  0.00     0.065 A 
ATOM      6  C7  <0> d           1.238  -0.680  -0.013  0.00  0.00     0.017 A 
ATOM      7  C8  <0> d           0.924  -2.106  -0.018  0.00  0.00     0.034 A 
ATOM      8  N1  <0> d          -0.372  -2.228  -0.006  0.00  0.00    -0.186 NA
ATOM      9  N2  <0> d          -0.974  -0.966   0.006  0.00  0.00    -0.278 N 
ATOM     10  H1  <0> d          -1.959  -0.793   0.017  0.00  0.00     0.189 HD
ATOM     11  F1  <0> d           1.152   3.438   0.009  0.00  0.00    -0.206 F 
ATOM     12  H5  <0> d           3.311   1.978  -0.018  0.00  0.00     0.089 H 
ATOM     13  H6  <0> d          -0.958   1.918   0.017  0.00  0.00     0.091 H 
ATOM     14  H7  <0> d           1.640  -2.914  -0.029  0.00  0.00     0.118 H 
ENDROOT
BRANCH   1  15
ATOM     15  C1  <0> d           3.756  -0.664  -0.037  0.00  0.00    -0.050 C 
ATOM     16  H2  <0> d           4.066  -0.831  -1.069  0.00  0.00     0.033 H 
ATOM     17  H3  <0> d           4.503  -0.057   0.473  0.00  0.00     0.033 H 
ATOM     18  H4  <0> d           3.658  -1.623   0.472  0.00  0.00     0.033 H 
ENDBRANCH   1  15
TORSDOF 1
