REMARK  0 active torsions:
REMARK  status: ('A' for Active; 'I' for Inactive)
ROOT
ATOM      1  C1  <0> d           1.135  -0.676  -0.012  0.00  0.00     0.009 A 
ATOM      2  C2  <0> d           2.299   0.023  -0.020  0.00  0.00    -0.027 A 
ATOM      3  S1  <0> d           1.677   1.698  -0.005  0.00  0.00    -0.093 SA
ATOM      4  C3  <0> d          -0.016   1.309   0.009  0.00  0.00     0.039 A 
ATOM      5  N1  <0> d           0.002  -0.004   0.002  0.00  0.00    -0.266 NA
ATOM      6  H1  <0> d           1.137  -1.756  -0.018  0.00  0.00     0.115 H 
ATOM      7  H2  <0> d           3.318  -0.335  -0.031  0.00  0.00     0.097 H 
ATOM      8  H3  <0> d          -0.865   1.976   0.017  0.00  0.00     0.126 H 
ENDROOT
TORSDOF 0
