REMARK  2 active torsions:
REMARK  status: ('A' for Active; 'I' for Inactive)
REMARK    1  A    between atoms: C4_5  and  C8_10 
REMARK    2  A    between atoms: C4_5  and  O2_12 
ROOT
ATOM      1  C1  <0> d          -0.013   1.086   0.008  0.00  0.00    -0.049 C 
ATOM      2  C2  <0> d          -0.926   1.682  -1.125  0.00  0.00    -0.034 C 
ATOM      3  H1  <0> d          -0.657   1.434  -2.151  0.00  0.00     0.046 H 
ATOM      4  C3  <0> d          -0.890   3.197  -0.747  0.00  0.00    -0.019 C 
ATOM      5  C4  <0> d          -0.877   3.189   0.801  0.00  0.00     0.153 C 
ATOM      6  C5  <0> d          -0.904   1.670   1.164  0.00  0.00     0.003 C 
ATOM      7  H2  <0> d          -0.615   1.411   2.183  0.00  0.00     0.051 H 
ATOM      8  C6  <0> d          -2.285   1.200   0.692  0.00  0.00    -0.099 C 
ATOM      9  C7  <0> d          -2.298   1.207  -0.631  0.00  0.00    -0.102 C 
ATOM     10  H3  <0> d           0.002  -0.004   0.002  0.00  0.00     0.035 H 
ATOM     11  H4  <0> d           0.992   1.509   0.001  0.00  0.00     0.035 H 
ATOM     12  H5  <0> d           0.013   3.668  -1.136  0.00  0.00     0.039 H 
ATOM     13  H6  <0> d          -1.779   3.706  -1.120  0.00  0.00     0.039 H 
ATOM     14  H7  <0> d          -3.107   0.912   1.330  0.00  0.00     0.077 H 
ATOM     15  H8  <0> d          -3.132   0.926  -1.257  0.00  0.00     0.076 H 
ENDROOT
BRANCH   5  16
ATOM     16  C8  <0> d          -2.097   3.887   1.345  0.00  0.00     0.209 C 
ATOM     17  O1  <0> d          -3.084   3.249   1.623  0.00  0.00    -0.646 OA
ATOM     18  O3  <0> d          -2.086   5.218   1.521  0.00  0.00    -0.646 OA
ENDBRANCH   5  16
BRANCH   5  19
ATOM     19  O2  <0> d           0.314   3.803   1.296  0.00  0.00    -0.378 OA
ATOM     20  H9  <0> d           0.412   4.732   1.044  0.00  0.00     0.211 HD
ENDBRANCH   5  19
TORSDOF 2
