REMARK  0 active torsions:
REMARK  status: ('A' for Active; 'I' for Inactive)
ROOT
ATOM      1  C1  <0> d          -3.926   3.731  -0.720  0.00  0.00    -0.062 A 
ATOM      2  C2  <0> d          -2.933   3.060  -1.394  0.00  0.00    -0.068 A 
ATOM      3  C3  <0> d          -1.929   2.382  -0.684  0.00  0.00     0.016 A 
ATOM      4  C4  <0> d          -1.945   2.393   0.712  0.00  0.00    -0.042 A 
ATOM      5  C5  <0> d          -2.943   3.067   1.386  0.00  0.00    -0.056 A 
ATOM      6  C6  <0> d          -3.939   3.740   0.677  0.00  0.00     0.045 A 
ATOM      7  C7  <0> d          -4.973   4.438   1.380  0.00  0.00     0.099 C 
ATOM      8  N1  <0> d          -5.794   4.992   1.938  0.00  0.00    -0.191 NA
ATOM      9  C8  <0> d          -0.771   1.600   1.239  0.00  0.00    -0.034 A 
ATOM     10  C9  <0> d          -0.013   1.086   0.008  0.00  0.00    -0.001 A 
ATOM     11  C10 <0> d          -0.781   1.605  -1.183  0.00  0.00     0.160 A 
ATOM     12  O1  <0> d          -0.502   1.416  -2.348  0.00  0.00    -0.292 OA
ATOM     13  H1  <0> d          -4.696   4.251  -1.271  0.00  0.00     0.085 H 
ATOM     14  H2  <0> d          -2.926   3.054  -2.474  0.00  0.00     0.085 H 
ATOM     15  H3  <0> d          -2.953   3.073   2.466  0.00  0.00     0.086 H 
ATOM     16  H4  <0> d          -1.124   0.762   1.839  0.00  0.00     0.040 H 
ATOM     17  H5  <0> d          -0.123   2.242   1.837  0.00  0.00     0.040 H 
ATOM     18  H6  <0> d           0.014   0.086   0.027  0.00  0.00     0.045 H 
ATOM     19  H7  <0> d           1.005   1.477   0.000  0.00  0.00     0.045 H 
ENDROOT
TORSDOF 0
