REMARK  2 active torsions:
REMARK  status: ('A' for Active; 'I' for Inactive)
REMARK    1  A    between atoms: C4_4  and  C7_7 
REMARK    2  A    between atoms: C7_7  and  N1_8 
ROOT
ATOM      1  C1  <0> d           1.156   3.165   0.008  0.00  0.00    -0.083 A 
ATOM      2  C2  <0> d           1.175   1.783   0.000  0.00  0.00    -0.082 A 
ATOM      3  C3  <0> d          -0.013   1.076   0.008  0.00  0.00    -0.075 A 
ATOM      4  C4  <0> d          -1.219   1.751   0.017  0.00  0.00    -0.038 A 
ATOM      5  C5  <0> d          -1.238   3.133   0.030  0.00  0.00    -0.075 A 
ATOM      6  C6  <0> d          -0.050   3.840   0.022  0.00  0.00    -0.082 A 
ATOM      7  H1  <0> d           2.084   3.718   0.001  0.00  0.00     0.083 H 
ATOM      8  H2  <0> d           2.118   1.256  -0.011  0.00  0.00     0.083 H 
ATOM      9  H3  <0> d           0.002  -0.004   0.002  0.00  0.00     0.084 H 
ATOM     10  H4  <0> d          -2.180   3.660   0.041  0.00  0.00     0.084 H 
ATOM     11  H5  <0> d          -0.065   4.920   0.028  0.00  0.00     0.083 H 
ENDROOT
BRANCH   4  12
ATOM     12  C7  <0> d          -2.514   0.980   0.019  0.00  0.00     0.042 C 
ATOM     13  H6  <0> d          -3.284   1.561  -0.488  0.00  0.00     0.074 H 
ATOM     14  H7  <0> d          -2.373   0.032  -0.500  0.00  0.00     0.074 H 
BRANCH  12  15
ATOM     15  N1  <0> d          -2.927   0.722   1.401  0.00  0.00    -0.258 N 
ATOM     16  N3  <0> d          -2.172   0.087   2.401  0.00  0.00    -0.164 NA
ATOM     17  C9  <0> d          -2.912   0.068   3.478  0.00  0.00     0.107 A 
ATOM     18  N2  <0> d          -4.083   0.643   3.208  0.00  0.00    -0.234 NA
ATOM     19  H9  <0> d          -2.623  -0.351   4.431  0.00  0.00     0.149 H 
ATOM     20  C8  <0> d          -4.106   1.041   1.962  0.00  0.00     0.084 A 
ATOM     21  H8  <0> d          -4.928   1.540   1.471  0.00  0.00     0.146 H 
ENDBRANCH  12  15
ENDBRANCH   4  12
TORSDOF 2
