REMARK  1 active torsions:
REMARK  status: ('A' for Active; 'I' for Inactive)
REMARK    1  A    between atoms: C1_1  and  C2_2 
ROOT
ATOM      1  C2  <0> d          -0.718   1.572   1.248  0.00  0.00     0.030 A 
ATOM      2  C3  <0> d          -2.083   1.786   1.217  0.00  0.00    -0.057 A 
ATOM      3  C4  <0> d          -2.724   2.229   2.363  0.00  0.00    -0.042 A 
ATOM      4  C5  <0> d          -1.962   2.450   3.502  0.00  0.00     0.133 A 
ATOM      5  C6  <0> d          -0.598   2.218   3.456  0.00  0.00     0.040 A 
ATOM      6  N1  <0> d          -0.025   1.792   2.347  0.00  0.00    -0.263 NA
ATOM      7  F1  <0> d          -2.543   2.886   4.641  0.00  0.00    -0.205 F 
ATOM      8  H4  <0> d          -2.644   1.608   0.311  0.00  0.00     0.086 H 
ATOM      9  H5  <0> d          -3.790   2.402   2.369  0.00  0.00     0.088 H 
ATOM     10  H6  <0> d           0.003   2.387   4.337  0.00  0.00     0.119 H 
ENDROOT
BRANCH   1  11
ATOM     11  C1  <0> d          -0.013   1.086   0.008  0.00  0.00    -0.035 C 
ATOM     12  H1  <0> d           0.002  -0.004   0.002  0.00  0.00     0.035 H 
ATOM     13  H2  <0> d           1.010   1.463   0.000  0.00  0.00     0.035 H 
ATOM     14  H3  <0> d          -0.540   1.447  -0.875  0.00  0.00     0.035 H 
ENDBRANCH   1  11
TORSDOF 1
