REMARK  3 active torsions:
REMARK  status: ('A' for Active; 'I' for Inactive)
REMARK    1  A    between atoms: C2_2  and  C4_6 
REMARK    2  A    between atoms: C4_6  and  C5_7 
REMARK    3  A    between atoms: C5_7  and  C6_8 
ROOT
ATOM      1  C4  <0> d           1.827   3.465   0.003  0.00  0.00    -0.015 C 
ATOM      2  H3  <0> d           2.351   3.661  -0.933  0.00  0.00     0.043 H 
ATOM      3  H4  <0> d           0.992   4.158   0.104  0.00  0.00     0.043 H 
ENDROOT
BRANCH   1   4
ATOM      4  C2  <0> d           1.309   2.050   0.001  0.00  0.00     0.041 A 
ATOM      5  C1  <0> d          -0.022   1.781   0.012  0.00  0.00    -0.020 A 
ATOM      6  S1  <0> d           0.002  -0.004   0.002  0.00  0.00    -0.092 SA
ATOM      7  H1  <0> d          -0.862   2.460   0.027  0.00  0.00     0.098 H 
ATOM      8  C3  <0> d           1.672  -0.212  -0.015  0.00  0.00     0.040 A 
ATOM      9  N1  <0> d           2.126   1.016  -0.013  0.00  0.00    -0.258 NA
ATOM     10  H2  <0> d           2.233  -1.135  -0.026  0.00  0.00     0.126 H 
ENDBRANCH   1   4
BRANCH   1  11
ATOM     11  C5  <0> d           2.791   3.653   1.176  0.00  0.00     0.021 C 
ATOM     12  H5  <0> d           2.267   3.457   2.112  0.00  0.00     0.049 H 
ATOM     13  H6  <0> d           3.626   2.960   1.075  0.00  0.00     0.049 H 
BRANCH  11  14
ATOM     14  C6  <0> d           3.309   5.068   1.178  0.00  0.00     0.172 C 
ATOM     15  O1  <0> d           2.942   5.853   0.321  0.00  0.00    -0.648 OA
ATOM     16  O2  <0> d           4.096   5.428   2.038  0.00  0.00    -0.648 OA
ENDBRANCH  11  14
ENDBRANCH   1  11
TORSDOF 3
