REMARK  3 active torsions:
REMARK  status: ('A' for Active; 'I' for Inactive)
REMARK    1  A    between atoms: C2_2  and  C3_3 
REMARK    2  A    between atoms: C3_3  and  S1_4 
REMARK    3  A    between atoms: S1_4  and  C4_5 
ROOT
ATOM      1  S1  <0> d           0.718  -0.591  -1.558  0.00  0.00    -0.126 SA
ENDROOT
BRANCH   1   2
ATOM      2  C3  <0> d           0.002  -0.004   0.002  0.00  0.00    -0.004 C 
ATOM      3  H4  <0> d           0.604  -0.364   0.836  0.00  0.00     0.055 H 
ATOM      4  H5  <0> d          -1.016  -0.382   0.099  0.00  0.00     0.055 H 
BRANCH   2   5
ATOM      5  C2  <0> d          -0.018   1.503   0.010  0.00  0.00    -0.103 C 
ATOM      6  C1  <0> d          -1.162   2.142   0.019  0.00  0.00    -0.124 C 
ATOM      7  H1  <0> d          -2.090   1.590   0.021  0.00  0.00     0.066 H 
ATOM      8  H2  <0> d          -1.176   3.222   0.025  0.00  0.00     0.066 H 
ATOM      9  H3  <0> d           0.909   2.055   0.004  0.00  0.00     0.076 H 
ENDBRANCH   2   5
ENDBRANCH   1   2
BRANCH   1  10
ATOM     10  C4  <0> d           0.672  -2.346  -1.415  0.00  0.00     0.007 A 
ATOM     11  C7  <0> d           0.170  -2.936  -0.298  0.00  0.00    -0.029 A 
ATOM     12  S2  <0> d           0.361  -4.670  -0.677  0.00  0.00    -0.112 SA
ATOM     13  H8  <0> d          -0.238  -2.475   0.589  0.00  0.00     0.097 H 
ATOM     14  C6  <0> d           1.096  -4.497  -2.295  0.00  0.00    -0.044 A 
ATOM     15  C5  <0> d           1.142  -3.150  -2.441  0.00  0.00    -0.060 A 
ATOM     16  H7  <0> d           1.417  -5.266  -2.981  0.00  0.00     0.095 H 
ATOM     17  H6  <0> d           1.543  -2.710  -3.343  0.00  0.00     0.086 H 
ENDBRANCH   1  10
TORSDOF 3
