REMARK  2 active torsions:
REMARK  status: ('A' for Active; 'I' for Inactive)
REMARK    1  A    between atoms: C1_1  and  C2_2 
REMARK       I    between atoms: C2_2  and  N1_4 
REMARK    2  A    between atoms: C6_8  and  C7_10 
REMARK       I    between atoms: C7_10  and  N2_12 
ROOT
ATOM      1  C2  <0> d           0.002  -0.004   0.002  0.00  0.00     0.216 C 
ATOM      2  O1  <0> d           0.000  -0.605  -1.052  0.00  0.00    -0.274 OA
ATOM      3  N1  <0> d           0.022  -0.684   1.165  0.00  0.00    -0.339 N 
ATOM      4  C3  <0> d           0.033  -0.084   2.512  0.00  0.00    -0.001 C 
ATOM      5  C4  <0> d          -0.560  -1.178   3.437  0.00  0.00    -0.048 C 
ATOM      6  C5  <0> d           0.036  -2.467   2.812  0.00  0.00    -0.036 C 
ATOM      7  C6  <0> d           0.044  -2.148   1.302  0.00  0.00     0.091 C 
ATOM      8  H1  <0> d           0.947  -2.550   0.843  0.00  0.00     0.087 H 
ATOM      9  H5  <0> d           1.053   0.158   2.811  0.00  0.00     0.064 H 
ATOM     10  H6  <0> d          -0.590   0.810   2.534  0.00  0.00     0.064 H 
ATOM     11  H7  <0> d          -1.649  -1.188   3.388  0.00  0.00     0.035 H 
ATOM     12  H8  <0> d          -0.219  -1.048   4.464  0.00  0.00     0.035 H 
ATOM     13  H9  <0> d          -0.601  -3.327   3.021  0.00  0.00     0.036 H 
ATOM     14  H10 <0> d           1.049  -2.639   3.175  0.00  0.00     0.036 H 
ENDROOT
BRANCH   1  15
ATOM     15  C1  <0> d          -0.018   1.503   0.010  0.00  0.00    -0.003 C 
ATOM     16  H2  <0> d           1.004   1.880   0.003  0.00  0.00     0.040 H 
ATOM     17  H3  <0> d          -0.545   1.864  -0.873  0.00  0.00     0.040 H 
ATOM     18  H4  <0> d          -0.529   1.854   0.907  0.00  0.00     0.040 H 
ENDBRANCH   1  15
BRANCH   7  19
ATOM     19  C7  <0> d          -1.177  -2.741   0.646  0.00  0.00     0.238 C 
ATOM     20  O2  <0> d          -2.141  -2.044   0.416  0.00  0.00    -0.271 OA
ATOM     21  N2  <0> d          -1.196  -4.048   0.316  0.00  0.00    -0.368 N 
ATOM     22  H11 <0> d          -0.424  -4.606   0.501  0.00  0.00     0.159 HD
ATOM     23  H12 <0> d          -1.981  -4.430  -0.106  0.00  0.00     0.159 HD
ENDBRANCH   7  19
TORSDOF 2
