REMARK  3 active torsions:
REMARK  status: ('A' for Active; 'I' for Inactive)
REMARK    1  A    between atoms: C1_1  and  N1_2 
REMARK    2  A    between atoms: N1_2  and  C2_3 
REMARK    3  A    between atoms: C5_6  and  C8_9 
ROOT
ATOM      1  C2  <0> d          -1.224   1.644   0.017  0.00  0.00     0.027 A 
ATOM      2  C3  <0> d          -1.241   3.037   0.030  0.00  0.00    -0.057 A 
ATOM      3  C4  <0> d          -2.436   3.709   0.035  0.00  0.00    -0.064 A 
ATOM      4  C5  <0> d          -3.639   2.995   0.036  0.00  0.00     0.041 A 
ATOM      5  C6  <0> d          -3.618   1.597   0.028  0.00  0.00    -0.064 A 
ATOM      6  C7  <0> d          -2.420   0.930   0.019  0.00  0.00    -0.057 A 
ATOM      7  H5  <0> d          -0.312   3.587   0.033  0.00  0.00     0.086 H 
ATOM      8  H6  <0> d          -2.449   4.789   0.041  0.00  0.00     0.085 H 
ATOM      9  H7  <0> d          -4.545   1.042   0.029  0.00  0.00     0.085 H 
ATOM     10  H8  <0> d          -2.403  -0.149   0.012  0.00  0.00     0.086 H 
ENDROOT
BRANCH   1  11
ATOM     11  N1  <0> d          -0.011   0.966   0.007  0.00  0.00    -0.394 N 
ATOM     12  H4  <0> d           0.002  -0.004   0.002  0.00  0.00     0.159 HD
BRANCH  11  13
ATOM     13  C1  <0> d           1.248   1.716  -0.001  0.00  0.00    -0.021 C 
ATOM     14  H1  <0> d           2.086   1.019  -0.012  0.00  0.00     0.056 H 
ATOM     15  H2  <0> d           1.288   2.348  -0.888  0.00  0.00     0.056 H 
ATOM     16  H3  <0> d           1.305   2.338   0.892  0.00  0.00     0.056 H 
ENDBRANCH  11  13
ENDBRANCH   1  11
BRANCH   4  17
ATOM     17  C8  <0> d          -4.925   3.715   0.046  0.00  0.00     0.209 C 
ATOM     18  O1  <0> d          -5.969   3.093   0.048  0.00  0.00    -0.644 OA
ATOM     19  O2  <0> d          -4.943   5.062   0.054  0.00  0.00    -0.644 OA
ENDBRANCH   4  17
TORSDOF 3
