REMARK  1 active torsions:
REMARK  status: ('A' for Active; 'I' for Inactive)
REMARK    1  A    between atoms: C3_3  and  C6_8 
ROOT
ATOM      1  C1  <0> d          -0.013   1.076   0.008  0.00  0.00    -0.065 A 
ATOM      2  C2  <0> d          -1.216   1.758   0.017  0.00  0.00    -0.060 A 
ATOM      3  C3  <0> d          -1.187   3.158   0.030  0.00  0.00     0.098 A 
ATOM      4  C4  <0> d           0.054   3.807   0.022  0.00  0.00     0.226 A 
ATOM      5  N1  <0> d           1.173   3.109   0.007  0.00  0.00    -0.232 NA
ATOM      6  C5  <0> d           1.172   1.790   0.001  0.00  0.00     0.005 A 
ATOM      7  F1  <0> d           0.104   5.157   0.028  0.00  0.00    -0.183 F 
ATOM      8  H1  <0> d           0.002  -0.004   0.002  0.00  0.00     0.085 H 
ATOM      9  H2  <0> d          -2.155   1.224   0.019  0.00  0.00     0.085 H 
ATOM     10  H3  <0> d           2.112   1.258  -0.011  0.00  0.00     0.114 H 
ENDROOT
BRANCH   3  11
ATOM     11  C6  <0> d          -2.441   3.935   0.047  0.00  0.00     0.214 C 
ATOM     12  O1  <0> d          -2.402   5.149   0.052  0.00  0.00    -0.644 OA
ATOM     13  O2  <0> d          -3.628   3.298   0.055  0.00  0.00    -0.644 OA
ENDBRANCH   3  11
TORSDOF 1
