REMARK  1 active torsions:
REMARK  status: ('A' for Active; 'I' for Inactive)
REMARK    1  A    between atoms: C1_1  and  C2_2 
ROOT
ATOM      1  C2  <0> d           0.002  -0.004   0.002  0.00  0.00     0.011 C 
ATOM      2  H1  <0> d           0.500  -0.363  -0.899  0.00  0.00     0.072 H 
ATOM      3  C3  <0> d          -1.442  -0.549   0.056  0.00  0.00    -0.044 C 
ATOM      4  C4  <0> d          -1.343  -1.713   1.083  0.00  0.00    -0.044 C 
ATOM      5  C5  <0> d          -0.313  -1.128   2.072  0.00  0.00     0.015 C 
ATOM      6  H2  <0> d          -0.767  -0.408   2.753  0.00  0.00     0.072 H 
ATOM      7  N1  <0> d           0.707  -0.502   1.196  0.00  0.00    -0.343 N 
ATOM      8  C6  <0> d           1.924  -0.632   1.755  0.00  0.00     0.220 C 
ATOM      9  O1  <0> d           2.923  -0.050   1.388  0.00  0.00    -0.273 OA
ATOM     10  C7  <0> d           1.867  -1.611   2.909  0.00  0.00     0.011 C 
ATOM     11  C8  <0> d           0.430  -2.242   2.828  0.00  0.00    -0.038 C 
ATOM     12  H6  <0> d          -2.131   0.219   0.409  0.00  0.00     0.036 H 
ATOM     13  H7  <0> d          -1.749  -0.922  -0.921  0.00  0.00     0.036 H 
ATOM     14  H8  <0> d          -2.301  -1.892   1.570  0.00  0.00     0.036 H 
ATOM     15  H9  <0> d          -0.967  -2.622   0.613  0.00  0.00     0.036 H 
ATOM     16  H10 <0> d           2.635  -2.377   2.797  0.00  0.00     0.047 H 
ATOM     17  H11 <0> d           1.984  -1.088   3.858  0.00  0.00     0.047 H 
ATOM     18  H12 <0> d          -0.003  -2.404   3.815  0.00  0.00     0.036 H 
ATOM     19  H13 <0> d           0.446  -3.166   2.251  0.00  0.00     0.036 H 
ENDROOT
BRANCH   1  20
ATOM     20  C1  <0> d          -0.019   1.526   0.010  0.00  0.00    -0.057 C 
ATOM     21  H3  <0> d           1.004   1.903   0.003  0.00  0.00     0.030 H 
ATOM     22  H4  <0> d          -0.546   1.887  -0.873  0.00  0.00     0.030 H 
ATOM     23  H5  <0> d          -0.529   1.877   0.907  0.00  0.00     0.030 H 
ENDBRANCH   1  20
TORSDOF 1
