REMARK  3 active torsions:
REMARK  status: ('A' for Active; 'I' for Inactive)
REMARK    1  A    between atoms: N1_3  and  C4_7 
REMARK    2  A    between atoms: C3_5  and  N3_6 
REMARK    3  A    between atoms: C4_7  and  C5_8 
ROOT
ATOM      1  C1  <0> d          -0.013   1.076   0.008  0.00  0.00    -0.021 A 
ATOM      2  C2  <0> d           1.070   1.887   0.002  0.00  0.00     0.002 A 
ATOM      3  N1  <0> d           0.631   3.163   0.013  0.00  0.00    -0.274 N 
ATOM      4  N2  <0> d          -0.770   3.140   0.026  0.00  0.00    -0.155 NA
ATOM      5  C3  <0> d          -1.159   1.887   0.017  0.00  0.00     0.142 A 
ATOM      6  H1  <0> d           0.002  -0.004   0.002  0.00  0.00     0.091 H 
ATOM      7  H2  <0> d           2.102   1.570  -0.010  0.00  0.00     0.114 H 
ENDROOT
BRANCH   3   8
ATOM      8  C4  <0> d           1.472   4.362   0.011  0.00  0.00     0.070 C 
ATOM      9  H5  <0> d           1.334   4.904   0.947  0.00  0.00     0.075 H 
ATOM     10  H6  <0> d           2.518   4.073  -0.090  0.00  0.00     0.075 H 
BRANCH   8  11
ATOM     11  C5  <0> d           1.076   5.261  -1.162  0.00  0.00     0.225 C 
ATOM     12  F1  <0> d           1.799   6.457  -1.098  0.00  0.00    -0.213 F 
ATOM     13  F2  <0> d           1.359   4.608  -2.366  0.00  0.00    -0.213 F 
ATOM     14  H7  <0> d           0.009   5.479  -1.109  0.00  0.00     0.147 H 
ENDBRANCH   8  11
ENDBRANCH   3   8
BRANCH   5  15
ATOM     15  N3  <0> d          -2.485   1.438   0.019  0.00  0.00    -0.383 N 
ATOM     16  H3  <0> d          -2.674   0.486   0.015  0.00  0.00     0.157 HD
ATOM     17  H4  <0> d          -3.213   2.077   0.026  0.00  0.00     0.157 HD
ENDBRANCH   5  15
TORSDOF 3
