REMARK  1 active torsions:
REMARK  status: ('A' for Active; 'I' for Inactive)
REMARK    1  A    between atoms: C4_6  and  N3_7 
ROOT
ATOM      1  C1  <0> d           2.335   1.356  -0.013  0.00  0.00    -0.034 A 
ATOM      2  C2  <0> d           2.347  -0.029  -0.021  0.00  0.00    -0.038 A 
ATOM      3  C3  <0> d           1.127  -0.693  -0.012  0.00  0.00     0.148 A 
ATOM      4  N1  <0> d           0.002  -0.004   0.002  0.00  0.00    -0.136 NA
ATOM      5  N2  <0> d          -0.015   1.279   0.009  0.00  0.00    -0.131 NA
ATOM      6  C4  <0> d           1.097   1.998   0.002  0.00  0.00     0.143 A 
ATOM      7 Cl1  <0> d           1.082  -2.428  -0.021  0.00  0.00    -0.061 Cl
ATOM      8  H1  <0> d           3.256   1.921  -0.018  0.00  0.00     0.089 H 
ATOM      9  H2  <0> d           3.278  -0.577  -0.032  0.00  0.00     0.088 H 
ENDROOT
BRANCH   6  10
ATOM     10  N3  <0> d           1.031   3.388   0.010  0.00  0.00    -0.383 N 
ATOM     11  H3  <0> d           0.169   3.832   0.020  0.00  0.00     0.157 HD
ATOM     12  H4  <0> d           1.847   3.912   0.005  0.00  0.00     0.157 HD
ENDBRANCH   6  10
TORSDOF 1
