REMARK  4 active torsions:
REMARK  status: ('A' for Active; 'I' for Inactive)
REMARK    1  A    between atoms: C1_1  and  C2_2 
REMARK    2  A    between atoms: C2_2  and  C3_4 
REMARK    3  A    between atoms: C2_2  and  O1_11 
REMARK    4  A    between atoms: C7_8  and  N1_10 
ROOT
ATOM      1  C3  <0> d           1.177   1.782   0.000  0.00  0.00    -0.028 A 
ATOM      2  C4  <0> d          -0.013   1.076   0.008  0.00  0.00    -0.074 A 
ATOM      3  C5  <0> d          -1.220   1.749   0.017  0.00  0.00    -0.080 A 
ATOM      4  C6  <0> d          -1.242   3.130   0.031  0.00  0.00    -0.058 A 
ATOM      5  C7  <0> d          -0.050   3.842   0.023  0.00  0.00     0.026 A 
ATOM      6  C8  <0> d           1.161   3.163   0.008  0.00  0.00    -0.049 A 
ATOM      7  H5  <0> d           0.002  -0.004   0.002  0.00  0.00     0.084 H 
ATOM      8  H6  <0> d          -2.147   1.195   0.018  0.00  0.00     0.083 H 
ATOM      9  H7  <0> d          -2.186   3.656   0.043  0.00  0.00     0.086 H 
ATOM     10  H8  <0> d           2.090   3.714   0.002  0.00  0.00     0.087 H 
ENDROOT
BRANCH   1  11
ATOM     11  C2  <0> d           2.490   1.044  -0.016  0.00  0.00     0.057 C 
ATOM     12  H1  <0> d           3.277   1.709  -0.371  0.00  0.00     0.089 H 
BRANCH  11  13
ATOM     13  C1  <0> d           2.825   0.568   1.399  0.00  0.00    -0.049 C 
ATOM     14  H2  <0> d           2.039  -0.097   1.755  0.00  0.00     0.031 H 
ATOM     15  H3  <0> d           3.776   0.035   1.388  0.00  0.00     0.031 H 
ATOM     16  H4  <0> d           2.901   1.429   2.064  0.00  0.00     0.031 H 
ENDBRANCH  11  13
BRANCH  11  17
ATOM     17  O1  <0> d           2.392  -0.085  -0.886  0.00  0.00    -0.391 OA
ATOM     18  H11 <0> d           3.203  -0.608  -0.946  0.00  0.00     0.210 HD
ENDBRANCH  11  17
ENDBRANCH   1  11
BRANCH   5  19
ATOM     19  N1  <0> d          -0.069   5.239   0.030  0.00  0.00    -0.399 N 
ATOM     20  H9  <0> d           0.764   5.736   0.025  0.00  0.00     0.156 HD
ATOM     21  H10 <0> d          -0.915   5.713   0.041  0.00  0.00     0.156 HD
ENDBRANCH   5  19
TORSDOF 4
