REMARK  4 active torsions:
REMARK  status: ('A' for Active; 'I' for Inactive)
REMARK    1  A    between atoms: C1_1  and  C2_2 
REMARK    2  A    between atoms: C2_2  and  C3_4 
REMARK    3  A    between atoms: C2_2  and  C5_7 
REMARK    4  A    between atoms: C3_4  and  C4_5 
ROOT
ATOM      1  C5  <0> d           2.756   5.072  -0.123  0.00  0.00     0.042 C 
ATOM      2  H2  <0> d           2.186   5.398  -0.993  0.00  0.00     0.083 H 
ATOM      3  C6  <0> d           4.224   5.530  -0.257  0.00  0.00    -0.039 C 
ATOM      4  C7  <0> d           4.246   6.820   0.610  0.00  0.00    -0.043 C 
ATOM      5  C8  <0> d           3.234   6.446   1.722  0.00  0.00     0.020 C 
ATOM      6  O2  <0> d           2.220   5.673   1.062  0.00  0.00    -0.385 OA
ATOM      7  H8  <0> d           4.903   4.779   0.148  0.00  0.00     0.036 H 
ATOM      8  H9  <0> d           4.467   5.755  -1.295  0.00  0.00     0.036 H 
ATOM      9  H10 <0> d           3.901   7.682   0.039  0.00  0.00     0.036 H 
ATOM     10  H11 <0> d           5.238   6.999   1.025  0.00  0.00     0.036 H 
ATOM     11  H12 <0> d           2.801   7.346   2.158  0.00  0.00     0.074 H 
ATOM     12  H13 <0> d           3.723   5.849   2.493  0.00  0.00     0.074 H 
ENDROOT
BRANCH   1  13
ATOM     13  C2  <0> d           2.696   3.548  -0.005  0.00  0.00    -0.023 C 
ATOM     14  H1  <0> d           3.210   3.097  -0.854  0.00  0.00     0.044 H 
BRANCH  13  15
ATOM     15  C1  <0> d           3.376   3.110   1.294  0.00  0.00    -0.070 C 
ATOM     16  H3  <0> d           3.334   2.024   1.378  0.00  0.00     0.028 H 
ATOM     17  H4  <0> d           4.417   3.433   1.286  0.00  0.00     0.028 H 
ATOM     18  H5  <0> d           2.863   3.561   2.143  0.00  0.00     0.028 H 
ENDBRANCH  13  15
BRANCH  13  19
ATOM     19  C3  <0> d           1.235   3.094   0.007  0.00  0.00     0.021 C 
ATOM     20  H6  <0> d           0.727   3.482  -0.876  0.00  0.00     0.049 H 
ATOM     21  H7  <0> d           0.744   3.473   0.904  0.00  0.00     0.049 H 
BRANCH  19  22
ATOM     22  C4  <0> d           1.177   1.588  -0.001  0.00  0.00     0.172 C 
ATOM     23  O1  <0> d           2.199   0.944  -0.014  0.00  0.00    -0.648 OA
ATOM     24  O3  <0> d          -0.011   0.963   0.007  0.00  0.00    -0.648 OA
ENDBRANCH  19  22
ENDBRANCH  13  19
ENDBRANCH   1  13
TORSDOF 4
