REMARK  2 active torsions:
REMARK  status: ('A' for Active; 'I' for Inactive)
REMARK    1  A    between atoms: C2_2  and  C3_3 
REMARK    2  A    between atoms: C3_3  and  N1_4 
REMARK       I    between atoms: N1_4  and  C4_5 
REMARK       I    between atoms: C4_5  and  N2_7 
ROOT
ATOM      1  C1  <0> d          -0.847   4.667   0.031  0.00  0.00    -0.152 C 
ATOM      2  C2  <0> d          -1.045   3.509   0.026  0.00  0.00    -0.098 C 
ATOM      3  H1  <0> d          -0.669   5.701   0.036  0.00  0.00     0.166 H 
ENDROOT
BRANCH   2   4
ATOM      4  C3  <0> d          -1.295   2.059   0.019  0.00  0.00     0.051 C 
ATOM      5  H2  <0> d          -1.867   1.792  -0.869  0.00  0.00     0.083 H 
ATOM      6  H3  <0> d          -1.859   1.783   0.911  0.00  0.00     0.083 H 
BRANCH   4   7
ATOM      7  N1  <0> d          -0.016   1.344   0.009  0.00  0.00    -0.333 N 
ATOM      8  C4  <0> d           0.002  -0.004   0.002  0.00  0.00     0.314 C 
ATOM      9  O1  <0> d          -1.042  -0.626   0.009  0.00  0.00    -0.248 OA
ATOM     10  N2  <0> d           1.178  -0.662  -0.013  0.00  0.00    -0.352 N 
ATOM     11  H5  <0> d           2.012  -0.166  -0.018  0.00  0.00     0.160 HD
ATOM     12  H6  <0> d           1.191  -1.632  -0.018  0.00  0.00     0.160 HD
ATOM     13  H4  <0> d           0.817   1.840   0.004  0.00  0.00     0.165 HD
ENDBRANCH   4   7
ENDBRANCH   2   4
TORSDOF 2
