REMARK  4 active torsions:
REMARK  status: ('A' for Active; 'I' for Inactive)
REMARK    1  A    between atoms: C3_3  and  C8_9 
REMARK    2  A    between atoms: C6_6  and  C7_7 
REMARK    3  A    between atoms: C7_7  and  O1_8 
REMARK    4  A    between atoms: C8_9  and  O2_10 
ROOT
ATOM      1  C1  <0> d          -0.360   2.779   1.819  0.00  0.00    -0.074 A 
ATOM      2  C2  <0> d          -1.010   3.227   2.953  0.00  0.00    -0.074 A 
ATOM      3  C3  <0> d          -2.012   2.463   3.523  0.00  0.00    -0.035 A 
ATOM      4  C4  <0> d          -2.366   1.254   2.955  0.00  0.00    -0.074 A 
ATOM      5  C5  <0> d          -1.719   0.808   1.818  0.00  0.00    -0.074 A 
ATOM      6  C6  <0> d          -0.718   1.572   1.248  0.00  0.00    -0.035 A 
ATOM      7  H1  <0> d           0.425   3.373   1.376  0.00  0.00     0.084 H 
ATOM      8  H2  <0> d          -0.733   4.172   3.397  0.00  0.00     0.084 H 
ATOM      9  H3  <0> d          -3.149   0.657   3.400  0.00  0.00     0.084 H 
ATOM     10  H4  <0> d          -1.996  -0.137   1.374  0.00  0.00     0.084 H 
ENDROOT
BRANCH   3  11
ATOM     11  C8  <0> d          -2.718   2.950   4.762  0.00  0.00     0.040 C 
ATOM     12  H8  <0> d          -2.732   4.050   4.768  0.00  0.00     0.081 H 
ATOM     13  H9  <0> d          -3.750   2.570   4.769  0.00  0.00     0.081 H 
BRANCH  11  14
ATOM     14  O2  <0> d          -2.028   2.476   5.920  0.00  0.00    -0.396 OA
ATOM     15  H10 <0> d          -2.399   2.732   6.924  0.00  0.00     0.209 HD
ENDBRANCH  11  14
ENDBRANCH   3  11
BRANCH   6  16
ATOM     16  C7  <0> d          -0.013   1.086   0.008  0.00  0.00     0.040 C 
ATOM     17  H5  <0> d           1.019   1.466   0.000  0.00  0.00     0.081 H 
ATOM     18  H6  <0> d           0.002  -0.014   0.002  0.00  0.00     0.081 H 
BRANCH  16  19
ATOM     19  O1  <0> d          -0.704   1.559  -1.150  0.00  0.00    -0.396 OA
ATOM     20  H7  <0> d          -0.334   1.304  -2.154  0.00  0.00     0.209 HD
ENDBRANCH  16  19
ENDBRANCH   6  16
TORSDOF 4
