REMARK  3 active torsions:
REMARK  status: ('A' for Active; 'I' for Inactive)
REMARK    1  A    between atoms: C1_1  and  O1_2 
REMARK    2  A    between atoms: O1_2  and  C2_3 
REMARK    3  A    between atoms: C7_9  and  O2_11 
ROOT
ATOM      1  C2  <0> d           2.154   0.032  -1.268  0.00  0.00     0.062 C 
ATOM      2  H1  <0> d           2.681  -0.329  -0.385  0.00  0.00     0.087 H 
ATOM      3  C3  <0> d           0.718  -0.497  -1.257  0.00  0.00    -0.038 C 
ATOM      4  C4  <0> d           0.002  -0.004   0.002  0.00  0.00    -0.063 C 
ATOM      5  C5  <0> d          -0.019   1.526   0.010  0.00  0.00    -0.063 C 
ATOM      6  C6  <0> d           1.417   2.055  -0.000  0.00  0.00    -0.039 C 
ATOM      7  C7  <0> d           2.133   1.562  -1.259  0.00  0.00     0.060 C 
ATOM      8  H2  <0> d           3.155   1.939  -1.267  0.00  0.00     0.086 H 
ATOM      9  H6  <0> d           0.733  -1.587  -1.263  0.00  0.00     0.036 H 
ATOM     10  H7  <0> d           0.191  -0.136  -2.140  0.00  0.00     0.036 H 
ATOM     11  H8  <0> d           0.529  -0.365   0.885  0.00  0.00     0.033 H 
ATOM     12  H9  <0> d          -1.020  -0.381   0.010  0.00  0.00     0.033 H 
ATOM     13  H10 <0> d          -0.546   1.887  -0.873  0.00  0.00     0.033 H 
ATOM     14  H11 <0> d          -0.529   1.877   0.907  0.00  0.00     0.033 H 
ATOM     15  H12 <0> d           1.402   3.145   0.006  0.00  0.00     0.036 H 
ATOM     16  H13 <0> d           1.944   1.694   0.883  0.00  0.00     0.036 H 
ENDROOT
BRANCH   1  17
ATOM     17  O1  <0> d           2.822  -0.429  -2.443  0.00  0.00    -0.388 OA
BRANCH  17  18
ATOM     18  C1  <0> d           3.492  -1.680  -2.278  0.00  0.00     0.005 C 
ATOM     19  H3  <0> d           2.768  -2.446  -1.999  0.00  0.00     0.066 H 
ATOM     20  H4  <0> d           3.974  -1.961  -3.215  0.00  0.00     0.066 H 
ATOM     21  H5  <0> d           4.245  -1.589  -1.495  0.00  0.00     0.066 H 
ENDBRANCH  17  18
ENDBRANCH   1  17
BRANCH   7  22
ATOM     22  O2  <0> d           1.442   2.035  -2.417  0.00  0.00    -0.393 OA
ATOM     23  H14 <0> d           1.390   2.999  -2.477  0.00  0.00     0.210 HD
ENDBRANCH   7  22
TORSDOF 3
