REMARK  3 active torsions:
REMARK  status: ('A' for Active; 'I' for Inactive)
REMARK    1  A    between atoms: C1_1  and  O1_2 
REMARK    2  A    between atoms: O1_2  and  C2_3 
REMARK    3  A    between atoms: C3_4  and  N3_10 
ROOT
ATOM      1  C2  <0> d           0.605  -0.606  -1.055  0.00  0.00     0.212 A 
ATOM      2  C3  <0> d           0.656  -2.003  -1.131  0.00  0.00     0.174 A 
ATOM      3  N1  <0> d           1.246  -2.584  -2.165  0.00  0.00    -0.236 NA
ATOM      4  C4  <0> d           1.785  -1.843  -3.121  0.00  0.00     0.044 A 
ATOM      5  C5  <0> d           1.735  -0.466  -3.045  0.00  0.00     0.146 A 
ATOM      6  N2  <0> d           1.141   0.124  -2.018  0.00  0.00    -0.208 NA
ATOM      7 Cl1  <0> d           2.445   0.497  -4.304  0.00  0.00    -0.061 Cl
ATOM      8  H4  <0> d           2.266  -2.319  -3.963  0.00  0.00     0.119 H 
ENDROOT
BRANCH   1   9
ATOM      9  O1  <0> d           0.002  -0.004   0.002  0.00  0.00    -0.337 OA
BRANCH   9  10
ATOM     10  C1  <0> d          -0.017   1.425   0.010  0.00  0.00     0.012 C 
ATOM     11  H1  <0> d           1.005   1.802   0.002  0.00  0.00     0.067 H 
ATOM     12  H2  <0> d          -0.544   1.786  -0.873  0.00  0.00     0.067 H 
ATOM     13  H3  <0> d          -0.527   1.776   0.907  0.00  0.00     0.067 H 
ENDBRANCH   9  10
ENDBRANCH   1   9
BRANCH   2  14
ATOM     14  N3  <0> d           0.089  -2.779  -0.124  0.00  0.00    -0.380 N 
ATOM     15  H5  <0> d          -0.342  -2.352   0.633  0.00  0.00     0.157 HD
ATOM     16  H6  <0> d           0.126  -3.747  -0.178  0.00  0.00     0.157 HD
ENDBRANCH   2  14
TORSDOF 3
