REMARK  3 active torsions:
REMARK  status: ('A' for Active; 'I' for Inactive)
REMARK    1  A    between atoms: C1_1  and  C2_2 
REMARK    2  A    between atoms: C4_4  and  C7_9 
REMARK    3  A    between atoms: C5_6  and  C6_8 
ROOT
ATOM      1  C7  <0> d           1.081   3.514   0.010  0.00  0.00     0.055 C 
ATOM      2  C8  <0> d           0.265   3.994  -1.117  0.00  0.00     0.065 C 
ATOM      3  N3  <0> d          -0.365   4.365  -1.986  0.00  0.00    -0.197 NA
ATOM      4  H8  <0> d           0.644   3.867   0.956  0.00  0.00     0.064 H 
ATOM      5  H9  <0> d           2.106   3.901  -0.088  0.00  0.00     0.064 H 
ENDROOT
BRANCH   1   6
ATOM      6  C4  <0> d           1.111   2.007   0.002  0.00  0.00     0.051 A 
ATOM      7  C3  <0> d           2.320   1.329  -0.013  0.00  0.00    -0.035 A 
ATOM      8  C2  <0> d           2.298  -0.057  -0.020  0.00  0.00     0.034 A 
ATOM      9  H4  <0> d           3.256   1.867  -0.019  0.00  0.00     0.089 H 
ATOM     10  N2  <0> d           1.132  -0.682  -0.012  0.00  0.00    -0.239 NA
ATOM     11  C5  <0> d           0.002  -0.004   0.002  0.00  0.00     0.122 A 
ATOM     12  N1  <0> d          -0.016   1.314   0.009  0.00  0.00    -0.237 NA
BRANCH   8  13
ATOM     13  C1  <0> d           3.585  -0.841  -0.035  0.00  0.00    -0.035 C 
ATOM     14  H1  <0> d           4.438  -0.146  -0.040  0.00  0.00     0.035 H 
ATOM     15  H2  <0> d           3.620  -1.470  -0.937  0.00  0.00     0.035 H 
ATOM     16  H3  <0> d           3.637  -1.479   0.860  0.00  0.00     0.035 H 
ENDBRANCH   8  13
BRANCH  11  17
ATOM     17  C6  <0> d          -1.304  -0.755   0.011  0.00  0.00    -0.019 C 
ATOM     18  H5  <0> d          -1.105  -1.837   0.003  0.00  0.00     0.037 H 
ATOM     19  H6  <0> d          -1.889  -0.484  -0.881  0.00  0.00     0.037 H 
ATOM     20  H7  <0> d          -1.872  -0.493   0.916  0.00  0.00     0.037 H 
ENDBRANCH  11  17
ENDBRANCH   1   6
TORSDOF 3
