REMARK  1 active torsions:
REMARK  status: ('A' for Active; 'I' for Inactive)
REMARK    1  A    between atoms: C1_1  and  C2_2 
ROOT
ATOM      1  C2  <0> d           2.397   0.009  -0.021  0.00  0.00    -0.040 A 
ATOM      2  C3  <0> d           1.206  -0.686  -0.013  0.00  0.00    -0.076 A 
ATOM      3  C4  <0> d           0.002  -0.004   0.002  0.00  0.00    -0.081 A 
ATOM      4  C5  <0> d          -0.017   1.379   0.010  0.00  0.00    -0.060 A 
ATOM      5  C6  <0> d           1.168   2.088   0.002  0.00  0.00     0.055 A 
ATOM      6  C7  <0> d           2.387   1.405  -0.013  0.00  0.00     0.072 A 
ATOM      7  C8  <0> d           3.620   2.133  -0.021  0.00  0.00     0.101 C 
ATOM      8  N1  <0> d           4.598   2.711  -0.027  0.00  0.00    -0.191 NA
ATOM      9 Cl1  <0> d           1.143   3.824   0.012  0.00  0.00    -0.083 Cl
ATOM     10  H4  <0> d           1.212  -1.766  -0.019  0.00  0.00     0.084 H 
ATOM     11  H5  <0> d          -0.927  -0.554   0.008  0.00  0.00     0.083 H 
ATOM     12  H6  <0> d          -0.960   1.905   0.017  0.00  0.00     0.086 H 
ENDROOT
BRANCH   1  13
ATOM     13  C1  <0> d           3.707  -0.737  -0.037  0.00  0.00    -0.050 C 
ATOM     14  H1  <0> d           4.013  -0.911  -1.068  0.00  0.00     0.033 H 
ATOM     15  H2  <0> d           4.468  -0.146   0.473  0.00  0.00     0.033 H 
ATOM     16  H3  <0> d           3.587  -1.693   0.473  0.00  0.00     0.033 H 
ENDBRANCH   1  13
TORSDOF 1
