REMARK  3 active torsions:
REMARK  status: ('A' for Active; 'I' for Inactive)
REMARK    1  A    between atoms: C1_1  and  C2_2 
REMARK    2  A    between atoms: N2_5  and  C5_7 
REMARK    3  A    between atoms: C5_7  and  C6_8 
ROOT
ATOM      1  C6  <0> d          -1.072  -4.156   1.148  0.00  0.00    -0.096 C 
ATOM      2  C7  <0> d          -1.970  -4.856   0.860  0.00  0.00    -0.152 C 
ATOM      3  H8  <0> d          -2.773  -5.481   0.603  0.00  0.00     0.166 H 
ENDROOT
BRANCH   1   4
ATOM      4  C5  <0> d           0.054  -3.280   1.509  0.00  0.00     0.070 C 
ATOM      5  H6  <0> d           0.993  -3.814   1.361  0.00  0.00     0.086 H 
ATOM      6  H7  <0> d          -0.036  -2.985   2.554  0.00  0.00     0.086 H 
BRANCH   4   7
ATOM      7  N2  <0> d           0.034  -2.085   0.661  0.00  0.00    -0.270 N 
ATOM      8  N1  <0> d           0.028  -2.068  -0.740  0.00  0.00    -0.184 NA
ATOM      9  C3  <0> d           0.009  -0.821  -1.133  0.00  0.00     0.029 A 
ATOM     10  C2  <0> d           0.002  -0.004   0.002  0.00  0.00    -0.026 A 
ATOM     11  H4  <0> d          -0.001  -0.480  -2.158  0.00  0.00     0.118 H 
ATOM     12  C4  <0> d           0.023  -0.806   1.092  0.00  0.00     0.006 A 
ATOM     13  H5  <0> d           0.028  -0.481   2.122  0.00  0.00     0.115 H 
BRANCH  10  14
ATOM     14  C1  <0> d          -0.018   1.503   0.010  0.00  0.00    -0.049 C 
ATOM     15  H1  <0> d           1.004   1.880   0.003  0.00  0.00     0.033 H 
ATOM     16  H2  <0> d          -0.545   1.864  -0.873  0.00  0.00     0.033 H 
ATOM     17  H3  <0> d          -0.529   1.854   0.907  0.00  0.00     0.033 H 
ENDBRANCH  10  14
ENDBRANCH   4   7
ENDBRANCH   1   4
TORSDOF 3
