REMARK  5 active torsions:
REMARK  status: ('A' for Active; 'I' for Inactive)
REMARK    1  A    between atoms: C1_1  and  C2_2 
REMARK    2  A    between atoms: C2_2  and  C3_3 
REMARK    3  A    between atoms: C2_2  and  O1_4 
REMARK    4  A    between atoms: O1_4  and  C4_5 
REMARK    5  A    between atoms: C4_5  and  C5_6 
ROOT
ATOM      1  C2  <0> d          -0.013   1.086   0.008  0.00  0.00     0.032 C 
ATOM      2  H4  <0> d           0.002  -0.004   0.002  0.00  0.00     0.082 H 
ENDROOT
BRANCH   1   3
ATOM      3  C1  <0> d          -0.753   1.593  -1.232  0.00  0.00    -0.052 C 
ATOM      4  H1  <0> d          -0.767   2.683  -1.226  0.00  0.00     0.030 H 
ATOM      5  H2  <0> d          -0.242   1.241  -2.128  0.00  0.00     0.030 H 
ATOM      6  H3  <0> d          -1.775   1.215  -1.224  0.00  0.00     0.030 H 
ENDBRANCH   1   3
BRANCH   1   7
ATOM      7  C3  <0> d          -0.729   1.579   1.267  0.00  0.00    -0.052 C 
ATOM      8  H5  <0> d          -0.744   2.669   1.273  0.00  0.00     0.030 H 
ATOM      9  H6  <0> d          -1.751   1.202   1.275  0.00  0.00     0.030 H 
ATOM     10  H7  <0> d          -0.202   1.218   2.150  0.00  0.00     0.030 H 
ENDBRANCH   1   7
BRANCH   1  11
ATOM     11  O1  <0> d           1.328   1.580  -0.002  0.00  0.00    -0.376 OA
BRANCH  11  12
ATOM     12  C4  <0> d           2.258   0.725  -0.668  0.00  0.00     0.100 C 
ATOM     13  H8  <0> d           2.277  -0.246  -0.173  0.00  0.00     0.091 H 
ATOM     14  H9  <0> d           1.955   0.597  -1.707  0.00  0.00     0.091 H 
BRANCH  12  15
ATOM     15  C5  <0> d           3.632   1.341  -0.619  0.00  0.00     0.197 C 
ATOM     16  O2  <0> d           3.798   2.404  -0.069  0.00  0.00    -0.646 OA
ATOM     17  O3  <0> d           4.673   0.709  -1.185  0.00  0.00    -0.646 OA
ENDBRANCH  12  15
ENDBRANCH  11  12
ENDBRANCH   1  11
TORSDOF 5
