REMARK  4 active torsions:
REMARK  status: ('A' for Active; 'I' for Inactive)
REMARK    1  A    between atoms: C1_1  and  C2_2 
REMARK    2  A    between atoms: C4_4  and  C9_10 
REMARK    3  A    between atoms: C5_5  and  C8_9 
REMARK    4  A    between atoms: C6_7  and  C7_8 
ROOT
ATOM      1  C2  <0> d          -0.017   1.390   0.010  0.00  0.00    -0.032 A 
ATOM      2  C3  <0> d           0.002  -0.004   0.002  0.00  0.00    -0.067 A 
ATOM      3  C4  <0> d           1.265  -0.595  -0.013  0.00  0.00    -0.032 A 
ATOM      4  C5  <0> d           2.364   0.243  -0.019  0.00  0.00     0.055 A 
ATOM      5  O1  <0> d           2.248   1.446  -0.012  0.00  0.00    -0.319 OA
ATOM      6  C6  <0> d           1.199   2.047   0.002  0.00  0.00     0.055 A 
ATOM      7  H4  <0> d          -0.905  -0.590   0.008  0.00  0.00     0.085 H 
ENDROOT
BRANCH   1   8
ATOM      8  C1  <0> d          -1.316   2.153   0.020  0.00  0.00    -0.049 C 
ATOM      9  H1  <0> d          -1.625   2.331   1.050  0.00  0.00     0.033 H 
ATOM     10  H2  <0> d          -1.181   3.107  -0.489  0.00  0.00     0.033 H 
ATOM     11  H3  <0> d          -2.083   1.572  -0.493  0.00  0.00     0.033 H 
ENDBRANCH   1   8
BRANCH   6  12
ATOM     12  C7  <0> d           1.218   3.554   0.009  0.00  0.00    -0.031 C 
ATOM     13  H5  <0> d           1.232   3.912   1.039  0.00  0.00     0.036 H 
ATOM     14  H6  <0> d           2.107   3.909  -0.511  0.00  0.00     0.036 H 
ATOM     15  H7  <0> d           0.328   3.931  -0.494  0.00  0.00     0.036 H 
ENDBRANCH   6  12
BRANCH   3  16
ATOM     16  C9  <0> d           1.425  -2.094  -0.022  0.00  0.00    -0.049 C 
ATOM     17  H11 <0> d           1.454  -2.450  -1.052  0.00  0.00     0.033 H 
ATOM     18  H12 <0> d           2.353  -2.362   0.481  0.00  0.00     0.033 H 
ATOM     19  H13 <0> d           0.584  -2.552   0.497  0.00  0.00     0.033 H 
ENDBRANCH   3  16
BRANCH   4  20
ATOM     20  C8  <0> d           3.745  -0.360  -0.036  0.00  0.00    -0.031 C 
ATOM     21  H8  <0> d           4.041  -0.489  -0.983  0.00  0.00     0.036 H 
ATOM     22  H9  <0> d           4.439   0.307   0.475  0.00  0.00     0.036 H 
ATOM     23  H10 <0> d           3.726  -1.324   0.472  0.00  0.00     0.036 H 
ENDBRANCH   4  20
TORSDOF 4
