REMARK  0 active torsions:
REMARK  status: ('A' for Active; 'I' for Inactive)
ROOT
ATOM      1  C1  <0> d          -1.220   1.749   0.017  0.00  0.00    -0.043 A 
ATOM      2  C2  <0> d          -0.013   1.076   0.008  0.00  0.00    -0.041 A 
ATOM      3  C3  <0> d           1.176   1.782   0.000  0.00  0.00     0.137 A 
ATOM      4  C4  <0> d           1.155   3.180   0.008  0.00  0.00     0.086 A 
ATOM      5  C5  <0> d          -0.069   3.853   0.023  0.00  0.00    -0.023 A 
ATOM      6  C6  <0> d          -1.248   3.135   0.031  0.00  0.00     0.118 A 
ATOM      7  F1  <0> d          -2.433   3.784   0.046  0.00  0.00    -0.206 F 
ATOM      8  C7  <0> d           2.382   3.918   0.001  0.00  0.00     0.102 C 
ATOM      9  N1  <0> d           3.355   4.504  -0.005  0.00  0.00    -0.191 NA
ATOM     10  F2  <0> d           2.355   1.122  -0.015  0.00  0.00    -0.204 F 
ATOM     11  H1  <0> d          -2.146   1.193   0.019  0.00  0.00     0.088 H 
ATOM     12  H2  <0> d           0.002  -0.004   0.002  0.00  0.00     0.088 H 
ATOM     13  H3  <0> d          -0.093   4.933   0.029  0.00  0.00     0.090 H 
ENDROOT
TORSDOF 0
