REMARK  3 active torsions:
REMARK  status: ('A' for Active; 'I' for Inactive)
REMARK    1  A    between atoms: C1_1  and  C2_2 
REMARK    2  A    between atoms: C2_2  and  N1_3 
REMARK    3  A    between atoms: N1_3  and  C3_4 
ROOT
ATOM      1  C3  <0> d          -1.608  -1.883   0.007  0.00  0.00     0.032 A 
ATOM      2  C4  <0> d          -0.549  -2.791  -0.002  0.00  0.00    -0.041 A 
ATOM      3  C5  <0> d          -0.824  -4.142  -0.007  0.00  0.00     0.006 A 
ATOM      4  N2  <0> d          -2.070  -4.579  -0.003  0.00  0.00    -0.249 NA
ATOM      5  C6  <0> d          -3.099  -3.752   0.006  0.00  0.00     0.127 A 
ATOM      6  C7  <0> d          -2.908  -2.385   0.017  0.00  0.00    -0.018 A 
ATOM      7 Cl1  <0> d          -4.713  -4.393   0.011  0.00  0.00    -0.062 Cl
ATOM      8  H7  <0> d           0.473  -2.440  -0.005  0.00  0.00     0.089 H 
ATOM      9  H8  <0> d          -0.010  -4.851  -0.014  0.00  0.00     0.114 H 
ATOM     10  H9  <0> d          -3.755  -1.714   0.029  0.00  0.00     0.091 H 
ENDROOT
BRANCH   1  11
ATOM     11  N1  <0> d          -1.372  -0.511   0.012  0.00  0.00    -0.390 N 
ATOM     12  H6  <0> d          -2.118   0.109   0.023  0.00  0.00     0.159 HD
BRANCH  11  13
ATOM     13  C2  <0> d           0.002  -0.004   0.002  0.00  0.00    -0.011 C 
ATOM     14  H4  <0> d           0.512  -0.356  -0.895  0.00  0.00     0.063 H 
ATOM     15  H5  <0> d           0.529  -0.365   0.885  0.00  0.00     0.063 H 
BRANCH  13  16
ATOM     16  C1  <0> d          -0.019   1.526   0.010  0.00  0.00    -0.061 C 
ATOM     17  H1  <0> d           1.004   1.903   0.003  0.00  0.00     0.029 H 
ATOM     18  H2  <0> d          -0.546   1.887  -0.873  0.00  0.00     0.029 H 
ATOM     19  H3  <0> d          -0.529   1.877   0.907  0.00  0.00     0.029 H 
ENDBRANCH  13  16
ENDBRANCH  11  13
ENDBRANCH   1  11
TORSDOF 3
