REMARK  2 active torsions:
REMARK  status: ('A' for Active; 'I' for Inactive)
REMARK    1  A    between atoms: C3_3  and  C6_8 
REMARK    2  A    between atoms: C6_8  and  O2_9 
ROOT
ATOM      1  C1  <0> d          -0.017   1.378   0.010  0.00  0.00     0.018 A 
ATOM      2  C2  <0> d           0.002  -0.004   0.002  0.00  0.00     0.122 A 
ATOM      3  C3  <0> d          -1.221  -0.704   0.010  0.00  0.00     0.017 A 
ATOM      4  C4  <0> d          -2.385  -0.019   0.025  0.00  0.00    -0.009 A 
ATOM      5  N1  <0> d          -2.396   1.339   0.032  0.00  0.00    -0.333 N 
ATOM      6  C5  <0> d          -1.248   2.043   0.031  0.00  0.00     0.247 A 
ATOM      7  O1  <0> d          -1.282   3.264   0.038  0.00  0.00    -0.268 OA
ATOM      8  O3  <0> d           1.178  -0.676  -0.013  0.00  0.00    -0.191 OA
ATOM      9  H1  <0> d           0.907   1.938   0.004  0.00  0.00     0.096 H 
ATOM     10  H2  <0> d          -3.244   1.810   0.042  0.00  0.00     0.168 HD
ATOM     11  H3  <0> d          -3.321  -0.560   0.031  0.00  0.00     0.112 H 
ENDROOT
BRANCH   3  12
ATOM     12  C6  <0> d          -1.230  -2.210   0.001  0.00  0.00     0.044 C 
ATOM     13  H4  <0> d          -0.727  -2.572  -0.896  0.00  0.00     0.081 H 
ATOM     14  H5  <0> d          -0.710  -2.582   0.884  0.00  0.00     0.081 H 
BRANCH  12  15
ATOM     15  O2  <0> d          -2.580  -2.679   0.012  0.00  0.00    -0.396 OA
ATOM     16  H6  <0> d          -2.662  -3.642   0.007  0.00  0.00     0.209 HD
ENDBRANCH  12  15
ENDBRANCH   3  12
TORSDOF 2
