REMARK  3 active torsions:
REMARK  status: ('A' for Active; 'I' for Inactive)
REMARK    1  A    between atoms: C1_1  and  C2_2 
REMARK    2  A    between atoms: C2_2  and  C3_3 
REMARK    3  A    between atoms: C4_4  and  C7_11 
ROOT
ATOM      1  C3  <0> d           2.344   0.013  -0.021  0.00  0.00     0.034 A 
ATOM      2  C4  <0> d           1.183  -0.682  -0.013  0.00  0.00     0.043 A 
ATOM      3  N1  <0> d           0.002  -0.004   0.002  0.00  0.00    -0.248 NA
ATOM      4  H1  <0> d           1.044   3.138   0.008  0.00  0.00     0.169 HD
ATOM      5  C5  <0> d          -0.016   1.341   0.009  0.00  0.00     0.067 A 
ATOM      6  N2  <0> d           1.088   2.039   0.002  0.00  0.00    -0.318 N 
ATOM      7  C6  <0> d           2.286   1.429  -0.012  0.00  0.00     0.254 A 
ATOM      8  O1  <0> d           3.314   2.088  -0.019  0.00  0.00    -0.268 OA
ATOM      9  H7  <0> d          -0.889   1.829   0.020  0.00  0.00     0.143 H 
ENDROOT
BRANCH   1  10
ATOM     10  C2  <0> d           3.670  -0.703  -0.038  0.00  0.00    -0.037 C 
ATOM     11  H5  <0> d           3.571  -1.670   0.476  0.00  0.00     0.039 H 
ATOM     12  H6  <0> d           4.424  -0.090   0.477  0.00  0.00     0.039 H 
BRANCH  10  13
ATOM     13  C1  <0> d           4.104  -0.937  -1.486  0.00  0.00    -0.072 C 
ATOM     14  H2  <0> d           5.072  -1.460  -1.499  0.00  0.00     0.028 H 
ATOM     15  H3  <0> d           4.203   0.031  -2.000  0.00  0.00     0.028 H 
ATOM     16  H4  <0> d           3.350  -1.550  -2.001  0.00  0.00     0.028 H 
ENDBRANCH  10  13
ENDBRANCH   1  10
BRANCH   2  17
ATOM     17  C7  <0> d           1.197  -2.189  -0.022  0.00  0.00    -0.035 C 
ATOM     18  H8  <0> d           0.164  -2.566  -0.014  0.00  0.00     0.035 H 
ATOM     19  H9  <0> d           1.728  -2.556   0.870  0.00  0.00     0.035 H 
ATOM     20  H10 <0> d           1.711  -2.546  -0.927  0.00  0.00     0.035 H 
ENDBRANCH   2  17
TORSDOF 3
