REMARK  5 active torsions:
REMARK  status: ('A' for Active; 'I' for Inactive)
REMARK    1  A    between atoms: C1_1  and  C2_2 
REMARK    2  A    between atoms: C2_2  and  C5_6 
REMARK    3  A    between atoms: C5_6  and  O2_7 
REMARK    4  A    between atoms: O2_7  and  C6_8 
REMARK    5  A    between atoms: C6_8  and  C7_9 
ROOT
ATOM      1  C2  <0> d           0.002  -0.004   0.002  0.00  0.00     0.020 C 
ATOM      2  C3  <0> d          -1.273  -0.647   0.580  0.00  0.00     0.030 C 
ATOM      3  O1  <0> d          -0.572  -0.636   1.839  0.00  0.00    -0.389 OA
ATOM      4  C4  <0> d           0.727  -0.623   1.212  0.00  0.00     0.030 C 
ATOM      5  H4  <0> d          -2.146   0.006   0.556  0.00  0.00     0.075 H 
ATOM      6  H5  <0> d          -1.476  -1.647   0.196  0.00  0.00     0.075 H 
ATOM      7  H6  <0> d           1.135  -1.616   1.022  0.00  0.00     0.075 H 
ATOM      8  H7  <0> d           1.440   0.049   1.690  0.00  0.00     0.075 H 
ENDROOT
BRANCH   1   9
ATOM      9  C1  <0> d          -0.019   1.526   0.010  0.00  0.00    -0.063 C 
ATOM     10  H1  <0> d           1.004   1.903   0.003  0.00  0.00     0.028 H 
ATOM     11  H2  <0> d          -0.546   1.887  -0.873  0.00  0.00     0.028 H 
ATOM     12  H3  <0> d          -0.529   1.877   0.907  0.00  0.00     0.028 H 
ENDBRANCH   1   9
BRANCH   1  13
ATOM     13  C5  <0> d           0.437  -0.589  -1.343  0.00  0.00     0.030 C 
ATOM     14  H8  <0> d           1.496  -0.387  -1.502  0.00  0.00     0.075 H 
ATOM     15  H9  <0> d           0.268  -1.665  -1.343  0.00  0.00     0.075 H 
BRANCH  13  16
ATOM     16  O2  <0> d          -0.325   0.012  -2.392  0.00  0.00    -0.387 OA
BRANCH  16  17
ATOM     17  C6  <0> d           0.004  -0.466  -3.698  0.00  0.00     0.034 C 
ATOM     18  H10 <0> d           1.054  -0.262  -3.905  0.00  0.00     0.080 H 
ATOM     19  H11 <0> d          -0.173  -1.541  -3.746  0.00  0.00     0.080 H 
BRANCH  17  20
ATOM     20  C7  <0> d          -0.855   0.231  -4.720  0.00  0.00    -0.090 C 
ATOM     21  C8  <0> d          -0.318   0.695  -5.822  0.00  0.00    -0.123 C 
ATOM     22  H13 <0> d           0.742   0.577  -5.996  0.00  0.00     0.066 H 
ATOM     23  H14 <0> d          -0.933   1.195  -6.554  0.00  0.00     0.066 H 
ATOM     24  H12 <0> d          -1.915   0.349  -4.545  0.00  0.00     0.078 H 
ENDBRANCH  17  20
ENDBRANCH  16  17
ENDBRANCH  13  16
ENDBRANCH   1  13
TORSDOF 5
