REMARK  8 active torsions:
REMARK  status: ('A' for Active; 'I' for Inactive)
REMARK    1  A    between atoms: C1_1  and  C2_2 
REMARK    2  A    between atoms: C2_2  and  O1_3 
REMARK    3  A    between atoms: O1_3  and  C3_4 
REMARK    4  A    between atoms: C3_4  and  C4_6 
REMARK    5  A    between atoms: C4_6  and  C5_8 
REMARK    6  A    between atoms: C4_6  and  C6_9 
REMARK    7  A    between atoms: C6_9  and  C7_10 
REMARK    8  A    between atoms: C7_10  and  C9_12 
ROOT
ATOM      1  C4  <0> d          -2.881  -2.427   0.017  0.00  0.00     0.030 C 
ATOM      2  H1  <0> d          -3.409  -2.103   0.913  0.00  0.00     0.055 H 
ENDROOT
BRANCH   1   3
ATOM      3  C3  <0> d          -1.496  -1.832   0.006  0.00  0.00     0.262 C 
ATOM      4  O2  <0> d          -0.528  -2.555  -0.007  0.00  0.00    -0.265 OA
BRANCH   3   5
ATOM      5  O1  <0> d          -1.339  -0.499   0.012  0.00  0.00    -0.322 OA
BRANCH   5   6
ATOM      6  C2  <0> d           0.002  -0.004   0.002  0.00  0.00     0.025 C 
ATOM      7  H5  <0> d           0.512  -0.356  -0.895  0.00  0.00     0.074 H 
ATOM      8  H6  <0> d           0.529  -0.365   0.885  0.00  0.00     0.074 H 
BRANCH   6   9
ATOM      9  C1  <0> d          -0.019   1.526   0.010  0.00  0.00    -0.056 C 
ATOM     10  H2  <0> d           1.004   1.903   0.003  0.00  0.00     0.030 H 
ATOM     11  H3  <0> d          -0.546   1.887  -0.873  0.00  0.00     0.030 H 
ATOM     12  H4  <0> d          -0.529   1.877   0.907  0.00  0.00     0.030 H 
ENDBRANCH   6   9
ENDBRANCH   5   6
ENDBRANCH   3   5
ENDBRANCH   1   3
BRANCH   1  13
ATOM     13  C5  <0> d          -3.646  -1.958  -1.223  0.00  0.00    -0.064 C 
ATOM     14  H7  <0> d          -3.718  -0.871  -1.216  0.00  0.00     0.028 H 
ATOM     15  H8  <0> d          -3.118  -2.282  -2.120  0.00  0.00     0.028 H 
ATOM     16  H9  <0> d          -4.648  -2.389  -1.216  0.00  0.00     0.028 H 
ENDBRANCH   1  13
BRANCH   1  17
ATOM     17  C6  <0> d          -2.780  -3.953   0.007  0.00  0.00    -0.034 C 
ATOM     18  H10 <0> d          -2.332  -4.282  -0.930  0.00  0.00     0.040 H 
ATOM     19  H11 <0> d          -2.160  -4.281   0.842  0.00  0.00     0.040 H 
BRANCH  17  20
ATOM     20  C7  <0> d          -4.158  -4.548   0.141  0.00  0.00    -0.092 C 
ATOM     21  C8  <0> d          -4.827  -4.898  -0.929  0.00  0.00    -0.119 C 
ATOM     22  H12 <0> d          -5.815  -5.325  -0.833  0.00  0.00     0.067 H 
ATOM     23  H13 <0> d          -4.391  -4.760  -1.908  0.00  0.00     0.067 H 
BRANCH  20  24
ATOM     24  C9  <0> d          -4.766  -4.741   1.506  0.00  0.00    -0.055 C 
ATOM     25  H14 <0> d          -4.067  -4.395   2.268  0.00  0.00     0.033 H 
ATOM     26  H15 <0> d          -5.692  -4.169   1.576  0.00  0.00     0.033 H 
ATOM     27  H16 <0> d          -4.980  -5.798   1.663  0.00  0.00     0.033 H 
ENDBRANCH  20  24
ENDBRANCH  17  20
ENDBRANCH   1  17
TORSDOF 8
