REMARK  0 active torsions:
REMARK  status: ('A' for Active; 'I' for Inactive)
ROOT
ATOM      1  C1  <0> d           0.002  -0.004   0.002  0.00  0.00     0.016 A 
ATOM      2  C2  <0> d           1.313  -0.380  -0.013  0.00  0.00     0.153 A 
ATOM      3  N1  <0> d           2.063   0.751  -0.014  0.00  0.00    -0.232 NA
ATOM      4  C3  <0> d           1.272   1.785  -0.001  0.00  0.00     0.065 A 
ATOM      5  N2  <0> d          -0.016   1.357   0.009  0.00  0.00    -0.358 N 
ATOM      6  H1  <0> d          -0.976   1.894   0.022  0.00  0.00     0.166 HD
ATOM      7  C4  <0> d           1.809  -1.723  -0.025  0.00  0.00     0.121 C 
ATOM      8  N3  <0> d           2.202  -2.789  -0.035  0.00  0.00    -0.190 NA
ATOM      9  H2  <0> d          -0.856  -0.660   0.006  0.00  0.00     0.116 H 
ATOM     10  H3  <0> d           1.590   2.818   0.002  0.00  0.00     0.143 H 
ENDROOT
TORSDOF 0
