REMARK  2 active torsions:
REMARK  status: ('A' for Active; 'I' for Inactive)
REMARK    1  A    between atoms: C3_3  and  C9_10 
REMARK    2  A    between atoms: C9_10  and  O2_11 
ROOT
ATOM      1  C1  <0> d          -0.017   1.375   0.010  0.00  0.00    -0.080 A 
ATOM      2  C2  <0> d           1.167   2.090   0.002  0.00  0.00    -0.074 A 
ATOM      3  C3  <0> d           2.376   1.417  -0.017  0.00  0.00    -0.026 A 
ATOM      4  C4  <0> d           2.397   0.040  -0.028  0.00  0.00    -0.014 A 
ATOM      5  C5  <0> d           1.215  -0.689  -0.013  0.00  0.00     0.075 A 
ATOM      6  C6  <0> d           0.002  -0.004   0.002  0.00  0.00    -0.050 A 
ATOM      7  O1  <0> d           1.462  -2.028  -0.004  0.00  0.00    -0.350 OA
ATOM      8  C7  <0> d           2.805  -2.265  -0.458  0.00  0.00     0.030 C 
ATOM      9  C8  <0> d           3.536  -0.961  -0.060  0.00  0.00    -0.018 C 
ATOM     10  H1  <0> d          -0.961   1.899   0.026  0.00  0.00     0.083 H 
ATOM     11  H2  <0> d           1.148   3.170   0.012  0.00  0.00     0.084 H 
ATOM     12  H3  <0> d          -0.927  -0.555   0.007  0.00  0.00     0.087 H 
ATOM     13  H4  <0> d           3.240  -3.123   0.054  0.00  0.00     0.075 H 
ATOM     14  H5  <0> d           2.828  -2.406  -1.539  0.00  0.00     0.075 H 
ATOM     15  H6  <0> d           4.276  -0.684  -0.810  0.00  0.00     0.043 H 
ATOM     16  H7  <0> d           3.997  -1.057   0.923  0.00  0.00     0.043 H 
ENDROOT
BRANCH   3  17
ATOM     17  C9  <0> d           3.669   2.191  -0.027  0.00  0.00     0.041 C 
ATOM     18  H8  <0> d           4.255   1.930   0.854  0.00  0.00     0.081 H 
ATOM     19  H9  <0> d           4.234   1.943  -0.926  0.00  0.00     0.081 H 
BRANCH  17  20
ATOM     20  O2  <0> d           3.386   3.591  -0.014  0.00  0.00    -0.396 OA
ATOM     21  H10 <0> d           4.174   4.152  -0.019  0.00  0.00     0.209 HD
ENDBRANCH  17  20
ENDBRANCH   3  17
TORSDOF 2
