REMARK  4 active torsions:
REMARK  status: ('A' for Active; 'I' for Inactive)
REMARK    1  A    between atoms: C1_1  and  C2_2 
REMARK    2  A    between atoms: C4_4  and  C8_9 
REMARK    3  A    between atoms: C5_5  and  C7_8 
REMARK    4  A    between atoms: N1_6  and  C6_7 
ROOT
ATOM      1  C2  <0> d          -0.088   1.820   2.405  0.00  0.00     0.008 A 
ATOM      2  C3  <0> d          -1.010   2.234   3.290  0.00  0.00    -0.043 A 
ATOM      3  C4  <0> d          -2.296   2.225   2.583  0.00  0.00     0.065 A 
ATOM      4  C5  <0> d          -2.020   1.801   1.300  0.00  0.00     0.024 A 
ATOM      5  N1  <0> d          -0.698   1.558   1.213  0.00  0.00    -0.358 N 
ATOM      6  H4  <0> d          -0.840   2.517   4.319  0.00  0.00     0.088 H 
ENDROOT
BRANCH   1   7
ATOM      7  C1  <0> d           1.386   1.670   2.683  0.00  0.00    -0.037 C 
ATOM      8  H1  <0> d           1.896   2.607   2.458  0.00  0.00     0.035 H 
ATOM      9  H2  <0> d           1.533   1.420   3.734  0.00  0.00     0.035 H 
ATOM     10  H3  <0> d           1.794   0.875   2.060  0.00  0.00     0.035 H 
ENDBRANCH   1   7
BRANCH   5  11
ATOM     11  C6  <0> d          -0.013   1.086   0.008  0.00  0.00    -0.014 C 
ATOM     12  H5  <0> d           0.002  -0.004   0.002  0.00  0.00     0.057 H 
ATOM     13  H6  <0> d           1.010   1.463   0.000  0.00  0.00     0.057 H 
ATOM     14  H7  <0> d          -0.540   1.447  -0.875  0.00  0.00     0.057 H 
ENDBRANCH   5  11
BRANCH   4  15
ATOM     15  C7  <0> d          -3.024   1.635   0.189  0.00  0.00    -0.036 C 
ATOM     16  H8  <0> d          -3.426   0.622   0.211  0.00  0.00     0.035 H 
ATOM     17  H9  <0> d          -3.835   2.350   0.323  0.00  0.00     0.035 H 
ATOM     18  H10 <0> d          -2.537   1.811  -0.770  0.00  0.00     0.035 H 
ENDBRANCH   4  15
BRANCH   3  19
ATOM     19  C8  <0> d          -3.610   2.599   3.128  0.00  0.00     0.211 C 
ATOM     20  O1  <0> d          -4.599   2.543   2.424  0.00  0.00    -0.644 OA
ATOM     21  O2  <0> d          -3.718   3.002   4.410  0.00  0.00    -0.644 OA
ENDBRANCH   3  19
TORSDOF 4
