REMARK  4 active torsions:
REMARK  status: ('A' for Active; 'I' for Inactive)
REMARK    1  A    between atoms: C1_1  and  C2_2 
REMARK    2  A    between atoms: C2_2  and  O2_4 
REMARK    3  A    between atoms: O2_4  and  C3_5 
REMARK    4  A    between atoms: C3_5  and  C4_6 
ROOT
ATOM      1  C4  <0> d          -2.442  -2.712   0.011  0.00  0.00    -0.034 A 
ATOM      2  C5  <0> d          -3.067  -2.986   1.212  0.00  0.00    -0.075 A 
ATOM      3  C6  <0> d          -4.337  -3.531   1.222  0.00  0.00    -0.082 A 
ATOM      4  C7  <0> d          -4.982  -3.803   0.029  0.00  0.00    -0.083 A 
ATOM      5  C8  <0> d          -4.356  -3.528  -1.173  0.00  0.00    -0.082 A 
ATOM      6  C9  <0> d          -3.088  -2.978  -1.182  0.00  0.00    -0.075 A 
ATOM      7  H6  <0> d          -2.564  -2.774   2.144  0.00  0.00     0.084 H 
ATOM      8  H7  <0> d          -4.826  -3.746   2.161  0.00  0.00     0.083 H 
ATOM      9  H8  <0> d          -5.974  -4.230   0.036  0.00  0.00     0.083 H 
ATOM     10  H9  <0> d          -4.860  -3.740  -2.104  0.00  0.00     0.083 H 
ATOM     11  H10 <0> d          -2.601  -2.760  -2.120  0.00  0.00     0.084 H 
ENDROOT
BRANCH   1  12
ATOM     12  C3  <0> d          -1.057  -2.117   0.001  0.00  0.00     0.052 C 
ATOM     13  H4  <0> d          -0.529  -2.441  -0.896  0.00  0.00     0.082 H 
ATOM     14  H5  <0> d          -0.512  -2.450   0.884  0.00  0.00     0.082 H 
BRANCH  12  15
ATOM     15  O2  <0> d          -1.151  -0.691   0.009  0.00  0.00    -0.317 OA
BRANCH  15  16
ATOM     16  C2  <0> d           0.002  -0.004   0.002  0.00  0.00     0.255 C 
ATOM     17  O1  <0> d           1.056  -0.594  -0.011  0.00  0.00    -0.266 OA
BRANCH  16  18
ATOM     18  C1  <0> d          -0.018   1.503   0.010  0.00  0.00     0.004 C 
ATOM     19  H1  <0> d           1.004   1.880   0.003  0.00  0.00     0.041 H 
ATOM     20  H2  <0> d          -0.545   1.864  -0.873  0.00  0.00     0.041 H 
ATOM     21  H3  <0> d          -0.529   1.854   0.907  0.00  0.00     0.041 H 
ENDBRANCH  16  18
ENDBRANCH  15  16
ENDBRANCH  12  15
ENDBRANCH   1  12
TORSDOF 4
