REMARK  1 active torsions:
REMARK  status: ('A' for Active; 'I' for Inactive)
REMARK    1  A    between atoms: C4_5  and  S1_7 
ROOT
ATOM      1  C1  <0> d           1.174   1.794   0.001  0.00  0.00    -0.079 A 
ATOM      2  C2  <0> d          -0.013   1.076   0.008  0.00  0.00    -0.066 A 
ATOM      3  C3  <0> d          -1.214   1.759   0.017  0.00  0.00     0.004 A 
ATOM      4  N1  <0> d          -1.239   3.078   0.030  0.00  0.00    -0.247 NA
ATOM      5  C4  <0> d          -0.132   3.793   0.024  0.00  0.00     0.172 A 
ATOM      6  C5  <0> d           1.107   3.179   0.009  0.00  0.00    -0.041 A 
ATOM      7  H1  <0> d           2.127   1.287  -0.011  0.00  0.00     0.083 H 
ATOM      8  H2  <0> d           0.002  -0.004   0.002  0.00  0.00     0.085 H 
ATOM      9  H3  <0> d          -2.142   1.207   0.018  0.00  0.00     0.114 H 
ATOM     10  H4  <0> d           2.010   3.770   0.004  0.00  0.00     0.088 H 
ENDROOT
BRANCH   5  11
ATOM     11  S1  <0> d          -0.231   5.552   0.034  0.00  0.00     0.156 S 
ATOM     12  O1  <0> d          -1.492   5.885   0.599  0.00  0.00    -0.590 OA
ATOM     13  O2  <0> d           0.995   6.025   0.575  0.00  0.00    -0.590 OA
ATOM     14  O3  <0> d          -0.271   6.009  -1.418  0.00  0.00    -0.590 OA
ENDBRANCH   5  11
TORSDOF 1
