REMARK  3 active torsions:
REMARK  status: ('A' for Active; 'I' for Inactive)
REMARK    1  A    between atoms: C1_1  and  C2_2 
REMARK    2  A    between atoms: C6_6  and  C7_8 
REMARK    3  A    between atoms: C7_8  and  C8_9 
ROOT
ATOM      1  C2  <0> d           0.002  -0.004   0.002  0.00  0.00     0.031 A 
ATOM      2  C3  <0> d           0.005  -0.681  -1.203  0.00  0.00    -0.059 A 
ATOM      3  C4  <0> d           0.024  -2.067  -1.200  0.00  0.00    -0.079 A 
ATOM      4  C5  <0> d           0.039  -2.724   0.021  0.00  0.00    -0.059 A 
ATOM      5  C6  <0> d           0.035  -1.980   1.186  0.00  0.00     0.044 A 
ATOM      6  N1  <0> d           0.022  -0.662   1.145  0.00  0.00    -0.258 NA
ATOM      7  H4  <0> d          -0.007  -0.136  -2.136  0.00  0.00     0.086 H 
ATOM      8  H5  <0> d           0.027  -2.622  -2.126  0.00  0.00     0.083 H 
ATOM      9  H6  <0> d           0.054  -3.803   0.062  0.00  0.00     0.086 H 
ENDROOT
BRANCH   5  10
ATOM     10  C7  <0> d           0.050  -2.683   2.519  0.00  0.00     0.056 C 
ATOM     11  H7  <0> d          -0.881  -2.481   3.047  0.00  0.00     0.058 H 
ATOM     12  H8  <0> d           0.154  -3.757   2.362  0.00  0.00     0.058 H 
BRANCH  10  13
ATOM     13  C8  <0> d           1.212  -2.181   3.338  0.00  0.00     0.178 C 
ATOM     14  O1  <0> d           1.957  -1.331   2.882  0.00  0.00    -0.648 OA
ATOM     15  O2  <0> d           1.405  -2.625   4.457  0.00  0.00    -0.648 OA
ENDBRANCH  10  13
ENDBRANCH   5  10
BRANCH   1  16
ATOM     16  C1  <0> d          -0.018   1.503   0.010  0.00  0.00    -0.035 C 
ATOM     17  H1  <0> d           1.004   1.880   0.003  0.00  0.00     0.035 H 
ATOM     18  H2  <0> d          -0.545   1.864  -0.873  0.00  0.00     0.035 H 
ATOM     19  H3  <0> d          -0.529   1.854   0.907  0.00  0.00     0.035 H 
ENDBRANCH   1  16
TORSDOF 3
