REMARK  3 active torsions:
REMARK  status: ('A' for Active; 'I' for Inactive)
REMARK    1  A    between atoms: C1_1  and  C2_2 
REMARK    2  A    between atoms: C6_6  and  S1_8 
REMARK    3  A    between atoms: S1_8  and  C8_9 
ROOT
ATOM      1  C2  <0> d           0.490   0.747   5.174  0.00  0.00    -0.061 A 
ATOM      2  C3  <0> d           1.607  -0.021   4.900  0.00  0.00    -0.077 A 
ATOM      3  C4  <0> d           1.972  -0.274   3.590  0.00  0.00    -0.081 A 
ATOM      4  C5  <0> d           1.218   0.236   2.551  0.00  0.00    -0.067 A 
ATOM      5  C6  <0> d           0.099   1.013   2.823  0.00  0.00     0.000 A 
ATOM      6  C7  <0> d          -0.265   1.264   4.141  0.00  0.00    -0.061 A 
ATOM      7  H4  <0> d           2.195  -0.425   5.710  0.00  0.00     0.084 H 
ATOM      8  H5  <0> d           2.844  -0.875   3.380  0.00  0.00     0.083 H 
ATOM      9  H6  <0> d           1.502   0.035   1.528  0.00  0.00     0.085 H 
ATOM     10  H7  <0> d          -1.137   1.864   4.356  0.00  0.00     0.086 H 
ENDROOT
BRANCH   5  11
ATOM     11  S1  <0> d          -0.862   1.671   1.500  0.00  0.00    -0.134 SA
BRANCH  11  12
ATOM     12  C8  <0> d          -0.013   1.086   0.008  0.00  0.00    -0.030 C 
ATOM     13  H8  <0> d           0.002  -0.004   0.002  0.00  0.00     0.042 H 
ATOM     14  H9  <0> d           1.010   1.463   0.000  0.00  0.00     0.042 H 
ATOM     15  H10 <0> d          -0.540   1.447  -0.875  0.00  0.00     0.042 H 
ENDBRANCH  11  12
ENDBRANCH   5  11
BRANCH   1  16
ATOM     16  C1  <0> d           0.096   1.019   6.603  0.00  0.00    -0.051 C 
ATOM     17  H1  <0> d          -0.581   0.238   6.949  0.00  0.00     0.033 H 
ATOM     18  H2  <0> d           0.988   1.031   7.230  0.00  0.00     0.033 H 
ATOM     19  H3  <0> d          -0.404   1.986   6.665  0.00  0.00     0.033 H 
ENDBRANCH   1  16
TORSDOF 3
