REMARK  3 active torsions:
REMARK  status: ('A' for Active; 'I' for Inactive)
REMARK    1  A    between atoms: C2_2  and  C3_3 
REMARK    2  A    between atoms: C7_8  and  C8_10 
REMARK    3  A    between atoms: C8_10  and  C9_11 
ROOT
ATOM      1  C3  <0> d           2.774   5.079   0.129  0.00  0.00    -0.035 C 
ATOM      2  H1  <0> d           3.356   5.348   1.010  0.00  0.00     0.046 H 
ATOM      3  C4  <0> d           3.472   5.598  -1.145  0.00  0.00    -0.058 C 
ATOM      4  C5  <0> d           4.291   4.384  -1.650  0.00  0.00    -0.064 C 
ATOM      5  C6  <0> d           3.350   3.190  -1.355  0.00  0.00    -0.061 C 
ATOM      6  C7  <0> d           2.696   3.548  -0.005  0.00  0.00    -0.038 C 
ATOM      7  H2  <0> d           3.240   3.074   0.812  0.00  0.00     0.041 H 
ATOM      8  H6  <0> d           2.734   5.896  -1.890  0.00  0.00     0.034 H 
ATOM      9  H7  <0> d           4.131   6.432  -0.906  0.00  0.00     0.034 H 
ATOM     10  H8  <0> d           4.486   4.467  -2.719  0.00  0.00     0.033 H 
ATOM     11  H9  <0> d           5.225   4.290  -1.095  0.00  0.00     0.033 H 
ATOM     12  H10 <0> d           3.922   2.266  -1.269  0.00  0.00     0.033 H 
ATOM     13  H11 <0> d           2.593   3.100  -2.134  0.00  0.00     0.033 H 
ENDROOT
BRANCH   6  14
ATOM     14  C8  <0> d           1.235   3.094   0.007  0.00  0.00     0.020 C 
ATOM     15  H12 <0> d           0.727   3.482  -0.876  0.00  0.00     0.049 H 
ATOM     16  H13 <0> d           0.744   3.473   0.904  0.00  0.00     0.049 H 
BRANCH  14  17
ATOM     17  C9  <0> d           1.177   1.588  -0.001  0.00  0.00     0.172 C 
ATOM     18  O1  <0> d           2.199   0.944  -0.014  0.00  0.00    -0.648 OA
ATOM     19  O2  <0> d          -0.011   0.963   0.007  0.00  0.00    -0.648 OA
ENDBRANCH  14  17
ENDBRANCH   6  14
BRANCH   1  20
ATOM     20  C2  <0> d           1.387   5.659   0.231  0.00  0.00    -0.108 C 
ATOM     21  C1  <0> d           1.040   6.345   1.292  0.00  0.00    -0.124 C 
ATOM     22  H3  <0> d           1.748   6.495   2.093  0.00  0.00     0.066 H 
ATOM     23  H4  <0> d           0.046   6.761   1.365  0.00  0.00     0.066 H 
ATOM     24  H5  <0> d           0.678   5.509  -0.570  0.00  0.00     0.076 H 
ENDBRANCH   1  20
TORSDOF 3
