REMARK  3 active torsions:
REMARK  status: ('A' for Active; 'I' for Inactive)
REMARK    1  A    between atoms: C1_1  and  C2_2 
REMARK    2  A    between atoms: C2_2  and  C3_3 
REMARK    3  A    between atoms: C5_6  and  N3_9 
ROOT
ATOM      1  C3  <0> d           0.731  -0.503   1.223  0.00  0.00     0.125 A 
ATOM      2  N1  <0> d           2.033  -0.693   1.157  0.00  0.00    -0.243 NA
ATOM      3  C4  <0> d           2.710  -1.131   2.206  0.00  0.00     0.031 A 
ATOM      4  C5  <0> d           2.025  -1.390   3.391  0.00  0.00     0.061 A 
ATOM      5  C6  <0> d           0.649  -1.176   3.418  0.00  0.00     0.031 A 
ATOM      6  N2  <0> d           0.048  -0.732   2.327  0.00  0.00    -0.243 NA
ATOM      7  H6  <0> d           3.777  -1.284   2.145  0.00  0.00     0.118 H 
ATOM      8  H7  <0> d           0.083  -1.365   4.317  0.00  0.00     0.118 H 
ENDROOT
BRANCH   1   9
ATOM      9  C2  <0> d           0.002  -0.004   0.002  0.00  0.00    -0.011 C 
ATOM     10  H4  <0> d          -1.020  -0.381   0.010  0.00  0.00     0.044 H 
ATOM     11  H5  <0> d           0.512  -0.356  -0.895  0.00  0.00     0.044 H 
BRANCH   9  12
ATOM     12  C1  <0> d          -0.019   1.526   0.010  0.00  0.00    -0.070 C 
ATOM     13  H1  <0> d           1.004   1.903   0.003  0.00  0.00     0.028 H 
ATOM     14  H2  <0> d          -0.546   1.887  -0.873  0.00  0.00     0.028 H 
ATOM     15  H3  <0> d          -0.529   1.877   0.907  0.00  0.00     0.028 H 
ENDBRANCH   9  12
ENDBRANCH   1   9
BRANCH   4  16
ATOM     16  N3  <0> d           2.701  -1.853   4.523  0.00  0.00    -0.397 N 
ATOM     17  H8  <0> d           3.660  -1.998   4.490  0.00  0.00     0.156 HD
ATOM     18  H9  <0> d           2.212  -2.030   5.342  0.00  0.00     0.156 HD
ENDBRANCH   4  16
TORSDOF 3
