REMARK  1 active torsions:
REMARK  status: ('A' for Active; 'I' for Inactive)
REMARK    1  A    between atoms: C2_2  and  C4_6 
ROOT
ATOM      1  C1  <0> d          -0.021   1.676   0.011  0.00  0.00    -0.009 A 
ATOM      2  C2  <0> d           1.325   1.990   0.000  0.00  0.00     0.139 A 
ATOM      3  N1  <0> d           2.164   0.948  -0.013  0.00  0.00    -0.247 NA
ATOM      4  C3  <0> d           1.661  -0.255  -0.015  0.00  0.00     0.041 A 
ATOM      5  S1  <0> d           0.002  -0.004   0.002  0.00  0.00    -0.092 SA
ATOM      6  H1  <0> d          -0.871   2.341   0.027  0.00  0.00     0.099 H 
ATOM      7  H2  <0> d           2.191  -1.196  -0.026  0.00  0.00     0.126 H 
ENDROOT
BRANCH   2   8
ATOM      8  C4  <0> d           1.803   3.378   0.003  0.00  0.00     0.229 C 
ATOM      9  O1  <0> d           1.000   4.302   0.015  0.00  0.00    -0.643 OA
ATOM     10  O2  <0> d           3.004   3.612  -0.008  0.00  0.00    -0.643 OA
ENDBRANCH   2   8
TORSDOF 1
