REMARK  3 active torsions:
REMARK  status: ('A' for Active; 'I' for Inactive)
REMARK    1  A    between atoms: C1_1  and  C2_2 
REMARK    2  A    between atoms: C2_2  and  C3_3 
REMARK    3  A    between atoms: C5_8  and  N3_12 
ROOT
ATOM      1  C3  <0> d          -1.412  -0.526   0.013  0.00  0.00     0.050 A 
ATOM      2  C4  <0> d          -2.104  -0.674   1.210  0.00  0.00     0.204 A 
ATOM      3  O1  <0> d          -1.522  -0.355   2.374  0.00  0.00    -0.171 OA
ATOM      4  N1  <0> d          -3.368  -1.143   1.186  0.00  0.00    -0.167 N 
ATOM      5  H1  <0> d          -3.857  -1.249   2.017  0.00  0.00     0.186 HD
ATOM      6  C5  <0> d          -3.953  -1.462   0.032  0.00  0.00     0.680 A 
ATOM      7  N2  <0> d          -3.316  -1.331  -1.131  0.00  0.00    -0.167 N 
ATOM      8  C6  <0> d          -2.053  -0.863  -1.175  0.00  0.00     0.204 A 
ATOM      9  O2  <0> d          -1.420  -0.728  -2.349  0.00  0.00    -0.171 OA
ATOM     10  H9  <0> d          -3.768  -1.571  -1.955  0.00  0.00     0.186 HD
ENDROOT
BRANCH   1  11
ATOM     11  C2  <0> d           0.002  -0.004   0.002  0.00  0.00    -0.036 C 
ATOM     12  H5  <0> d           0.512  -0.356  -0.895  0.00  0.00     0.040 H 
ATOM     13  H6  <0> d           0.529  -0.365   0.885  0.00  0.00     0.040 H 
BRANCH  11  14
ATOM     14  C1  <0> d          -0.019   1.526   0.010  0.00  0.00    -0.072 C 
ATOM     15  H2  <0> d           1.004   1.903   0.003  0.00  0.00     0.028 H 
ATOM     16  H3  <0> d          -0.546   1.887  -0.873  0.00  0.00     0.028 H 
ATOM     17  H4  <0> d          -0.529   1.877   0.907  0.00  0.00     0.028 H 
ENDBRANCH  11  14
ENDBRANCH   1  11
BRANCH   6  18
ATOM     18  N3  <0> d          -5.236  -1.936   0.042  0.00  0.00    -0.234 N 
ATOM     19  H7  <0> d          -5.710  -2.036   0.882  0.00  0.00     0.174 HD
ATOM     20  H8  <0> d          -5.672  -2.171  -0.792  0.00  0.00     0.174 HD
ENDBRANCH   6  18
TORSDOF 3
