REMARK  3 active torsions:
REMARK  status: ('A' for Active; 'I' for Inactive)
REMARK    1  A    between atoms: C1_1  and  C2_2 
REMARK    2  A    between atoms: C2_2  and  O1_3 
REMARK    3  A    between atoms: O1_3  and  C3_4 
ROOT
ATOM      1  C3  <0> d          -1.226   1.751   0.017  0.00  0.00     0.070 A 
ATOM      2  C4  <0> d          -0.013   1.076   0.008  0.00  0.00    -0.051 A 
ATOM      3  C5  <0> d           1.177   1.781   0.000  0.00  0.00    -0.079 A 
ATOM      4  C6  <0> d           1.166   3.161   0.007  0.00  0.00    -0.063 A 
ATOM      5  C7  <0> d          -0.049   3.849   0.022  0.00  0.00     0.047 A 
ATOM      6  C8  <0> d          -1.249   3.135   0.030  0.00  0.00    -0.031 A 
ATOM      7  C9  <0> d          -0.064   5.280   0.028  0.00  0.00     0.099 C 
ATOM      8  N1  <0> d          -0.076   6.416   0.033  0.00  0.00    -0.191 NA
ATOM      9  H6  <0> d           0.002  -0.004   0.002  0.00  0.00     0.087 H 
ATOM     10  H7  <0> d           2.117   1.250  -0.011  0.00  0.00     0.083 H 
ATOM     11  H8  <0> d           2.097   3.708   0.000  0.00  0.00     0.085 H 
ATOM     12  H9  <0> d          -2.192   3.662   0.041  0.00  0.00     0.090 H 
ENDROOT
BRANCH   1  13
ATOM     13  O1  <0> d          -2.392   1.053   0.020  0.00  0.00    -0.351 OA
BRANCH  13  14
ATOM     14  C2  <0> d          -2.294  -0.373   0.012  0.00  0.00     0.023 C 
ATOM     15  H4  <0> d          -1.761  -0.696  -0.882  0.00  0.00     0.074 H 
ATOM     16  H5  <0> d          -1.752  -0.705   0.897  0.00  0.00     0.074 H 
BRANCH  14  17
ATOM     17  C1  <0> d          -3.698  -0.981   0.016  0.00  0.00    -0.056 C 
ATOM     18  H1  <0> d          -4.231  -0.658   0.910  0.00  0.00     0.030 H 
ATOM     19  H2  <0> d          -4.240  -0.649  -0.870  0.00  0.00     0.030 H 
ATOM     20  H3  <0> d          -3.624  -2.068   0.010  0.00  0.00     0.030 H 
ENDBRANCH  14  17
ENDBRANCH  13  14
ENDBRANCH   1  13
TORSDOF 3
