REMARK  2 active torsions:
REMARK  status: ('A' for Active; 'I' for Inactive)
REMARK    1  A    between atoms: C1_1  and  N1_2 
REMARK       I    between atoms: N1_2  and  C2_3 
REMARK    2  A    between atoms: C2_3  and  C3_5 
ROOT
ATOM      1  C3  <0> d          -1.299   1.931   0.019  0.00  0.00     0.038 A 
ATOM      2  C4  <0> d          -2.556   1.225   0.015  0.00  0.00    -0.061 A 
ATOM      3  C5  <0> d          -3.678   1.972   0.031  0.00  0.00    -0.044 A 
ATOM      4  S1  <0> d          -3.053   3.639   0.036  0.00  0.00    -0.113 SA
ATOM      5  C6  <0> d          -1.353   3.309   0.026  0.00  0.00    -0.030 A 
ATOM      6  H5  <0> d          -2.597   0.146   0.005  0.00  0.00     0.085 H 
ATOM      7  H6  <0> d          -4.705   1.639   0.034  0.00  0.00     0.095 H 
ATOM      8  H7  <0> d          -0.534   4.012   0.025  0.00  0.00     0.096 H 
ENDROOT
BRANCH   1   9
ATOM      9  C2  <0> d          -0.014   1.212   0.009  0.00  0.00     0.251 C 
ATOM     10  N1  <0> d           1.143   1.902   0.001  0.00  0.00    -0.361 N 
ATOM     11  H4  <0> d           1.130   2.872   0.007  0.00  0.00     0.162 HD
ATOM     12  O1  <0> d           0.002  -0.004   0.002  0.00  0.00    -0.268 OA
BRANCH  10  13
ATOM     13  C1  <0> d           2.422   1.187  -0.015  0.00  0.00    -0.018 C 
ATOM     14  H1  <0> d           2.497   0.556   0.871  0.00  0.00     0.056 H 
ATOM     15  H2  <0> d           2.480   0.566  -0.909  0.00  0.00     0.056 H 
ATOM     16  H3  <0> d           3.241   1.906  -0.019  0.00  0.00     0.056 H 
ENDBRANCH  10  13
ENDBRANCH   1   9
TORSDOF 2
