REMARK  6 active torsions:
REMARK  status: ('A' for Active; 'I' for Inactive)
REMARK    1  A    between atoms: C1_1  and  O1_2 
REMARK    2  A    between atoms: O1_2  and  C2_3 
REMARK    3  A    between atoms: C2_3  and  C3_4 
REMARK    4  A    between atoms: C4_5  and  C5_6 
REMARK    5  A    between atoms: C5_6  and  O2_7 
REMARK    6  A    between atoms: O2_7  and  C6_8 
ROOT
ATOM      1  C3  <0> d          -1.379  -0.514   0.013  0.00  0.00    -0.078 C 
ATOM      2  C4  <0> d          -2.480  -0.920   0.021  0.00  0.00    -0.078 C 
ENDROOT
BRANCH   1   3
ATOM      3  C2  <0> d           0.002  -0.004   0.002  0.00  0.00     0.073 C 
ATOM      4  H4  <0> d           0.512  -0.356  -0.895  0.00  0.00     0.093 H 
ATOM      5  H5  <0> d           0.529  -0.365   0.885  0.00  0.00     0.093 H 
BRANCH   3   6
ATOM      6  O1  <0> d          -0.017   1.425   0.010  0.00  0.00    -0.384 OA
BRANCH   6   7
ATOM      7  C1  <0> d           1.280   2.024   0.001  0.00  0.00     0.005 C 
ATOM      8  H1  <0> d           1.834   1.705   0.884  0.00  0.00     0.066 H 
ATOM      9  H2  <0> d           1.817   1.714  -0.896  0.00  0.00     0.066 H 
ATOM     10  H3  <0> d           1.179   3.109   0.007  0.00  0.00     0.066 H 
ENDBRANCH   6   7
ENDBRANCH   3   6
ENDBRANCH   1   3
BRANCH   2  11
ATOM     11  C5  <0> d          -3.861  -1.429   0.031  0.00  0.00     0.073 C 
ATOM     12  H6  <0> d          -4.372  -1.078   0.928  0.00  0.00     0.093 H 
ATOM     13  H7  <0> d          -4.388  -1.068  -0.852  0.00  0.00     0.093 H 
BRANCH  11  14
ATOM     14  O2  <0> d          -3.842  -2.858   0.023  0.00  0.00    -0.384 OA
BRANCH  14  15
ATOM     15  C6  <0> d          -5.139  -3.457   0.033  0.00  0.00     0.005 C 
ATOM     16  H8  <0> d          -5.676  -3.148   0.929  0.00  0.00     0.066 H 
ATOM     17  H9  <0> d          -5.693  -3.138  -0.851  0.00  0.00     0.066 H 
ATOM     18  H10 <0> d          -5.038  -4.543   0.026  0.00  0.00     0.066 H 
ENDBRANCH  14  15
ENDBRANCH  11  14
ENDBRANCH   2  11
TORSDOF 6
