REMARK  1 active torsions:
REMARK  status: ('A' for Active; 'I' for Inactive)
REMARK    1  A    between atoms: C1_1  and  C2_2 
ROOT
ATOM      1  C2  <0> d           1.159   3.521   0.010  0.00  0.00    -0.056 A 
ATOM      2  C3  <0> d          -0.071   4.159   0.025  0.00  0.00    -0.039 A 
ATOM      3  C4  <0> d          -1.238   3.392   0.032  0.00  0.00     0.138 A 
ATOM      4  N1  <0> d          -1.178   2.068   0.019  0.00  0.00    -0.227 NA
ATOM      5  C5  <0> d          -0.017   1.428   0.010  0.00  0.00     0.138 A 
ATOM      6  C6  <0> d           1.187   2.135   0.002  0.00  0.00    -0.039 A 
ATOM      7  C7  <0> d           0.002  -0.004   0.002  0.00  0.00     0.119 C 
ATOM      8  N2  <0> d           0.018  -1.140  -0.004  0.00  0.00    -0.190 NA
ATOM      9  C8  <0> d          -2.514   4.042   0.048  0.00  0.00     0.119 C 
ATOM     10  N3  <0> d          -3.526   4.559   0.060  0.00  0.00    -0.190 NA
ATOM     11  H4  <0> d          -0.127   5.237   0.032  0.00  0.00     0.088 H 
ATOM     12  H5  <0> d           2.130   1.609  -0.009  0.00  0.00     0.088 H 
ENDROOT
BRANCH   1  13
ATOM     13  C1  <0> d           2.438   4.316   0.003  0.00  0.00    -0.051 C 
ATOM     14  H1  <0> d           2.737   4.514  -1.027  0.00  0.00     0.033 H 
ATOM     15  H2  <0> d           2.281   5.261   0.523  0.00  0.00     0.033 H 
ATOM     16  H3  <0> d           3.221   3.750   0.506  0.00  0.00     0.033 H 
ENDBRANCH   1  13
TORSDOF 1
