REMARK  4 active torsions:
REMARK  status: ('A' for Active; 'I' for Inactive)
REMARK    1  A    between atoms: C1_1  and  C2_2 
REMARK    2  A    between atoms: C2_2  and  C3_3 
REMARK    3  A    between atoms: C3_3  and  O1_4 
REMARK    4  A    between atoms: O1_4  and  C4_5 
REMARK       I    between atoms: C4_5  and  N1_7 
ROOT
ATOM      1  C4  <0> d          -0.016   1.342   0.009  0.00  0.00     0.362 C 
ATOM      2  O2  <0> d           1.028   1.964   0.003  0.00  0.00    -0.238 OA
ATOM      3  N1  <0> d          -1.192   2.000   0.019  0.00  0.00    -0.328 N 
ATOM      4  C5  <0> d          -2.523   1.376   0.015  0.00  0.00    -0.000 C 
ATOM      5  C6  <0> d          -3.564   2.515   0.004  0.00  0.00    -0.049 C 
ATOM      6  C7  <0> d          -2.762   3.709  -0.578  0.00  0.00    -0.049 C 
ATOM      7  C8  <0> d          -1.357   3.465   0.027  0.00  0.00    -0.000 C 
ATOM      8  H8  <0> d          -2.631   0.746  -0.880  0.00  0.00     0.064 H 
ATOM      9  H9  <0> d          -2.640   0.755   0.916  0.00  0.00     0.064 H 
ATOM     10  H10 <0> d          -4.416   2.228  -0.630  0.00  0.00     0.035 H 
ATOM     11  H11 <0> d          -3.916   2.700   1.029  0.00  0.00     0.035 H 
ATOM     12  H12 <0> d          -2.777   3.660  -1.677  0.00  0.00     0.035 H 
ATOM     13  H13 <0> d          -3.219   4.654  -0.247  0.00  0.00     0.035 H 
ATOM     14  H14 <0> d          -1.289   3.836   1.061  0.00  0.00     0.064 H 
ATOM     15  H15 <0> d          -0.566   3.927  -0.581  0.00  0.00     0.064 H 
ENDROOT
BRANCH   1  16
ATOM     16  O1  <0> d           0.002  -0.004   0.002  0.00  0.00    -0.304 OA
BRANCH  16  17
ATOM     17  C3  <0> d           1.305  -0.646  -0.014  0.00  0.00     0.030 C 
ATOM     18  H6  <0> d           1.871  -0.347   0.880  0.00  0.00     0.075 H 
ATOM     19  H7  <0> d           1.854  -0.338  -0.916  0.00  0.00     0.075 H 
BRANCH  17  20
ATOM     20  C2  <0> d           1.125  -2.165  -0.020  0.00  0.00    -0.048 C 
ATOM     21  H4  <0> d           0.558  -2.463  -0.915  0.00  0.00     0.035 H 
ATOM     22  H5  <0> d           0.575  -2.473   0.881  0.00  0.00     0.035 H 
BRANCH  20  23
ATOM     23  C1  <0> d           2.497  -2.841  -0.037  0.00  0.00    -0.075 C 
ATOM     24  H1  <0> d           2.368  -3.933  -0.042  0.00  0.00     0.027 H 
ATOM     25  H2  <0> d           3.064  -2.542   0.857  0.00  0.00     0.027 H 
ATOM     26  H3  <0> d           3.047  -2.533  -0.939  0.00  0.00     0.027 H 
ENDBRANCH  20  23
ENDBRANCH  17  20
ENDBRANCH  16  17
ENDBRANCH   1  16
TORSDOF 4
