REMARK  4 active torsions:
REMARK  status: ('A' for Active; 'I' for Inactive)
REMARK    1  A    between atoms: C1_1  and  C2_2 
REMARK    2  A    between atoms: C2_2  and  C3_4 
REMARK    3  A    between atoms: C2_2  and  O1_12 
REMARK    4  A    between atoms: C4_5  and  C5_6 
ROOT
ATOM      1  C5  <0> d           2.403   0.034  -0.021  0.00  0.00     0.017 A 
ATOM      2  C6  <0> d           1.204  -0.681  -0.013  0.00  0.00    -0.065 A 
ATOM      3  C7  <0> d           0.002  -0.004   0.002  0.00  0.00    -0.082 A 
ATOM      4  C8  <0> d          -0.017   1.379   0.010  0.00  0.00    -0.083 A 
ATOM      5  C9  <0> d           1.168   2.093   0.002  0.00  0.00    -0.082 A 
ATOM      6  C10 <0> d           2.377   1.429  -0.013  0.00  0.00    -0.065 A 
ATOM      7  H5  <0> d           1.218  -1.760  -0.019  0.00  0.00     0.085 H 
ATOM      8  H6  <0> d          -0.926  -0.556   0.008  0.00  0.00     0.083 H 
ATOM      9  H7  <0> d          -0.961   1.904   0.017  0.00  0.00     0.083 H 
ATOM     10  H8  <0> d           1.147   3.173   0.008  0.00  0.00     0.083 H 
ATOM     11  H9  <0> d           3.302   1.987  -0.019  0.00  0.00     0.085 H 
ENDROOT
BRANCH   1  12
ATOM     12  C4  <0> d           3.655  -0.662  -0.036  0.00  0.00    -0.064 C 
ATOM     13  C3  <0> d           4.681  -1.233  -0.049  0.00  0.00    -0.070 C 
BRANCH  13  14
ATOM     14  C2  <0> d           5.967  -1.948  -0.064  0.00  0.00     0.090 C 
ATOM     15  H1  <0> d           6.043  -2.578   0.822  0.00  0.00     0.102 H 
BRANCH  14  16
ATOM     16  C1  <0> d           6.051  -2.820  -1.319  0.00  0.00    -0.043 C 
ATOM     17  H2  <0> d           5.974  -2.190  -2.205  0.00  0.00     0.032 H 
ATOM     18  H3  <0> d           7.003  -3.350  -1.330  0.00  0.00     0.032 H 
ATOM     19  H4  <0> d           5.234  -3.542  -1.315  0.00  0.00     0.032 H 
ENDBRANCH  14  16
BRANCH  14  20
ATOM     20  O1  <0> d           7.038  -1.002  -0.070  0.00  0.00    -0.384 OA
ATOM     21  H10 <0> d           7.033  -0.407  -0.832  0.00  0.00     0.211 HD
ENDBRANCH  14  20
ENDBRANCH  13  14
ENDBRANCH   1  12
TORSDOF 4
