REMARK  4 active torsions:
REMARK  status: ('A' for Active; 'I' for Inactive)
REMARK    1  A    between atoms: C1_1  and  C2_2 
REMARK    2  A    between atoms: C2_2  and  N1_3 
REMARK    3  A    between atoms: N1_3  and  C3_4 
REMARK    4  A    between atoms: C6_7  and  O1_10 
ROOT
ATOM      1  C3  <0> d           1.214  -0.681  -0.013  0.00  0.00     0.028 A 
ATOM      2  C4  <0> d           0.002  -0.004   0.002  0.00  0.00    -0.055 A 
ATOM      3  C5  <0> d          -0.017   1.377   0.010  0.00  0.00    -0.049 A 
ATOM      4  C6  <0> d           1.175   2.087   0.002  0.00  0.00     0.065 A 
ATOM      5  C7  <0> d           2.386   1.411  -0.013  0.00  0.00    -0.049 A 
ATOM      6  C8  <0> d           2.406   0.030  -0.021  0.00  0.00    -0.055 A 
ATOM      7  H7  <0> d          -0.926  -0.557   0.008  0.00  0.00     0.087 H 
ATOM      8  H8  <0> d          -0.959   1.904   0.017  0.00  0.00     0.087 H 
ATOM      9  H9  <0> d           3.313   1.965  -0.019  0.00  0.00     0.087 H 
ATOM     10  H10 <0> d           3.349  -0.496  -0.032  0.00  0.00     0.087 H 
ENDROOT
BRANCH   1  11
ATOM     11  N1  <0> d           1.234  -2.081  -0.021  0.00  0.00    -0.390 N 
ATOM     12  H6  <0> d           0.289  -2.644  -0.014  0.00  0.00     0.159 HD
BRANCH  11  13
ATOM     13  C2  <0> d           2.513  -2.795  -0.037  0.00  0.00    -0.011 C 
ATOM     14  H4  <0> d           3.095  -2.526   0.857  0.00  0.00     0.063 H 
ATOM     15  H5  <0> d           3.077  -2.517  -0.939  0.00  0.00     0.063 H 
BRANCH  13  16
ATOM     16  C1  <0> d           2.255  -4.303  -0.042  0.00  0.00    -0.061 C 
ATOM     17  H1  <0> d           3.215  -4.839  -0.054  0.00  0.00     0.029 H 
ATOM     18  H2  <0> d           1.673  -4.573  -0.935  0.00  0.00     0.029 H 
ATOM     19  H3  <0> d           1.691  -4.582   0.861  0.00  0.00     0.029 H 
ENDBRANCH  13  16
ENDBRANCH  11  13
ENDBRANCH   1  11
BRANCH   4  20
ATOM     20  O1  <0> d           1.155   3.447   0.009  0.00  0.00    -0.361 OA
ATOM     21  H11 <0> d           2.100   4.010   0.003  0.00  0.00     0.217 HD
ENDBRANCH   4  20
TORSDOF 4
