REMARK  2 active torsions:
REMARK  status: ('A' for Active; 'I' for Inactive)
REMARK    1  A    between atoms: C1_1  and  N1_2 
REMARK    2  A    between atoms: C3_5  and  N4_9 
ROOT
ATOM      1  N1  <0> d           0.002  -0.004   0.002  0.00  0.00    -0.334 N 
ATOM      2  C2  <0> d           0.008  -0.797  -1.085  0.00  0.00     0.069 A 
ATOM      3  N2  <0> d           0.027  -2.051  -0.715  0.00  0.00    -0.219 NA
ATOM      4  C3  <0> d           0.033  -2.130   0.621  0.00  0.00     0.225 A 
ATOM      5  C4  <0> d           0.024  -0.834   1.114  0.00  0.00     0.168 A 
ATOM      6  C5  <0> d           0.032  -0.434   2.489  0.00  0.00     0.122 C 
ATOM      7  N3  <0> d           0.038  -0.116   3.579  0.00  0.00    -0.190 NA
ATOM      8  H4  <0> d          -0.001  -0.451  -2.108  0.00  0.00     0.143 H 
ENDROOT
BRANCH   1   9
ATOM      9  C1  <0> d          -0.018   1.461   0.010  0.00  0.00    -0.012 C 
ATOM     10  H1  <0> d           1.005   1.838   0.002  0.00  0.00     0.057 H 
ATOM     11  H2  <0> d          -0.545   1.822  -0.873  0.00  0.00     0.057 H 
ATOM     12  H3  <0> d          -0.528   1.812   0.907  0.00  0.00     0.057 H 
ENDBRANCH   1   9
BRANCH   4  13
ATOM     13  N4  <0> d           0.052  -3.297   1.376  0.00  0.00    -0.036 N 
ATOM     14  O2  <0> d           0.070  -4.713   1.417  0.00  0.00    -0.053 OA
ATOM     15  O1  <0> d           0.059  -3.915   2.651  0.00  0.00    -0.053 OA
ENDBRANCH   4  13
TORSDOF 2
