REMARK  5 active torsions:
REMARK  status: ('A' for Active; 'I' for Inactive)
REMARK    1  A    between atoms: C1_1  and  C2_2 
REMARK    2  A    between atoms: C2_2  and  C3_3 
REMARK    3  A    between atoms: C2_2  and  C4_4 
REMARK    4  A    between atoms: C2_2  and  S1_5 
REMARK    5  A    between atoms: S1_5  and  N1_7 
ROOT
ATOM      1  C2  <0> d           1.768  -0.419  -0.017  0.00  0.00     0.046 C 
ENDROOT
BRANCH   1   2
ATOM      2  C1  <0> d           2.441   0.160   1.229  0.00  0.00    -0.057 C 
ATOM      3  H1  <0> d           1.978  -0.262   2.121  0.00  0.00     0.029 H 
ATOM      4  H2  <0> d           3.502  -0.089   1.218  0.00  0.00     0.029 H 
ATOM      5  H3  <0> d           2.323   1.243   1.236  0.00  0.00     0.029 H 
ENDBRANCH   1   2
BRANCH   1   6
ATOM      6  C3  <0> d           1.934  -1.940  -0.027  0.00  0.00    -0.057 C 
ATOM      7  H4  <0> d           1.455  -2.352  -0.914  0.00  0.00     0.029 H 
ATOM      8  H5  <0> d           2.995  -2.189  -0.038  0.00  0.00     0.029 H 
ATOM      9  H6  <0> d           1.472  -2.362   0.865  0.00  0.00     0.029 H 
ENDBRANCH   1   6
BRANCH   1  10
ATOM     10  C4  <0> d           2.417   0.173  -1.269  0.00  0.00    -0.057 C 
ATOM     11  H7  <0> d           2.299   1.257  -1.262  0.00  0.00     0.029 H 
ATOM     12  H8  <0> d           3.478  -0.076  -1.281  0.00  0.00     0.029 H 
ATOM     13  H9  <0> d           1.938  -0.239  -2.157  0.00  0.00     0.029 H 
ENDBRANCH   1  10
BRANCH   1  14
ATOM     14  S1  <0> d           0.002  -0.004   0.002  0.00  0.00     0.116 S 
ATOM     15  O1  <0> d          -0.555  -0.362   1.259  0.00  0.00    -0.235 OA
BRANCH  14  16
ATOM     16  N1  <0> d          -0.020   1.652   0.011  0.00  0.00    -0.349 N 
ATOM     17  H10 <0> d           0.813   2.148   0.006  0.00  0.00     0.166 HD
ATOM     18  H11 <0> d          -0.867   2.125   0.018  0.00  0.00     0.166 HD
ENDBRANCH  14  16
ENDBRANCH   1  14
TORSDOF 5
