REMARK  2 active torsions:
REMARK  status: ('A' for Active; 'I' for Inactive)
REMARK    1  A    between atoms: C1_1  and  N1_2 
REMARK    2  A    between atoms: N1_2  and  C2_3 
ROOT
ATOM      1  C2  <0> d           0.604  -0.685  -1.050  0.00  0.00     0.051 A 
ATOM      2  C3  <0> d           1.191   0.019  -2.092  0.00  0.00    -0.056 A 
ATOM      3  C4  <0> d           1.789  -0.658  -3.137  0.00  0.00    -0.078 A 
ATOM      4  C5  <0> d           1.808  -2.042  -3.156  0.00  0.00    -0.044 A 
ATOM      5  C6  <0> d           1.229  -2.762  -2.129  0.00  0.00     0.139 A 
ATOM      6  C7  <0> d           0.625  -2.089  -1.061  0.00  0.00     0.109 A 
ATOM      7  C8  <0> d           0.027  -2.828   0.010  0.00  0.00     0.105 C 
ATOM      8  N2  <0> d          -0.447  -3.413   0.861  0.00  0.00    -0.191 NA
ATOM      9  F1  <0> d           1.251  -4.113  -2.154  0.00  0.00    -0.204 F 
ATOM     10  H5  <0> d           1.181   1.099  -2.086  0.00  0.00     0.087 H 
ATOM     11  H6  <0> d           2.244  -0.104  -3.944  0.00  0.00     0.083 H 
ATOM     12  H7  <0> d           2.278  -2.562  -3.978  0.00  0.00     0.088 H 
ENDROOT
BRANCH   1  13
ATOM     13  N1  <0> d           0.002  -0.004   0.002  0.00  0.00    -0.393 N 
ATOM     14  H4  <0> d          -0.404  -0.499   0.731  0.00  0.00     0.159 HD
BRANCH  13  15
ATOM     15  C1  <0> d          -0.018   1.461   0.010  0.00  0.00    -0.021 C 
ATOM     16  H1  <0> d           1.005   1.838   0.002  0.00  0.00     0.056 H 
ATOM     17  H2  <0> d          -0.545   1.822  -0.873  0.00  0.00     0.056 H 
ATOM     18  H3  <0> d          -0.528   1.812   0.907  0.00  0.00     0.056 H 
ENDBRANCH  13  15
ENDBRANCH   1  13
TORSDOF 2
