REMARK  2 active torsions:
REMARK  status: ('A' for Active; 'I' for Inactive)
REMARK    1  A    between atoms: C2_2  and  C3_3 
REMARK    2  A    between atoms: C3_3  and  N1_4 
ROOT
ATOM      1  C1  <0> d           0.018  -1.178  -0.004  0.00  0.00    -0.152 C 
ATOM      2  C2  <0> d           0.002  -0.004   0.002  0.00  0.00    -0.087 C 
ATOM      3  H1  <0> d           0.033  -2.278  -0.010  0.00  0.00     0.166 H 
ENDROOT
BRANCH   2   4
ATOM      4  C3  <0> d          -0.018   1.468   0.010  0.00  0.00     0.166 C 
ATOM      5  H2  <0> d           1.014   1.849   0.002  0.00  0.00     0.099 H 
ATOM      6  H3  <0> d          -0.550   1.832  -0.881  0.00  0.00     0.099 H 
BRANCH   4   7
ATOM      7  N1  <0> d          -0.706   1.942   1.219  0.00  0.00     0.099 N 
ATOM      8  C7  <0> d          -0.539   3.402   1.385  0.00  0.00     0.115 C 
ATOM      9  C6  <0> d          -0.465   3.678   2.898  0.00  0.00    -0.038 C 
ATOM     10  H10 <0> d           0.386   3.725   0.885  0.00  0.00     0.079 H 
ATOM     11  H11 <0> d          -1.399   3.922   0.937  0.00  0.00     0.079 H 
ATOM     12  C5  <0> d          -0.567   2.289   3.568  0.00  0.00    -0.038 C 
ATOM     13  H8  <0> d          -1.300   4.310   3.236  0.00  0.00     0.035 H 
ATOM     14  H9  <0> d           0.489   4.151   3.177  0.00  0.00     0.035 H 
ATOM     15  C4  <0> d          -0.123   1.326   2.438  0.00  0.00     0.115 C 
ATOM     16  H6  <0> d          -1.593   2.042   3.878  0.00  0.00     0.035 H 
ATOM     17  H7  <0> d           0.111   2.183   4.428  0.00  0.00     0.035 H 
ATOM     18  H4  <0> d          -0.528   0.311   2.567  0.00  0.00     0.079 H 
ATOM     19  H5  <0> d           0.971   1.274   2.336  0.00  0.00     0.079 H 
ENDBRANCH   4   7
ENDBRANCH   2   4
TORSDOF 2
