REMARK  2 active torsions:
REMARK  status: ('A' for Active; 'I' for Inactive)
REMARK    1  A    between atoms: C4_4  and  C7_7 
REMARK    2  A    between atoms: C7_7  and  C8_9 
ROOT
ATOM      1  C8  <0> d          -1.293  -0.775   0.010  0.00  0.00     0.074 C 
ATOM      2  C9  <0> d          -1.004  -2.219  -0.000  0.00  0.00     0.067 C 
ATOM      3  N1  <0> d          -0.781  -3.333  -0.008  0.00  0.00    -0.197 NA
ATOM      4  H6  <0> d          -1.812  -0.545   0.833  0.00  0.00     0.067 H 
ATOM      5  H7  <0> d          -1.876  -0.515  -0.873  0.00  0.00     0.067 H 
ENDROOT
BRANCH   1   6
ATOM      6  C7  <0> d           0.002  -0.004   0.002  0.00  0.00     0.172 C 
ATOM      7  O1  <0> d           1.060  -0.596  -0.011  0.00  0.00    -0.291 OA
BRANCH   6   8
ATOM      8  C4  <0> d          -0.018   1.467   0.010  0.00  0.00     0.011 A 
ATOM      9  C3  <0> d           1.181   2.187   0.003  0.00  0.00    -0.070 A 
ATOM     10  C2  <0> d           1.154   3.565   0.010  0.00  0.00    -0.082 A 
ATOM     11  H3  <0> d           2.126   1.664  -0.009  0.00  0.00     0.085 H 
ATOM     12  C1  <0> d          -0.056   4.237   0.025  0.00  0.00    -0.083 A 
ATOM     13  H2  <0> d           2.080   4.122   0.004  0.00  0.00     0.083 H 
ATOM     14  C6  <0> d          -1.247   3.533   0.032  0.00  0.00    -0.082 A 
ATOM     15  H1  <0> d          -0.070   5.317   0.031  0.00  0.00     0.083 H 
ATOM     16  C5  <0> d          -1.236   2.154   0.020  0.00  0.00    -0.070 A 
ATOM     17  H5  <0> d          -2.187   4.064   0.043  0.00  0.00     0.083 H 
ATOM     18  H4  <0> d          -2.167   1.605   0.021  0.00  0.00     0.085 H 
ENDBRANCH   6   8
ENDBRANCH   1   6
TORSDOF 2
