REMARK  0 active torsions:
REMARK  status: ('A' for Active; 'I' for Inactive)
ROOT
ATOM      1  C1  <0> d          -0.016   1.355   0.009  0.00  0.00    -0.036 A 
ATOM      2  C2  <0> d           0.002  -0.004   0.002  0.00  0.00    -0.021 A 
ATOM      3  N1  <0> d          -1.106  -0.734   0.009  0.00  0.00    -0.373 N 
ATOM      4  C3  <0> d          -2.312  -0.220   0.024  0.00  0.00     0.008 A 
ATOM      5  C4  <0> d          -2.474   1.175   0.033  0.00  0.00     0.124 A 
ATOM      6  C5  <0> d          -1.261   2.012   0.031  0.00  0.00     0.111 A 
ATOM      7  N2  <0> d          -1.708   3.253   0.043  0.00  0.00    -0.155 NA
ATOM      8  N3  <0> d          -2.996   3.233   0.061  0.00  0.00    -0.196 N 
ATOM      9  N4  <0> d          -3.476   2.038   0.047  0.00  0.00    -0.154 NA
ATOM     10  H1  <0> d           0.905   1.919   0.004  0.00  0.00     0.089 H 
ATOM     11  H2  <0> d           0.956  -0.510  -0.011  0.00  0.00     0.111 H 
ATOM     12  H3  <0> d          -3.177  -0.866   0.029  0.00  0.00     0.115 H 
ATOM     13  H4  <0> d          -1.019  -1.700   0.003  0.00  0.00     0.164 HD
ATOM     14  H5  <0> d          -3.545   4.032   0.074  0.00  0.00     0.213 HD
ENDROOT
TORSDOF 0
