REMARK  2 active torsions:
REMARK  status: ('A' for Active; 'I' for Inactive)
REMARK    1  A    between atoms: C1_1  and  C2_2 
REMARK    2  A    between atoms: C2_2  and  O1_7 
ROOT
ATOM      1  C2  <0> d           0.002  -0.004   0.002  0.00  0.00     0.125 A 
ATOM      2  C3  <0> d          -0.825  -0.728   1.066  0.00  0.00     0.033 A 
ATOM      3  C4  <0> d           0.701  -0.708   1.167  0.00  0.00     0.276 A 
ATOM      4  F1  <0> d           1.383  -1.897   0.888  0.00  0.00    -0.203 F 
ATOM      5  F2  <0> d           1.273   0.097   2.158  0.00  0.00    -0.203 F 
ATOM      6  H4  <0> d          -1.384  -0.114   1.773  0.00  0.00     0.046 H 
ATOM      7  H5  <0> d          -1.298  -1.668   0.783  0.00  0.00     0.046 H 
ENDROOT
BRANCH   1   8
ATOM      8  C1  <0> d          -0.019   1.526   0.010  0.00  0.00    -0.042 C 
ATOM      9  H1  <0> d           1.004   1.903   0.003  0.00  0.00     0.031 H 
ATOM     10  H2  <0> d          -0.546   1.887  -0.873  0.00  0.00     0.031 H 
ATOM     11  H3  <0> d          -0.529   1.877   0.907  0.00  0.00     0.031 H 
ENDBRANCH   1   8
BRANCH   1  12
ATOM     12  O1  <0> d           0.096  -0.612  -1.288  0.00  0.00    -0.384 OA
ATOM     13  H6  <0> d          -0.365  -0.127  -1.986  0.00  0.00     0.210 HD
ENDBRANCH   1  12
TORSDOF 2
