REMARK  4 active torsions:
REMARK  status: ('A' for Active; 'I' for Inactive)
REMARK    1  A    between atoms: C1_1  and  C2_2 
REMARK    2  A    between atoms: C1_1  and  C4_9 
REMARK    3  A    between atoms: C2_2  and  C3_4 
REMARK    4  A    between atoms: C2_2  and  O1_8 
REMARK       I    between atoms: C4_9  and  N1_11 
ROOT
ATOM      1  C1  <0> d          -1.208   3.131   0.025  0.00  0.00     0.041 C 
ATOM      2  H2  <0> d          -0.695   3.496   0.914  0.00  0.00     0.051 H 
ATOM      3  H3  <0> d          -0.703   3.506  -0.866  0.00  0.00     0.051 H 
ENDROOT
BRANCH   1   4
ATOM      4  C2  <0> d          -2.657   3.621   0.034  0.00  0.00     0.137 C 
ATOM      5  H1  <0> d          -3.186   3.175   0.876  0.00  0.00     0.097 H 
BRANCH   4   6
ATOM      6  C3  <0> d          -2.679   5.145   0.168  0.00  0.00     0.413 C 
ATOM      7  F1  <0> d          -2.000   5.718  -0.912  0.00  0.00    -0.168 F 
ATOM      8  F2  <0> d          -4.004   5.593   0.177  0.00  0.00    -0.168 F 
ATOM      9  F3  <0> d          -2.053   5.517   1.363  0.00  0.00    -0.168 F 
ENDBRANCH   4   6
BRANCH   4  10
ATOM     10  O1  <0> d          -3.296   3.241  -1.186  0.00  0.00    -0.386 OA
ATOM     11  H4  <0> d          -2.878   3.603  -1.979  0.00  0.00     0.210 HD
ENDBRANCH   4  10
ENDBRANCH   1   4
BRANCH   1  12
ATOM     12  C4  <0> d          -1.187   1.624   0.017  0.00  0.00     0.218 C 
ATOM     13  O2  <0> d          -2.229   1.003   0.018  0.00  0.00    -0.274 OA
ATOM     14  N1  <0> d          -0.011   0.966   0.007  0.00  0.00    -0.370 N 
ATOM     15  H5  <0> d           0.002  -0.004   0.002  0.00  0.00     0.159 HD
ATOM     16  H6  <0> d           0.822   1.462   0.002  0.00  0.00     0.159 HD
ENDBRANCH   1  12
TORSDOF 4
