REMARK  3 active torsions:
REMARK  status: ('A' for Active; 'I' for Inactive)
REMARK    1  A    between atoms: C1_1  and  C2_2 
REMARK    2  A    between atoms: C3_3  and  C6_9 
REMARK    3  A    between atoms: C4_5  and  C5_8 
ROOT
ATOM      1  C2  <0> d           2.075   0.653  -0.014  0.00  0.00     0.031 A 
ATOM      2  C3  <0> d           1.274  -0.429  -0.012  0.00  0.00     0.054 A 
ATOM      3  N1  <0> d           0.002  -0.004   0.002  0.00  0.00    -0.239 NA
ATOM      4  C4  <0> d          -0.016   1.301   0.009  0.00  0.00     0.100 A 
ATOM      5  N2  <0> d           1.258   1.751  -0.001  0.00  0.00    -0.347 N 
ATOM      6  H1  <0> d           1.549   2.708   0.002  0.00  0.00     0.167 HD
ENDROOT
BRANCH   1   7
ATOM      7  C1  <0> d           3.582   0.656  -0.029  0.00  0.00    -0.036 C 
ATOM      8  H2  <0> d           3.935   0.662  -1.060  0.00  0.00     0.035 H 
ATOM      9  H3  <0> d           3.949   1.544   0.486  0.00  0.00     0.035 H 
ATOM     10  H4  <0> d           3.952  -0.236   0.476  0.00  0.00     0.035 H 
ENDBRANCH   1   7
BRANCH   2  11
ATOM     11  C6  <0> d           1.728  -1.866  -0.024  0.00  0.00    -0.034 C 
ATOM     12  H8  <0> d           1.827  -2.208  -1.054  0.00  0.00     0.035 H 
ATOM     13  H9  <0> d           2.690  -1.948   0.480  0.00  0.00     0.035 H 
ATOM     14  H10 <0> d           0.993  -2.483   0.493  0.00  0.00     0.035 H 
ENDBRANCH   2  11
BRANCH   4  15
ATOM     15  C5  <0> d          -1.252   2.162   0.020  0.00  0.00    -0.021 C 
ATOM     16  H5  <0> d          -1.545   2.365   1.050  0.00  0.00     0.037 H 
ATOM     17  H6  <0> d          -1.044   3.103  -0.490  0.00  0.00     0.037 H 
ATOM     18  H7  <0> d          -2.062   1.643  -0.492  0.00  0.00     0.037 H 
ENDBRANCH   4  15
TORSDOF 3
