REMARK  3 active torsions:
REMARK  status: ('A' for Active; 'I' for Inactive)
REMARK    1  A    between atoms: C3_3  and  N3_11 
REMARK    2  A    between atoms: C4_4  and  N2_7 
REMARK    3  A    between atoms: N2_7  and  C6_8 
ROOT
ATOM      1  C1  <0> d          -1.222   1.739   0.017  0.00  0.00    -0.064 A 
ATOM      2  C2  <0> d          -1.238   3.127   0.031  0.00  0.00    -0.053 A 
ATOM      3  C3  <0> d          -0.025   3.803   0.023  0.00  0.00     0.072 A 
ATOM      4  C4  <0> d           1.161   3.064   0.007  0.00  0.00     0.149 A 
ATOM      5  N1  <0> d           1.128   1.742   0.001  0.00  0.00    -0.241 NA
ATOM      6  C5  <0> d          -0.013   1.076   0.008  0.00  0.00     0.005 A 
ATOM      7  H1  <0> d          -2.148   1.183   0.018  0.00  0.00     0.085 H 
ATOM      8  H2  <0> d          -2.172   3.669   0.042  0.00  0.00     0.087 H 
ATOM      9  H3  <0> d           0.002  -0.004   0.002  0.00  0.00     0.114 H 
ENDROOT
BRANCH   4  10
ATOM     10  N2  <0> d           2.387   3.725  -0.000  0.00  0.00    -0.368 N 
ATOM     11  H4  <0> d           2.419   4.824   0.005  0.00  0.00     0.161 HD
BRANCH  10  12
ATOM     12  C6  <0> d           3.633   2.956  -0.016  0.00  0.00     0.011 A 
ATOM     13  C8  <0> d           4.876   3.635  -0.595  0.00  0.00    -0.044 A 
ATOM     14  C7  <0> d           4.758   3.414   0.915  0.00  0.00    -0.044 A 
ATOM     15  H8  <0> d           5.374   2.951  -1.298  0.00  0.00     0.036 H 
ATOM     16  H9  <0> d           4.578   4.552  -1.125  0.00  0.00     0.036 H 
ATOM     17  H6  <0> d           4.363   4.148   1.633  0.00  0.00     0.036 H 
ATOM     18  H7  <0> d           5.159   2.547   1.460  0.00  0.00     0.036 H 
ATOM     19  H5  <0> d           3.084   2.020  -0.196  0.00  0.00     0.072 H 
ENDBRANCH  10  12
ENDBRANCH   4  10
BRANCH   3  20
ATOM     20  N3  <0> d           0.009   5.202   0.030  0.00  0.00    -0.396 N 
ATOM     21  H10 <0> d           0.975   5.729   0.024  0.00  0.00     0.156 HD
ATOM     22  H11 <0> d          -0.930   5.776   0.043  0.00  0.00     0.156 HD
ENDBRANCH   3  20
TORSDOF 3
