REMARK  2 active torsions:
REMARK  status: ('A' for Active; 'I' for Inactive)
REMARK    1  A    between atoms: C1_1  and  C2_2 
REMARK    2  A    between atoms: C6_7  and  C8_11 
ROOT
ATOM      1  C2  <0> d           1.262   2.112   0.001  0.00  0.00     0.037 C 
ATOM      2  H1  <0> d           1.029   3.176   0.051  0.00  0.00     0.060 H 
ATOM      3  C3  <0> d          -0.016   1.318   0.009  0.00  0.00    -0.091 C 
ATOM      4  C4  <0> d           0.002  -0.004   0.002  0.00  0.00    -0.084 C 
ATOM      5  C5  <0> d           1.237  -0.775  -0.002  0.00  0.00    -0.062 C 
ATOM      6  C6  <0> d           2.316  -0.480  -0.699  0.00  0.00     0.008 C 
ATOM      7  N1  <0> d           2.463   0.590  -1.542  0.00  0.00    -0.331 N 
ATOM      8  C7  <0> d           2.021   1.823  -1.265  0.00  0.00     0.229 C 
ATOM      9  O1  <0> d           2.235   2.722  -2.050  0.00  0.00    -0.272 OA
ATOM     10  H5  <0> d          -0.963   1.836   0.017  0.00  0.00     0.078 H 
ATOM     11  H6  <0> d          -0.939  -0.534  -0.001  0.00  0.00     0.083 H 
ATOM     12  H7  <0> d           1.271  -1.660   0.616  0.00  0.00     0.086 H 
ATOM     13  H8  <0> d           2.916   0.447  -2.388  0.00  0.00     0.168 HD
ENDROOT
BRANCH   1  14
ATOM     14  C1  <0> d           2.115   1.720   1.209  0.00  0.00    -0.061 C 
ATOM     15  H2  <0> d           2.349   0.656   1.158  0.00  0.00     0.029 H 
ATOM     16  H3  <0> d           3.040   2.296   1.203  0.00  0.00     0.029 H 
ATOM     17  H4  <0> d           1.564   1.927   2.126  0.00  0.00     0.029 H 
ENDBRANCH   1  14
BRANCH   6  18
ATOM     18  C8  <0> d           3.496  -1.406  -0.557  0.00  0.00    -0.037 C 
ATOM     19  H9  <0> d           3.246  -2.208   0.137  0.00  0.00     0.035 H 
ATOM     20  H10 <0> d           3.744  -1.830  -1.530  0.00  0.00     0.035 H 
ATOM     21  H11 <0> d           4.351  -0.848  -0.174  0.00  0.00     0.035 H 
ENDBRANCH   6  18
TORSDOF 2
