REMARK  1 active torsions:
REMARK  status: ('A' for Active; 'I' for Inactive)
REMARK    1  A    between atoms: C4_5  and  C6_8 
REMARK       I    between atoms: C6_8  and  N2_10 
ROOT
ATOM      1  C1  <0> d          -4.848   0.783   0.029  0.00  0.00    -0.044 A 
ATOM      2  C2  <0> d          -4.756  -0.596   0.021  0.00  0.00     0.003 A 
ATOM      3  N1  <0> d          -3.583  -1.202   0.013  0.00  0.00    -0.272 NA
ATOM      4  C3  <0> d          -2.452  -0.527   0.005  0.00  0.00     0.019 A 
ATOM      5  C4  <0> d          -2.457   0.868   0.018  0.00  0.00     0.070 A 
ATOM      6  C5  <0> d          -3.687   1.540   0.028  0.00  0.00     0.052 A 
ATOM      7 Cl1  <0> d          -3.755   3.274   0.037  0.00  0.00    -0.083 Cl
ATOM      8  H1  <0> d          -5.814   1.266   0.037  0.00  0.00     0.088 H 
ATOM      9  H2  <0> d          -5.659  -1.189   0.023  0.00  0.00     0.114 H 
ATOM     10  H3  <0> d          -1.512  -1.059  -0.007  0.00  0.00     0.116 H 
ENDROOT
BRANCH   5  11
ATOM     11  C6  <0> d          -1.187   1.624   0.017  0.00  0.00     0.252 C 
ATOM     12  O1  <0> d          -1.204   2.839   0.023  0.00  0.00    -0.268 OA
ATOM     13  N2  <0> d          -0.011   0.966   0.007  0.00  0.00    -0.366 N 
ATOM     14  H4  <0> d           0.002  -0.004   0.002  0.00  0.00     0.159 HD
ATOM     15  H5  <0> d           0.822   1.462   0.002  0.00  0.00     0.159 HD
ENDBRANCH   5  11
TORSDOF 1
