REMARK  5 active torsions:
REMARK  status: ('A' for Active; 'I' for Inactive)
REMARK    1  A    between atoms: C1_1  and  C2_2 
REMARK    2  A    between atoms: C2_2  and  N1_3 
REMARK    3  A    between atoms: C3_4  and  C6_10 
REMARK    4  A    between atoms: C4_7  and  S1_8 
REMARK    5  A    between atoms: S1_8  and  C5_9 
ROOT
ATOM      1  N1  <0> d           0.711  -0.489   1.189  0.00  0.00    -0.312 N 
ATOM      2  C3  <0> d           2.050  -0.742   1.306  0.00  0.00     0.126 A 
ATOM      3  N2  <0> d           2.262  -1.156   2.523  0.00  0.00    -0.134 NA
ATOM      4  N3  <0> d           1.157  -1.182   3.179  0.00  0.00    -0.123 NA
ATOM      5  C4  <0> d           0.172  -0.778   2.410  0.00  0.00     0.191 A 
ENDROOT
BRANCH   1   6
ATOM      6  C2  <0> d           0.002  -0.004   0.002  0.00  0.00    -0.000 C 
ATOM      7  H4  <0> d          -1.020  -0.381   0.010  0.00  0.00     0.064 H 
ATOM      8  H5  <0> d           0.512  -0.356  -0.895  0.00  0.00     0.064 H 
BRANCH   6   9
ATOM      9  C1  <0> d          -0.019   1.526   0.010  0.00  0.00    -0.061 C 
ATOM     10  H1  <0> d           1.004   1.903   0.003  0.00  0.00     0.029 H 
ATOM     11  H2  <0> d          -0.546   1.887  -0.873  0.00  0.00     0.029 H 
ATOM     12  H3  <0> d          -0.529   1.877   0.907  0.00  0.00     0.029 H 
ENDBRANCH   6   9
ENDBRANCH   1   6
BRANCH   5  13
ATOM     13  S1  <0> d          -1.524  -0.637   2.867  0.00  0.00    -0.095 SA
BRANCH  13  14
ATOM     14  C5  <0> d          -1.557  -1.169   4.601  0.00  0.00    -0.027 C 
ATOM     15  H6  <0> d          -1.195  -2.194   4.674  0.00  0.00     0.042 H 
ATOM     16  H7  <0> d          -0.916  -0.515   5.193  0.00  0.00     0.042 H 
ATOM     17  H8  <0> d          -2.578  -1.115   4.978  0.00  0.00     0.042 H 
ENDBRANCH  13  14
ENDBRANCH   5  13
BRANCH   2  18
ATOM     18  C6  <0> d           3.088  -0.573   0.226  0.00  0.00    -0.019 C 
ATOM     19  H9  <0> d           3.494   0.437   0.268  0.00  0.00     0.037 H 
ATOM     20  H10 <0> d           3.890  -1.295   0.378  0.00  0.00     0.037 H 
ATOM     21  H11 <0> d           2.629  -0.740  -0.749  0.00  0.00     0.037 H 
ENDBRANCH   2  18
TORSDOF 5
