REMARK  1 active torsions:
REMARK  status: ('A' for Active; 'I' for Inactive)
REMARK    1  A    between atoms: C4_4  and  N1_7 
ROOT
ATOM      1  C1  <0> d           0.002  -0.004   0.002  0.00  0.00    -0.083 A 
ATOM      2  C2  <0> d          -0.017   1.379   0.010  0.00  0.00    -0.081 A 
ATOM      3  C3  <0> d           1.169   2.087   0.002  0.00  0.00    -0.053 A 
ATOM      4  C4  <0> d           2.381   1.409  -0.013  0.00  0.00     0.079 A 
ATOM      5  C5  <0> d           2.396   0.021  -0.020  0.00  0.00    -0.053 A 
ATOM      6  C6  <0> d           1.207  -0.682  -0.013  0.00  0.00    -0.081 A 
ATOM      7  H1  <0> d          -0.926  -0.556   0.008  0.00  0.00     0.083 H 
ATOM      8  H2  <0> d          -0.960   1.905   0.017  0.00  0.00     0.083 H 
ATOM      9  H3  <0> d           1.154   3.167   0.008  0.00  0.00     0.087 H 
ATOM     10  H4  <0> d           3.337  -0.509  -0.031  0.00  0.00     0.087 H 
ATOM     11  H5  <0> d           1.219  -1.762  -0.019  0.00  0.00     0.083 H 
ENDROOT
BRANCH   4  12
ATOM     12  N1  <0> d           3.586   2.125  -0.020  0.00  0.00    -0.152 N 
ATOM     13  N3  <0> d           3.674   3.408  -0.015  0.00  0.00    -0.161 NA
ATOM     14  C8  <0> d           4.944   3.744  -0.024  0.00  0.00     0.042 A 
ATOM     15  C7  <0> d           5.657   2.543  -0.037  0.00  0.00     0.042 A 
ATOM     16  H7  <0> d           5.353   4.744  -0.023  0.00  0.00     0.119 H 
ATOM     17  N2  <0> d           4.755   1.588  -0.028  0.00  0.00    -0.161 NA
ATOM     18  H6  <0> d           6.731   2.424  -0.047  0.00  0.00     0.119 H 
ENDBRANCH   4  12
TORSDOF 1
