REMARK  1 active torsions:
REMARK  status: ('A' for Active; 'I' for Inactive)
REMARK    1  A    between atoms: C1_1  and  C2_2 
ROOT
ATOM      1  C2  <0> d           1.240  -2.089  -0.021  0.00  0.00    -0.033 A 
ATOM      2  C3  <0> d           0.041  -2.736  -0.012  0.00  0.00     0.008 A 
ATOM      3  N1  <0> d          -1.109  -2.077   0.003  0.00  0.00    -0.272 NA
ATOM      4  C4  <0> d          -1.177  -0.766   0.010  0.00  0.00     0.013 A 
ATOM      5  C5  <0> d           0.002  -0.004   0.002  0.00  0.00    -0.008 A 
ATOM      6  C6  <0> d           1.249  -0.683  -0.013  0.00  0.00    -0.017 A 
ATOM      7  C7  <0> d           2.439   0.058  -0.021  0.00  0.00    -0.072 A 
ATOM      8  C8  <0> d           2.382   1.419  -0.013  0.00  0.00    -0.082 A 
ATOM      9  C9  <0> d           1.159   2.087   0.002  0.00  0.00    -0.082 A 
ATOM     10  C10 <0> d          -0.017   1.400   0.010  0.00  0.00    -0.071 A 
ATOM     11  H4  <0> d           0.027  -3.815  -0.017  0.00  0.00     0.115 H 
ATOM     12  H5  <0> d          -2.139  -0.274   0.022  0.00  0.00     0.116 H 
ATOM     13  H6  <0> d           3.394  -0.447  -0.033  0.00  0.00     0.084 H 
ATOM     14  H7  <0> d           3.299   1.990  -0.019  0.00  0.00     0.083 H 
ATOM     15  H8  <0> d           1.143   3.166   0.008  0.00  0.00     0.083 H 
ATOM     16  H9  <0> d          -0.957   1.931   0.017  0.00  0.00     0.084 H 
ENDROOT
BRANCH   1  17
ATOM     17  C1  <0> d           2.532  -2.866  -0.038  0.00  0.00    -0.049 C 
ATOM     18  H1  <0> d           2.853  -3.058   0.986  0.00  0.00     0.033 H 
ATOM     19  H2  <0> d           2.379  -3.813  -0.555  0.00  0.00     0.033 H 
ATOM     20  H3  <0> d           3.296  -2.288  -0.556  0.00  0.00     0.033 H 
ENDBRANCH   1  17
TORSDOF 1
