REMARK  4 active torsions:
REMARK  status: ('A' for Active; 'I' for Inactive)
REMARK    1  A    between atoms: C4_4  and  C5_5 
REMARK    2  A    between atoms: C5_5  and  C6_6 
REMARK    3  A    between atoms: C6_6  and  C7_7 
REMARK    4  A    between atoms: C7_7  and  O1_8 
ROOT
ATOM      1  C1  <0> d          -0.019   1.525   0.010  0.00  0.00    -0.065 C 
ATOM      2  C2  <0> d           1.413   2.063  -0.000  0.00  0.00    -0.064 C 
ATOM      3  C3  <0> d           2.128   1.634   1.285  0.00  0.00    -0.047 C 
ATOM      4  C4  <0> d           2.028   0.130   1.411  0.00  0.00     0.030 C 
ATOM      5  C8  <0> d           0.664  -0.511   1.288  0.00  0.00    -0.047 C 
ATOM      6  C9  <0> d           0.002  -0.004   0.002  0.00  0.00    -0.064 C 
ATOM      7  H1  <0> d          -0.531   1.876   0.907  0.00  0.00     0.033 H 
ATOM      8  H2  <0> d          -0.548   1.885  -0.872  0.00  0.00     0.033 H 
ATOM      9  H3  <0> d           1.945   1.663  -0.863  0.00  0.00     0.033 H 
ATOM     10  H4  <0> d           1.392   3.152  -0.058  0.00  0.00     0.033 H 
ATOM     11  H5  <0> d           3.176   1.929   1.237  0.00  0.00     0.035 H 
ATOM     12  H6  <0> d           1.651   2.106   2.144  0.00  0.00     0.035 H 
ATOM     13  H11 <0> d           0.771  -1.595   1.241  0.00  0.00     0.035 H 
ATOM     14  H12 <0> d           0.052  -0.238   2.147  0.00  0.00     0.035 H 
ATOM     15  H13 <0> d          -1.019  -0.381  -0.054  0.00  0.00     0.033 H 
ATOM     16  H14 <0> d           0.568  -0.355  -0.861  0.00  0.00     0.033 H 
ENDROOT
BRANCH   4  17
ATOM     17  C5  <0> d           3.094  -0.597   1.622  0.00  0.00    -0.163 C 
BRANCH  17  18
ATOM     18  C6  <0> d           4.159  -1.324   1.833  0.00  0.00     0.030 C 
ATOM     19  H7  <0> d           4.475  -1.539   2.844  0.00  0.00     0.063 H 
BRANCH  18  20
ATOM     20  C7  <0> d           4.947  -1.863   0.667  0.00  0.00     0.030 C 
ATOM     21  H8  <0> d           4.890  -2.951   0.661  0.00  0.00     0.075 H 
ATOM     22  H9  <0> d           4.533  -1.472  -0.263  0.00  0.00     0.075 H 
BRANCH  20  23
ATOM     23  O1  <0> d           6.312  -1.458   0.787  0.00  0.00    -0.400 OA
ATOM     24  H10 <0> d           6.880  -1.770   0.069  0.00  0.00     0.209 HD
ENDBRANCH  20  23
ENDBRANCH  18  20
ENDBRANCH  17  18
ENDBRANCH   4  17
TORSDOF 4
