REMARK  2 active torsions:
REMARK  status: ('A' for Active; 'I' for Inactive)
REMARK    1  A    between atoms: N1_4  and  N2_6 
REMARK    2  A    between atoms: N2_6  and  C5_7 
ROOT
ATOM      1  N2  <0> d           2.410   1.148  -0.014  0.00  0.00    -0.295 N 
ATOM      2  H5  <0> d           2.381   0.230  -0.324  0.00  0.00     0.187 HD
ENDROOT
BRANCH   1   3
ATOM      3  N1  <0> d           3.593   1.889  -0.127  0.00  0.00    -0.278 N 
ATOM      4  C3  <0> d           4.848   1.369  -0.249  0.00  0.00     0.001 A 
ATOM      5  C2  <0> d           5.722   2.393  -0.332  0.00  0.00    -0.065 A 
ATOM      6  H3  <0> d           5.098   0.319  -0.275  0.00  0.00     0.114 H 
ATOM      7  C1  <0> d           4.981   3.588  -0.258  0.00  0.00    -0.065 A 
ATOM      8  H2  <0> d           6.794   2.311  -0.435  0.00  0.00     0.085 H 
ATOM      9  C4  <0> d           3.680   3.250  -0.139  0.00  0.00     0.001 A 
ATOM     10  H1  <0> d           5.379   4.591  -0.295  0.00  0.00     0.085 H 
ATOM     11  H4  <0> d           2.852   3.938  -0.064  0.00  0.00     0.114 H 
ENDBRANCH   1   3
BRANCH   1  12
ATOM     12  C5  <0> d           1.275   1.730   0.543  0.00  0.00     0.051 A 
ATOM     13  C9  <0> d          -0.002   1.319   0.159  0.00  0.00    -0.039 A 
ATOM     14  C8  <0> d          -1.100   1.922   0.735  0.00  0.00     0.004 A 
ATOM     15  H9  <0> d          -0.127   0.540  -0.578  0.00  0.00     0.089 H 
ATOM     16  N3  <0> d          -0.955   2.874   1.637  0.00  0.00    -0.273 NA
ATOM     17  H8  <0> d          -2.093   1.610   0.444  0.00  0.00     0.114 H 
ATOM     18  C7  <0> d           0.235   3.287   2.030  0.00  0.00     0.004 A 
ATOM     19  C6  <0> d           1.384   2.740   1.499  0.00  0.00    -0.039 A 
ATOM     20  H7  <0> d           0.310   4.066   2.774  0.00  0.00     0.114 H 
ATOM     21  H6  <0> d           2.355   3.085   1.823  0.00  0.00     0.089 H 
ENDBRANCH   1  12
TORSDOF 2
