REMARK  3 active torsions:
REMARK  status: ('A' for Active; 'I' for Inactive)
REMARK    1  A    between atoms: C3_4  and  C5_7 
REMARK    2  A    between atoms: C4_5  and  N1_6 
REMARK    3  A    between atoms: C5_7  and  O1_8 
ROOT
ATOM      1  C1  <0> d           3.471   2.718  -0.828  0.00  0.00    -0.050 A 
ATOM      2  C2  <0> d           3.894   2.862   0.452  0.00  0.00    -0.042 A 
ATOM      3  S1  <0> d           2.464   2.327   1.378  0.00  0.00    -0.102 SA
ATOM      4  C3  <0> d           1.397   1.946  -0.001  0.00  0.00     0.032 A 
ATOM      5  C4  <0> d           2.191   2.243  -1.063  0.00  0.00     0.041 A 
ATOM      6  H1  <0> d           4.124   2.966  -1.652  0.00  0.00     0.087 H 
ATOM      7  H2  <0> d           4.848   3.211   0.818  0.00  0.00     0.095 H 
ENDROOT
BRANCH   4   8
ATOM      8  C5  <0> d          -0.017   1.425   0.010  0.00  0.00     0.049 C 
ATOM      9  H5  <0> d          -0.532   1.780   0.915  0.00  0.00     0.082 H 
ATOM     10  H6  <0> d          -0.549   1.789  -0.881  0.00  0.00     0.082 H 
BRANCH   8  11
ATOM     11  O1  <0> d           0.002  -0.004   0.002  0.00  0.00    -0.396 OA
ATOM     12  H7  <0> d          -0.943  -0.567   0.008  0.00  0.00     0.209 HD
ENDBRANCH   8  11
ENDBRANCH   4   8
BRANCH   5  13
ATOM     13  N1  <0> d           1.720   2.074  -2.379  0.00  0.00    -0.398 N 
ATOM     14  H3  <0> d           0.702   1.696  -2.554  0.00  0.00     0.156 HD
ATOM     15  H4  <0> d           2.370   2.320  -3.231  0.00  0.00     0.156 HD
ENDBRANCH   5  13
TORSDOF 3
