REMARK  8 active torsions:
REMARK  status: ('A' for Active; 'I' for Inactive)
REMARK    1  A    between atoms: C1_1  and  C2_2 
REMARK    2  A    between atoms: C2_2  and  O1_3 
REMARK    3  A    between atoms: O1_3  and  C3_4 
REMARK    4  A    between atoms: C3_4  and  C4_6 
REMARK    5  A    between atoms: C5_7  and  C6_8 
REMARK    6  A    between atoms: C5_7  and  C7_9 
REMARK    7  A    between atoms: C7_9  and  C8_10 
REMARK    8  A    between atoms: C7_9  and  C9_11 
ROOT
ATOM      1  C4  <0> d          -1.179   2.077   0.019  0.00  0.00    -0.008 C 
ATOM      2  C5  <0> d           0.022   1.504  -0.005  0.00  0.00    -0.075 C 
ATOM      3  H6  <0> d          -1.266   3.152  -0.042  0.00  0.00     0.093 H 
ENDROOT
BRANCH   2   4
ATOM      4  C6  <0> d           0.140   0.002  -0.048  0.00  0.00    -0.054 C 
ATOM      5  H7  <0> d           1.188  -0.277  -0.160  0.00  0.00     0.033 H 
ATOM      6  H8  <0> d          -0.252  -0.420   0.877  0.00  0.00     0.033 H 
ATOM      7  H9  <0> d          -0.431  -0.383  -0.893  0.00  0.00     0.033 H 
ENDBRANCH   2   4
BRANCH   2   8
ATOM      8  C7  <0> d           1.264   2.357   0.005  0.00  0.00    -0.039 C 
ATOM      9  H10 <0> d           0.982   3.409   0.038  0.00  0.00     0.045 H 
BRANCH   8  10
ATOM     10  C8  <0> d           2.107   2.016   1.236  0.00  0.00    -0.070 C 
ATOM     11  H11 <0> d           2.389   0.964   1.204  0.00  0.00     0.028 H 
ATOM     12  H12 <0> d           3.006   2.633   1.244  0.00  0.00     0.028 H 
ATOM     13  H13 <0> d           1.527   2.209   2.139  0.00  0.00     0.028 H 
ENDBRANCH   8  10
BRANCH   8  14
ATOM     14  C9  <0> d           2.079   2.087  -1.261  0.00  0.00    -0.070 C 
ATOM     15  H14 <0> d           2.361   1.034  -1.294  0.00  0.00     0.028 H 
ATOM     16  H15 <0> d           1.479   2.329  -2.138  0.00  0.00     0.028 H 
ATOM     17  H16 <0> d           2.978   2.704  -1.254  0.00  0.00     0.028 H 
ENDBRANCH   8  14
ENDBRANCH   2   8
BRANCH   1  18
ATOM     18  C3  <0> d          -2.386   1.247   0.130  0.00  0.00     0.283 C 
ATOM     19  O2  <0> d          -2.287   0.048   0.302  0.00  0.00    -0.260 OA
BRANCH  18  20
ATOM     20  O1  <0> d          -3.605   1.816   0.040  0.00  0.00    -0.319 OA
BRANCH  20  21
ATOM     21  C2  <0> d          -4.754   0.935   0.157  0.00  0.00     0.026 C 
ATOM     22  H4  <0> d          -4.721   0.187  -0.634  0.00  0.00     0.074 H 
ATOM     23  H5  <0> d          -4.733   0.439   1.128  0.00  0.00     0.074 H 
BRANCH  21  24
ATOM     24  C1  <0> d          -6.040   1.755   0.031  0.00  0.00    -0.056 C 
ATOM     25  H1  <0> d          -6.902   1.094   0.119  0.00  0.00     0.030 H 
ATOM     26  H2  <0> d          -6.073   2.503   0.823  0.00  0.00     0.030 H 
ATOM     27  H3  <0> d          -6.061   2.251  -0.939  0.00  0.00     0.030 H 
ENDBRANCH  21  24
ENDBRANCH  20  21
ENDBRANCH  18  20
ENDBRANCH   1  18
TORSDOF 8
