REMARK  2 active torsions:
REMARK  status: ('A' for Active; 'I' for Inactive)
REMARK    1  A    between atoms: C1_1  and  C2_2 
REMARK    2  A    between atoms: C5_9  and  N3_10 
ROOT
ATOM      1  C2  <0> d           0.002  -0.004   0.002  0.00  0.00    -0.006 A 
ATOM      2  C3  <0> d          -0.016   1.350   0.009  0.00  0.00    -0.009 A 
ATOM      3  N1  <0> d           1.163   2.032   0.002  0.00  0.00    -0.317 N 
ATOM      4  H1  <0> d           1.159   3.032   0.007  0.00  0.00     0.170 HD
ATOM      5  C4  <0> d           2.333   1.368  -0.013  0.00  0.00     0.347 A 
ATOM      6  O1  <0> d           3.379   1.995  -0.019  0.00  0.00    -0.245 OA
ATOM      7  N2  <0> d           2.368   0.036  -0.020  0.00  0.00    -0.182 NA
ATOM      8  C5  <0> d           1.245  -0.670  -0.013  0.00  0.00     0.113 A 
ATOM      9  H5  <0> d          -0.956   1.883   0.017  0.00  0.00     0.112 H 
ENDROOT
BRANCH   1  10
ATOM     10  C1  <0> d          -1.286  -0.787   0.011  0.00  0.00    -0.047 C 
ATOM     11  H2  <0> d          -2.130  -0.097   0.023  0.00  0.00     0.033 H 
ATOM     12  H3  <0> d          -1.338  -1.410  -0.882  0.00  0.00     0.033 H 
ATOM     13  H4  <0> d          -1.320  -1.419   0.898  0.00  0.00     0.033 H 
ENDBRANCH   1  10
BRANCH   8  14
ATOM     14  N3  <0> d           1.292  -2.045  -0.021  0.00  0.00    -0.286 NA
ATOM     15  H6  <0> d           0.841  -2.399   0.798  0.00  0.00     0.125 HD
ATOM     16  H7  <0> d           2.149  -2.501  -0.031  0.00  0.00     0.125 HD
ENDBRANCH   8  14
TORSDOF 2
