REMARK  9 active torsions:
REMARK  status: ('A' for Active; 'I' for Inactive)
REMARK    1  A    between atoms: C1_1  and  C2_2 
REMARK    2  A    between atoms: C2_2  and  C3_3 
REMARK    3  A    between atoms: C3_3  and  C4_4 
REMARK    4  A    between atoms: C4_4  and  C5_5 
REMARK    5  A    between atoms: C5_5  and  C6_6 
REMARK    6  A    between atoms: C6_6  and  C7_8 
REMARK    7  A    between atoms: C6_6  and  O1_13 
REMARK    8  A    between atoms: C7_8  and  C8_10 
REMARK    9  A    between atoms: C7_8  and  C9_11 
ROOT
ATOM      1  C5  <0> d          -0.037   1.099  -2.490  0.00  0.00    -0.040 C 
ATOM      2  H12 <0> d           0.986   1.476  -2.498  0.00  0.00     0.036 H 
ATOM      3  H13 <0> d          -0.022   0.009  -2.496  0.00  0.00     0.036 H 
ENDROOT
BRANCH   1   4
ATOM      4  C4  <0> d          -0.753   1.593  -1.232  0.00  0.00    -0.063 C 
ATOM      5  H10 <0> d          -1.775   1.215  -1.224  0.00  0.00     0.033 H 
ATOM      6  H11 <0> d          -0.767   2.683  -1.226  0.00  0.00     0.033 H 
BRANCH   4   7
ATOM      7  C3  <0> d          -0.013   1.086   0.008  0.00  0.00    -0.065 C 
ATOM      8  H8  <0> d           0.002  -0.004   0.002  0.00  0.00     0.033 H 
ATOM      9  H9  <0> d           1.010   1.463   0.000  0.00  0.00     0.033 H 
BRANCH   7  10
ATOM     10  C2  <0> d          -0.729   1.579   1.267  0.00  0.00    -0.069 C 
ATOM     11  H6  <0> d          -0.744   2.669   1.273  0.00  0.00     0.032 H 
ATOM     12  H7  <0> d          -1.751   1.202   1.275  0.00  0.00     0.032 H 
BRANCH  10  13
ATOM     13  C1  <0> d           0.011   1.072   2.506  0.00  0.00    -0.077 C 
ATOM     14  H3  <0> d           0.026  -0.018   2.500  0.00  0.00     0.027 H 
ATOM     15  H4  <0> d           1.034   1.450   2.499  0.00  0.00     0.027 H 
ATOM     16  H5  <0> d          -0.499   1.424   3.403  0.00  0.00     0.027 H 
ENDBRANCH  10  13
ENDBRANCH   7  10
ENDBRANCH   4   7
ENDBRANCH   1   4
BRANCH   1  17
ATOM     17  C6  <0> d          -0.777   1.606  -3.730  0.00  0.00     0.042 C 
ATOM     18  H1  <0> d          -1.822   1.303  -3.678  0.00  0.00     0.083 H 
BRANCH  17  19
ATOM     19  C7  <0> d          -0.135   1.012  -4.985  0.00  0.00    -0.017 C 
ATOM     20  H2  <0> d           0.910   1.314  -5.037  0.00  0.00     0.049 H 
BRANCH  19  21
ATOM     21  C8  <0> d          -0.222  -0.515  -4.928  0.00  0.00    -0.067 C 
ATOM     22  H14 <0> d           0.305  -0.876  -4.045  0.00  0.00     0.028 H 
ATOM     23  H15 <0> d          -1.268  -0.818  -4.876  0.00  0.00     0.028 H 
ATOM     24  H16 <0> d           0.235  -0.939  -5.823  0.00  0.00     0.028 H 
ENDBRANCH  19  21
BRANCH  19  25
ATOM     25  C9  <0> d          -0.864   1.511  -6.206  0.00  0.00    -0.106 C 
ATOM     26  C10 <0> d          -0.220   2.195  -7.119  0.00  0.00    -0.124 C 
ATOM     27  H18 <0> d           0.833   2.401  -6.997  0.00  0.00     0.066 H 
ATOM     28  H19 <0> d          -0.743   2.553  -7.994  0.00  0.00     0.066 H 
ATOM     29  H17 <0> d          -1.917   1.304  -6.328  0.00  0.00     0.076 H 
ENDBRANCH  19  25
ENDBRANCH  17  19
BRANCH  17  30
ATOM     30  O1  <0> d          -0.696   3.032  -3.783  0.00  0.00    -0.395 OA
ATOM     31  H20 <0> d           0.208   3.373  -3.831  0.00  0.00     0.210 HD
ENDBRANCH  17  30
ENDBRANCH   1  17
TORSDOF 9
