REMARK  1 active torsions:
REMARK  status: ('A' for Active; 'I' for Inactive)
REMARK    1  A    between atoms: C2_2  and  N1_3 
ROOT
ATOM      1  N1  <0> d           2.139   4.138   0.003  0.00  0.00    -0.315 N 
ATOM      2  C3  <0> d           1.509   5.347   0.015  0.00  0.00     0.071 A 
ATOM      3  N2  <0> d           0.219   5.177   0.026  0.00  0.00    -0.241 NA
ATOM      4  C4  <0> d          -0.069   3.850   0.022  0.00  0.00     0.085 A 
ATOM      5  C5  <0> d           1.157   3.164   0.007  0.00  0.00     0.068 A 
ATOM      6  C6  <0> d           1.175   1.777   0.000  0.00  0.00    -0.054 A 
ATOM      7  C7  <0> d          -0.013   1.076   0.008  0.00  0.00    -0.081 A 
ATOM      8  C8  <0> d          -1.226   1.748   0.017  0.00  0.00    -0.081 A 
ATOM      9  C9  <0> d          -1.263   3.124   0.030  0.00  0.00    -0.053 A 
ATOM     10  H4  <0> d           2.007   6.305   0.015  0.00  0.00     0.144 H 
ATOM     11  H5  <0> d           2.116   1.247  -0.011  0.00  0.00     0.087 H 
ATOM     12  H6  <0> d           0.002  -0.004   0.002  0.00  0.00     0.083 H 
ATOM     13  H7  <0> d          -2.149   1.188   0.019  0.00  0.00     0.083 H 
ATOM     14  H8  <0> d          -2.211   3.641   0.041  0.00  0.00     0.087 H 
ENDROOT
BRANCH   1  15
ATOM     15  C2  <0> d           3.517   3.924  -0.010  0.00  0.00    -0.023 C 
ATOM     16  C1  <0> d           4.344   4.951  -0.013  0.00  0.00    -0.106 C 
ATOM     17  H1  <0> d           3.954   5.958  -0.004  0.00  0.00     0.068 H 
ATOM     18  H2  <0> d           5.411   4.785  -0.023  0.00  0.00     0.068 H 
ATOM     19  H3  <0> d           3.907   2.917  -0.018  0.00  0.00     0.111 H 
ENDBRANCH   1  15
TORSDOF 1
