REMARK  4 active torsions:
REMARK  status: ('A' for Active; 'I' for Inactive)
REMARK    1  A    between atoms: C1_1  and  C2_2 
REMARK    2  A    between atoms: N2_5  and  C5_7 
REMARK    3  A    between atoms: C5_7  and  C6_8 
REMARK    4  A    between atoms: C6_8  and  C7_10 
ROOT
ATOM      1  C6  <0> d          -2.537   4.253  -1.133  0.00  0.00     0.044 C 
ATOM      2  H1  <0> d          -1.980   4.140  -2.063  0.00  0.00     0.064 H 
ATOM      3  C8  <0> d          -3.343   5.483  -1.189  0.00  0.00     0.065 C 
ATOM      4  N3  <0> d          -3.965   6.433  -1.233  0.00  0.00    -0.197 NA
ENDROOT
BRANCH   1   5
ATOM      5  C5  <0> d          -1.558   4.338   0.040  0.00  0.00     0.031 C 
ATOM      6  H7  <0> d          -2.114   4.361   0.977  0.00  0.00     0.069 H 
ATOM      7  H8  <0> d          -0.960   5.245  -0.050  0.00  0.00     0.069 H 
BRANCH   5   8
ATOM      8  N2  <0> d          -0.675   3.169   0.025  0.00  0.00    -0.279 N 
ATOM      9  N1  <0> d          -1.083   1.829   0.017  0.00  0.00    -0.185 NA
ATOM     10  C3  <0> d          -0.013   1.076   0.008  0.00  0.00     0.029 A 
ATOM     11  C2  <0> d           1.109   1.911   0.002  0.00  0.00    -0.026 A 
ATOM     12  H5  <0> d           0.002  -0.004   0.002  0.00  0.00     0.118 H 
ATOM     13  C4  <0> d           0.674   3.192   0.013  0.00  0.00     0.005 A 
ATOM     14  H6  <0> d           1.295   4.076   0.011  0.00  0.00     0.115 H 
BRANCH  11  15
ATOM     15  C1  <0> d           2.548   1.464  -0.015  0.00  0.00    -0.049 C 
ATOM     16  H2  <0> d           2.885   1.361  -1.046  0.00  0.00     0.033 H 
ATOM     17  H3  <0> d           3.164   2.203   0.497  0.00  0.00     0.033 H 
ATOM     18  H4  <0> d           2.636   0.503   0.493  0.00  0.00     0.033 H 
ENDBRANCH  11  15
ENDBRANCH   5   8
ENDBRANCH   1   5
BRANCH   1  19
ATOM     19  C7  <0> d          -3.459   3.047  -0.941  0.00  0.00    -0.059 C 
ATOM     20  H9  <0> d          -4.156   2.986  -1.776  0.00  0.00     0.029 H 
ATOM     21  H10 <0> d          -2.862   2.136  -0.899  0.00  0.00     0.029 H 
ATOM     22  H11 <0> d          -4.015   3.160  -0.010  0.00  0.00     0.029 H 
ENDBRANCH   1  19
TORSDOF 4
