REMARK  5 active torsions:
REMARK  status: ('A' for Active; 'I' for Inactive)
REMARK    1  A    between atoms: C1_1  and  C2_2 
REMARK    2  A    between atoms: C2_2  and  C3_3 
REMARK    3  A    between atoms: C3_3  and  C4_5 
REMARK    4  A    between atoms: C3_3  and  C5_6 
REMARK    5  A    between atoms: C10_11  and  N1_12 
ROOT
ATOM      1  C5  <0> d           1.221  -0.679   0.018  0.00  0.00    -0.028 A 
ATOM      2  C6  <0> d           2.402   0.037   0.015  0.00  0.00    -0.074 A 
ATOM      3  C7  <0> d           2.375   1.419  -0.007  0.00  0.00    -0.082 A 
ATOM      4  C8  <0> d           1.165   2.090  -0.029  0.00  0.00    -0.081 A 
ATOM      5  C9  <0> d          -0.019   1.381  -0.026  0.00  0.00    -0.057 A 
ATOM      6  C10 <0> d           0.005  -0.008  -0.004  0.00  0.00     0.032 A 
ATOM      7  H10 <0> d           3.348  -0.484   0.032  0.00  0.00     0.084 H 
ATOM      8  H11 <0> d           3.300   1.976  -0.009  0.00  0.00     0.083 H 
ATOM      9  H12 <0> d           1.148   3.170  -0.046  0.00  0.00     0.083 H 
ATOM     10  H13 <0> d          -0.963   1.905  -0.047  0.00  0.00     0.086 H 
ENDROOT
BRANCH   1  11
ATOM     11  C3  <0> d           1.252  -2.185   0.042  0.00  0.00    -0.030 C 
ATOM     12  H1  <0> d           0.236  -2.571  -0.045  0.00  0.00     0.046 H 
BRANCH  11  13
ATOM     13  C2  <0> d           1.866  -2.661   1.360  0.00  0.00    -0.061 C 
ATOM     14  H5  <0> d           2.910  -2.351   1.407  0.00  0.00     0.033 H 
ATOM     15  H6  <0> d           1.319  -2.224   2.195  0.00  0.00     0.033 H 
BRANCH  13  16
ATOM     16  C1  <0> d           1.784  -4.187   1.439  0.00  0.00    -0.076 C 
ATOM     17  H2  <0> d           0.740  -4.498   1.392  0.00  0.00     0.027 H 
ATOM     18  H3  <0> d           2.331  -4.624   0.604  0.00  0.00     0.027 H 
ATOM     19  H4  <0> d           2.222  -4.526   2.377  0.00  0.00     0.027 H 
ENDBRANCH  13  16
ENDBRANCH  11  13
BRANCH  11  20
ATOM     20  C4  <0> d           2.094  -2.697  -1.128  0.00  0.00    -0.069 C 
ATOM     21  H7  <0> d           2.116  -3.787  -1.111  0.00  0.00     0.028 H 
ATOM     22  H8  <0> d           1.656  -2.358  -2.067  0.00  0.00     0.028 H 
ATOM     23  H9  <0> d           3.110  -2.312  -1.041  0.00  0.00     0.028 H 
ENDBRANCH  11  20
ENDBRANCH   1  11
BRANCH   6  24
ATOM     24  N1  <0> d          -1.192  -0.729  -0.001  0.00  0.00    -0.399 N 
ATOM     25  H14 <0> d          -2.039  -0.263   0.079  0.00  0.00     0.156 HD
ATOM     26  H15 <0> d          -1.176  -1.696  -0.080  0.00  0.00     0.156 HD
ENDBRANCH   6  24
TORSDOF 5
