REMARK  4 active torsions:
REMARK  status: ('A' for Active; 'I' for Inactive)
REMARK    1  A    between atoms: C1_1  and  C2_2 
REMARK    2  A    between atoms: C2_2  and  O1_3 
REMARK    3  A    between atoms: O1_3  and  C3_4 
REMARK    4  A    between atoms: C3_4  and  C4_6 
ROOT
ATOM      1  C4  <0> d          -2.847  -2.417   0.016  0.00  0.00    -0.008 C 
ATOM      2  C5  <0> d          -3.004  -3.739   0.011  0.00  0.00    -0.074 C 
ATOM      3  C6  <0> d          -2.094  -4.949   0.002  0.00  0.00    -0.044 C 
ATOM      4  C7  <0> d          -3.240  -5.720  -0.671  0.00  0.00    -0.058 C 
ATOM      5  C8  <0> d          -4.171  -4.703   0.017  0.00  0.00    -0.044 C 
ATOM      6  H6  <0> d          -3.712  -1.771   0.028  0.00  0.00     0.093 H 
ATOM      7  H7  <0> d          -1.217  -4.830  -0.634  0.00  0.00     0.039 H 
ATOM      8  H8  <0> d          -1.848  -5.316   0.999  0.00  0.00     0.039 H 
ATOM      9  H9  <0> d          -3.237  -5.653  -1.759  0.00  0.00     0.033 H 
ATOM     10  H10 <0> d          -3.360  -6.740  -0.305  0.00  0.00     0.033 H 
ATOM     11  H11 <0> d          -4.482  -5.005   1.017  0.00  0.00     0.039 H 
ATOM     12  H12 <0> d          -5.005  -4.382  -0.607  0.00  0.00     0.039 H 
ENDROOT
BRANCH   1  13
ATOM     13  C3  <0> d          -1.497  -1.837   0.006  0.00  0.00     0.283 C 
ATOM     14  O2  <0> d          -0.523  -2.564  -0.007  0.00  0.00    -0.260 OA
BRANCH  13  15
ATOM     15  O1  <0> d          -1.339  -0.499   0.012  0.00  0.00    -0.319 OA
BRANCH  15  16
ATOM     16  C2  <0> d           0.002  -0.004   0.002  0.00  0.00     0.026 C 
ATOM     17  H4  <0> d           0.512  -0.356  -0.895  0.00  0.00     0.074 H 
ATOM     18  H5  <0> d           0.529  -0.365   0.885  0.00  0.00     0.074 H 
BRANCH  16  19
ATOM     19  C1  <0> d          -0.019   1.526   0.010  0.00  0.00    -0.056 C 
ATOM     20  H1  <0> d           1.004   1.903   0.003  0.00  0.00     0.030 H 
ATOM     21  H2  <0> d          -0.546   1.887  -0.873  0.00  0.00     0.030 H 
ATOM     22  H3  <0> d          -0.529   1.877   0.907  0.00  0.00     0.030 H 
ENDBRANCH  16  19
ENDBRANCH  15  16
ENDBRANCH  13  15
ENDBRANCH   1  13
TORSDOF 4
