REMARK  1 active torsions:
REMARK  status: ('A' for Active; 'I' for Inactive)
REMARK    1  A    between atoms: N3_5  and  N4_6 
ROOT
ATOM      1  N4  <0> d          -1.105  -0.862   0.009  0.00  0.00    -0.253 N 
ATOM      2  C3  <0> d          -1.018  -2.327   0.006  0.00  0.00     0.019 C 
ATOM      3  C4  <0> d          -2.412  -2.824   0.451  0.00  0.00    -0.040 C 
ATOM      4  C5  <0> d          -3.316  -1.641   0.034  0.00  0.00     0.013 C 
ATOM      5  C6  <0> d          -2.385  -0.449   0.024  0.00  0.00     0.238 C 
ATOM      6  O1  <0> d          -2.740   0.710   0.028  0.00  0.00    -0.272 OA
ATOM      7  H3  <0> d          -0.791  -2.689  -0.997  0.00  0.00     0.067 H 
ATOM      8  H4  <0> d          -0.256  -2.661   0.710  0.00  0.00     0.067 H 
ATOM      9  H5  <0> d          -2.689  -3.734  -0.081  0.00  0.00     0.036 H 
ATOM     10  H6  <0> d          -2.445  -2.978   1.529  0.00  0.00     0.036 H 
ATOM     11  H7  <0> d          -3.733  -1.812  -0.959  0.00  0.00     0.047 H 
ATOM     12  H8  <0> d          -4.112  -1.494   0.763  0.00  0.00     0.047 H 
ENDROOT
BRANCH   1  13
ATOM     13  N3  <0> d           0.002  -0.004   0.002  0.00  0.00    -0.235 N 
ATOM     14  C1  <0> d          -0.016   1.351   0.009  0.00  0.00     0.109 A 
ATOM     15  N1  <0> d           1.224   1.756  -0.000  0.00  0.00    -0.142 NA
ATOM     16  H1  <0> d          -0.895   1.979   0.025  0.00  0.00     0.149 H 
ATOM     17  N2  <0> d           2.012   0.739  -0.013  0.00  0.00    -0.142 NA
ATOM     18  C2  <0> d           1.309  -0.361  -0.012  0.00  0.00     0.109 A 
ATOM     19  H2  <0> d           1.698  -1.368  -0.021  0.00  0.00     0.149 H 
ENDBRANCH   1  13
TORSDOF 1
