REMARK  5 active torsions:
REMARK  status: ('A' for Active; 'I' for Inactive)
REMARK    1  A    between atoms: C1_1  and  C2_2 
REMARK    2  A    between atoms: C3_3  and  C4_4 
REMARK    3  A    between atoms: C4_4  and  C5_6 
REMARK    4  A    between atoms: C4_4  and  O3_10 
REMARK    5  A    between atoms: C5_6  and  C6_7 
ROOT
ATOM      1  C4  <0> d          -0.013   1.086   0.008  0.00  0.00     0.061 C 
ATOM      2  H1  <0> d          -0.041  -0.013  -0.045  0.00  0.00     0.090 H 
ENDROOT
BRANCH   1   3
ATOM      3  C3  <0> d          -0.718   1.572   1.248  0.00  0.00    -0.079 C 
ATOM      4  C2  <0> d          -1.847   2.228   1.145  0.00  0.00    -0.108 C 
ATOM      5  H5  <0> d          -2.281   2.423   0.153  0.00  0.00     0.075 H 
ATOM      6  H6  <0> d          -0.285   1.376   2.240  0.00  0.00     0.080 H 
BRANCH   4   7
ATOM      7  C1  <0> d          -2.553   2.713   2.384  0.00  0.00    -0.060 C 
ATOM      8  H2  <0> d          -3.477   3.238   2.099  0.00  0.00     0.032 H 
ATOM      9  H3  <0> d          -1.895   3.402   2.934  0.00  0.00     0.032 H 
ATOM     10  H4  <0> d          -2.802   1.855   3.025  0.00  0.00     0.032 H 
ENDBRANCH   4   7
ENDBRANCH   1   3
BRANCH   1  11
ATOM     11  C5  <0> d           1.423   1.615  -0.003  0.00  0.00     0.042 C 
ATOM     12  H7  <0> d           1.408   2.712  -0.087  0.00  0.00     0.053 H 
ATOM     13  H8  <0> d           1.927   1.326   0.931  0.00  0.00     0.053 H 
BRANCH  11  14
ATOM     14  C6  <0> d           2.165   1.031  -1.177  0.00  0.00     0.175 C 
ATOM     15  O1  <0> d           1.603   0.269  -1.928  0.00  0.00    -0.648 OA
ATOM     16  O2  <0> d           3.450   1.357  -1.389  0.00  0.00    -0.648 OA
ENDBRANCH  11  14
ENDBRANCH   1  11
BRANCH   1  17
ATOM     17  O3  <0> d          -0.704   1.559  -1.150  0.00  0.00    -0.391 OA
ATOM     18  H9  <0> d          -0.334   1.304  -2.154  0.00  0.00     0.210 HD
ENDBRANCH   1  17
TORSDOF 5
