REMARK  4 active torsions:
REMARK  status: ('A' for Active; 'I' for Inactive)
REMARK    1  A    between atoms: C1_1  and  C2_2 
REMARK    2  A    between atoms: C4_4  and  C11_12 
REMARK    3  A    between atoms: C5_5  and  C9_9 
REMARK    4  A    between atoms: C7_7  and  C8_8 
ROOT
ATOM      1  C9  <0> d          -0.018   1.468   0.010  0.00  0.00     0.039 C 
ATOM      2  C10 <0> d           0.002  -0.004   0.002  0.00  0.00     0.063 C 
ATOM      3  N1  <0> d           0.018  -1.140  -0.004  0.00  0.00    -0.197 NA
ATOM      4  H9  <0> d           1.005   1.845   0.002  0.00  0.00     0.062 H 
ATOM      5  H10 <0> d          -0.545   1.829  -0.873  0.00  0.00     0.062 H 
ENDROOT
BRANCH   1   6
ATOM      6  C5  <0> d          -0.723   1.954   1.250  0.00  0.00    -0.039 A 
ATOM      7  C4  <0> d          -0.025   2.083   2.436  0.00  0.00    -0.054 A 
ATOM      8  C3  <0> d          -0.671   2.533   3.572  0.00  0.00    -0.070 A 
ATOM      9  C2  <0> d          -2.017   2.845   3.525  0.00  0.00    -0.056 A 
ATOM     10  H4  <0> d          -0.125   2.639   4.498  0.00  0.00     0.085 H 
ATOM     11  C7  <0> d          -2.716   2.710   2.340  0.00  0.00    -0.056 A 
ATOM     12  C6  <0> d          -2.069   2.264   1.202  0.00  0.00    -0.069 A 
ATOM     13  H5  <0> d          -2.615   2.159   0.277  0.00  0.00     0.085 H 
BRANCH   7  14
ATOM     14  C11 <0> d           1.441   1.739   2.490  0.00  0.00    -0.051 C 
ATOM     15  H11 <0> d           2.031   2.625   2.257  0.00  0.00     0.033 H 
ATOM     16  H12 <0> d           1.695   1.385   3.489  0.00  0.00     0.033 H 
ATOM     17  H13 <0> d           1.657   0.957   1.762  0.00  0.00     0.033 H 
ENDBRANCH   7  14
BRANCH   9  18
ATOM     18  C1  <0> d          -2.723   3.332   4.764  0.00  0.00    -0.051 C 
ATOM     19  H1  <0> d          -3.126   2.480   5.311  0.00  0.00     0.033 H 
ATOM     20  H2  <0> d          -2.016   3.868   5.397  0.00  0.00     0.033 H 
ATOM     21  H3  <0> d          -3.536   4.000   4.481  0.00  0.00     0.033 H 
ENDBRANCH   9  18
BRANCH  11  22
ATOM     22  C8  <0> d          -4.184   3.050   2.288  0.00  0.00    -0.051 C 
ATOM     23  H6  <0> d          -4.771   2.162   2.523  0.00  0.00     0.033 H 
ATOM     24  H7  <0> d          -4.401   3.833   3.015  0.00  0.00     0.033 H 
ATOM     25  H8  <0> d          -4.440   3.401   1.288  0.00  0.00     0.033 H 
ENDBRANCH  11  22
ENDBRANCH   1   6
TORSDOF 4
