REMARK  5 active torsions:
REMARK  status: ('A' for Active; 'I' for Inactive)
REMARK    1  A    between atoms: C1_1  and  C2_2 
REMARK    2  A    between atoms: C2_2  and  O3_10 
REMARK    3  A    between atoms: C5_5  and  O2_8 
REMARK    4  A    between atoms: O2_8  and  C6_9 
REMARK    5  A    between atoms: O3_10  and  C7_11 
ROOT
ATOM      1  C2  <0> d           1.201   1.977   0.001  0.00  0.00     0.182 C 
ATOM      2  C3  <0> d          -0.013   1.076   0.008  0.00  0.00    -0.043 C 
ATOM      3  C4  <0> d          -1.087   1.829   0.017  0.00  0.00    -0.050 C 
ATOM      4  C5  <0> d          -0.654   3.277   0.026  0.00  0.00     0.151 C 
ATOM      5  H1  <0> d          -0.755   3.704  -0.972  0.00  0.00     0.136 H 
ATOM      6  O1  <0> d           0.730   3.270   0.426  0.00  0.00    -0.319 OA
ATOM      7  H5  <0> d           0.002  -0.004   0.002  0.00  0.00     0.085 H 
ATOM      8  H6  <0> d          -2.107   1.475   0.019  0.00  0.00     0.084 H 
ENDROOT
BRANCH   1   9
ATOM      9  C1  <0> d           1.786   2.065  -1.410  0.00  0.00    -0.022 C 
ATOM     10  H2  <0> d           1.036   2.471  -2.089  0.00  0.00     0.035 H 
ATOM     11  H3  <0> d           2.659   2.717  -1.401  0.00  0.00     0.035 H 
ATOM     12  H4  <0> d           2.078   1.070  -1.745  0.00  0.00     0.035 H 
ENDBRANCH   1   9
BRANCH   1  13
ATOM     13  O3  <0> d           2.185   1.486   0.914  0.00  0.00    -0.357 OA
BRANCH  13  14
ATOM     14  C7  <0> d           3.322   2.339   1.057  0.00  0.00     0.008 C 
ATOM     15  H10 <0> d           3.811   2.458   0.090  0.00  0.00     0.066 H 
ATOM     16  H11 <0> d           3.001   3.314   1.423  0.00  0.00     0.066 H 
ATOM     17  H12 <0> d           4.022   1.897   1.766  0.00  0.00     0.066 H 
ENDBRANCH  13  14
ENDBRANCH   1  13
BRANCH   4  18
ATOM     18  O2  <0> d          -1.434   4.024   0.962  0.00  0.00    -0.363 OA
BRANCH  18  19
ATOM     19  C6  <0> d          -1.190   5.431   0.931  0.00  0.00     0.007 C 
ATOM     20  H7  <0> d          -0.142   5.623   1.160  0.00  0.00     0.066 H 
ATOM     21  H8  <0> d          -1.422   5.818  -0.061  0.00  0.00     0.066 H 
ATOM     22  H9  <0> d          -1.821   5.926   1.670  0.00  0.00     0.066 H 
ENDBRANCH  18  19
ENDBRANCH   4  18
TORSDOF 5
