REMARK  2 active torsions:
REMARK  status: ('A' for Active; 'I' for Inactive)
REMARK    1  A    between atoms: C1_1  and  C4_6 
REMARK    2  A    between atoms: C2_2  and  C3_3 
REMARK       I    between atoms: C3_3  and  N1_5 
REMARK       I    between atoms: C4_6  and  N2_8 
ROOT
ATOM      1  C1  <0> d           2.224   2.545  -0.005  0.00  0.00     0.004 C 
ATOM      2  C2  <0> d           1.216   1.944   0.001  0.00  0.00     0.004 C 
ENDROOT
BRANCH   1   3
ATOM      3  C4  <0> d           3.455   3.278  -0.013  0.00  0.00     0.294 C 
ATOM      4  O2  <0> d           3.438   4.493  -0.007  0.00  0.00    -0.258 OA
ATOM      5  N2  <0> d           4.631   2.620  -0.028  0.00  0.00    -0.359 N 
ATOM      6  H3  <0> d           4.644   1.650  -0.033  0.00  0.00     0.160 HD
ATOM      7  H4  <0> d           5.464   3.116  -0.033  0.00  0.00     0.160 HD
ENDBRANCH   1   3
BRANCH   2   8
ATOM      8  C3  <0> d          -0.014   1.211   0.009  0.00  0.00     0.294 C 
ATOM      9  O1  <0> d           0.002  -0.004   0.002  0.00  0.00    -0.258 OA
ATOM     10  N1  <0> d          -1.191   1.869   0.018  0.00  0.00    -0.359 N 
ATOM     11  H1  <0> d          -2.024   1.373   0.019  0.00  0.00     0.160 HD
ATOM     12  H2  <0> d          -1.204   2.839   0.023  0.00  0.00     0.160 HD
ENDBRANCH   2   8
TORSDOF 2
