REMARK  7 active torsions:
REMARK  status: ('A' for Active; 'I' for Inactive)
REMARK    1  A    between atoms: C1_1  and  C2_2 
REMARK    2  A    between atoms: C2_2  and  C3_3 
REMARK    3  A    between atoms: C3_3  and  C4_4 
REMARK    4  A    between atoms: C4_4  and  N1_5 
REMARK       I    between atoms: N1_5  and  C5_6 
REMARK    5  A    between atoms: C5_6  and  C6_8 
REMARK    6  A    between atoms: C6_8  and  C7_10 
REMARK    7  A    between atoms: C6_8  and  O2_11 
ROOT
ATOM      1  C4  <0> d           1.248   1.716  -0.001  0.00  0.00    -0.005 C 
ATOM      2  H9  <0> d           1.288   2.348  -0.888  0.00  0.00     0.064 H 
ATOM      3  H10 <0> d           1.305   2.338   0.892  0.00  0.00     0.064 H 
ENDROOT
BRANCH   1   4
ATOM      4  C3  <0> d           2.424   0.737  -0.017  0.00  0.00    -0.051 C 
ATOM      5  H7  <0> d           2.383   0.105   0.870  0.00  0.00     0.035 H 
ATOM      6  H8  <0> d           2.366   0.115  -0.910  0.00  0.00     0.035 H 
BRANCH   4   7
ATOM      7  C2  <0> d           3.738   1.520  -0.025  0.00  0.00    -0.067 C 
ATOM      8  H5  <0> d           3.779   2.152  -0.912  0.00  0.00     0.032 H 
ATOM      9  H6  <0> d           3.796   2.143   0.867  0.00  0.00     0.032 H 
BRANCH   7  10
ATOM     10  C1  <0> d           4.915   0.542  -0.042  0.00  0.00    -0.076 C 
ATOM     11  H2  <0> d           5.851   1.100  -0.048  0.00  0.00     0.027 H 
ATOM     12  H3  <0> d           4.874  -0.090   0.845  0.00  0.00     0.027 H 
ATOM     13  H4  <0> d           4.857  -0.081  -0.935  0.00  0.00     0.027 H 
ENDBRANCH   7  10
ENDBRANCH   4   7
ENDBRANCH   1   4
BRANCH   1  14
ATOM     14  N1  <0> d          -0.011   0.966   0.007  0.00  0.00    -0.359 N 
ATOM     15  C5  <0> d          -1.187   1.624   0.017  0.00  0.00     0.246 C 
ATOM     16  O1  <0> d          -1.204   2.837   0.023  0.00  0.00    -0.271 OA
ATOM     17  H11 <0> d           0.002  -0.004   0.002  0.00  0.00     0.162 HD
BRANCH  15  18
ATOM     18  C6  <0> d          -2.482   0.853   0.018  0.00  0.00     0.108 C 
ATOM     19  H1  <0> d          -2.497   0.165  -0.827  0.00  0.00     0.097 H 
BRANCH  18  20
ATOM     20  C7  <0> d          -2.602   0.061   1.322  0.00  0.00    -0.044 C 
ATOM     21  H12 <0> d          -3.538  -0.497   1.323  0.00  0.00     0.031 H 
ATOM     22  H13 <0> d          -1.766  -0.633   1.404  0.00  0.00     0.031 H 
ATOM     23  H14 <0> d          -2.587   0.749   2.168  0.00  0.00     0.031 H 
ENDBRANCH  18  20
BRANCH  18  24
ATOM     24  O2  <0> d          -3.579   1.763  -0.089  0.00  0.00    -0.387 OA
ATOM     25  H15 <0> d          -4.446   1.335  -0.094  0.00  0.00     0.210 HD
ENDBRANCH  18  24
ENDBRANCH  15  18
ENDBRANCH   1  14
TORSDOF 7
