REMARK  3 active torsions:
REMARK  status: ('A' for Active; 'I' for Inactive)
REMARK    1  A    between atoms: C1_1  and  N1_2 
REMARK    2  A    between atoms: C2_3  and  N4_10 
REMARK    3  A    between atoms: C3_4  and  C5_7 
REMARK       I    between atoms: C5_7  and  N3_9 
ROOT
ATOM      1  N1  <0> d          -1.385   2.977   0.031  0.00  0.00    -0.258 N 
ATOM      2  C2  <0> d          -1.216   1.640   0.017  0.00  0.00     0.134 A 
ATOM      3  C3  <0> d          -2.485   1.066   0.020  0.00  0.00     0.096 A 
ATOM      4  C4  <0> d          -3.418   2.129   0.031  0.00  0.00     0.041 A 
ATOM      5  N2  <0> d          -2.757   3.251   0.034  0.00  0.00    -0.182 NA
ATOM      6  H4  <0> d          -4.494   2.027   0.035  0.00  0.00     0.119 H 
ENDROOT
BRANCH   3   7
ATOM      7  C5  <0> d          -2.795  -0.369   0.013  0.00  0.00     0.254 C 
ATOM      8  O1  <0> d          -1.893  -1.186   0.004  0.00  0.00    -0.268 OA
ATOM      9  N3  <0> d          -4.078  -0.781   0.017  0.00  0.00    -0.366 N 
ATOM     10  H5  <0> d          -4.796  -0.130   0.024  0.00  0.00     0.159 HD
ATOM     11  H6  <0> d          -4.282  -1.730   0.013  0.00  0.00     0.159 HD
ENDBRANCH   3   7
BRANCH   2  12
ATOM     12  N4  <0> d          -0.011   0.966   0.007  0.00  0.00    -0.383 N 
ATOM     13  H7  <0> d           0.002  -0.004   0.002  0.00  0.00     0.157 HD
ATOM     14  H8  <0> d           0.822   1.462   0.002  0.00  0.00     0.157 HD
ENDBRANCH   2  12
BRANCH   1  15
ATOM     15  C1  <0> d          -0.313   3.976   0.038  0.00  0.00     0.004 C 
ATOM     16  H1  <0> d          -0.050   4.234  -0.987  0.00  0.00     0.059 H 
ATOM     17  H2  <0> d          -0.653   4.869   0.562  0.00  0.00     0.059 H 
ATOM     18  H3  <0> d           0.561   3.567   0.546  0.00  0.00     0.059 H 
ENDBRANCH   1  15
TORSDOF 3
