REMARK  4 active torsions:
REMARK  status: ('A' for Active; 'I' for Inactive)
REMARK    1  A    between atoms: C1_1  and  C2_2 
REMARK    2  A    between atoms: C2_2  and  N1_3 
REMARK    3  A    between atoms: C4_5  and  C6_9 
REMARK    4  A    between atoms: C5_6  and  N3_8 
REMARK       I    between atoms: C6_9  and  N4_11 
ROOT
ATOM      1  N1  <0> d          -3.901  -0.780   0.017  0.00  0.00    -0.278 N 
ATOM      2  C3  <0> d          -2.589  -0.504   0.012  0.00  0.00     0.018 A 
ATOM      3  C4  <0> d          -2.452   0.871   0.018  0.00  0.00     0.096 A 
ATOM      4  C5  <0> d          -3.760   1.419   0.034  0.00  0.00     0.158 A 
ATOM      5  N2  <0> d          -4.612   0.425   0.028  0.00  0.00    -0.154 NA
ATOM      6  H6  <0> d          -1.785  -1.225   0.004  0.00  0.00     0.116 H 
ENDROOT
BRANCH   1   7
ATOM      7  C2  <0> d          -4.492  -2.120   0.013  0.00  0.00     0.013 C 
ATOM      8  H4  <0> d          -5.041  -2.273  -0.916  0.00  0.00     0.066 H 
ATOM      9  H5  <0> d          -3.702  -2.866   0.095  0.00  0.00     0.066 H 
BRANCH   7  10
ATOM     10  C1  <0> d          -5.449  -2.259   1.199  0.00  0.00    -0.059 C 
ATOM     11  H1  <0> d          -6.240  -1.513   1.118  0.00  0.00     0.029 H 
ATOM     12  H2  <0> d          -5.889  -3.256   1.197  0.00  0.00     0.029 H 
ATOM     13  H3  <0> d          -4.900  -2.107   2.129  0.00  0.00     0.029 H 
ENDBRANCH   7  10
ENDBRANCH   1   7
BRANCH   4  14
ATOM     14  N3  <0> d          -4.081   2.777   0.049  0.00  0.00    -0.382 N 
ATOM     15  H7  <0> d          -3.375   3.442   0.050  0.00  0.00     0.157 HD
ATOM     16  H8  <0> d          -5.010   3.055   0.059  0.00  0.00     0.157 HD
ENDBRANCH   4  14
BRANCH   3  17
ATOM     17  C6  <0> d          -1.187   1.624   0.017  0.00  0.00     0.254 C 
ATOM     18  O1  <0> d          -1.204   2.840   0.023  0.00  0.00    -0.268 OA
ATOM     19  N4  <0> d          -0.011   0.966   0.007  0.00  0.00    -0.366 N 
ATOM     20  H9  <0> d           0.002  -0.004   0.002  0.00  0.00     0.159 HD
ATOM     21  H10 <0> d           0.822   1.462   0.002  0.00  0.00     0.159 HD
ENDBRANCH   3  17
TORSDOF 4
