REMARK  2 active torsions:
REMARK  status: ('A' for Active; 'I' for Inactive)
REMARK    1  A    between atoms: C2_2  and  C3_3 
REMARK    2  A    between atoms: C3_3  and  C4_4 
ROOT
ATOM      1  C4  <0> d          -2.170   1.352  -1.144  0.00  0.00    -0.034 A 
ATOM      2  C5  <0> d          -2.163   2.063  -2.326  0.00  0.00    -0.075 A 
ATOM      3  C6  <0> d          -2.932   1.640  -3.396  0.00  0.00    -0.082 A 
ATOM      4  C7  <0> d          -3.720   0.507  -3.285  0.00  0.00    -0.082 A 
ATOM      5  C8  <0> d          -3.739  -0.210  -2.107  0.00  0.00    -0.062 A 
ATOM      6  C9  <0> d          -2.962   0.208  -1.026  0.00  0.00     0.051 A 
ATOM      7  C10 <0> d          -2.977  -0.532   0.200  0.00  0.00     0.100 C 
ATOM      8  N1  <0> d          -2.990  -1.119   1.173  0.00  0.00    -0.191 NA
ATOM      9  H6  <0> d          -1.554   2.950  -2.418  0.00  0.00     0.084 H 
ATOM     10  H7  <0> d          -2.921   2.199  -4.320  0.00  0.00     0.083 H 
ATOM     11  H8  <0> d          -4.320   0.185  -4.123  0.00  0.00     0.083 H 
ATOM     12  H9  <0> d          -4.354  -1.094  -2.022  0.00  0.00     0.085 H 
ENDROOT
BRANCH   1  13
ATOM     13  C3  <0> d          -1.328   1.812   0.018  0.00  0.00    -0.025 C 
ATOM     14  H4  <0> d          -1.853   1.605   0.951  0.00  0.00     0.046 H 
ATOM     15  H5  <0> d          -1.145   2.883  -0.066  0.00  0.00     0.046 H 
BRANCH  13  16
ATOM     16  C2  <0> d          -0.013   1.076   0.008  0.00  0.00    -0.108 C 
ATOM     17  C1  <0> d           1.113   1.746   0.001  0.00  0.00    -0.124 C 
ATOM     18  H1  <0> d           1.098   2.826   0.007  0.00  0.00     0.066 H 
ATOM     19  H2  <0> d           2.055   1.219  -0.011  0.00  0.00     0.066 H 
ATOM     20  H3  <0> d           0.002  -0.004   0.002  0.00  0.00     0.076 H 
ENDBRANCH  13  16
ENDBRANCH   1  13
TORSDOF 2
