REMARK  4 active torsions:
REMARK  status: ('A' for Active; 'I' for Inactive)
REMARK    1  A    between atoms: C1_1  and  C2_2 
REMARK    2  A    between atoms: C4_4  and  O1_10 
REMARK    3  A    between atoms: C7_7  and  S1_8 
REMARK    4  A    between atoms: S1_8  and  C8_9 
ROOT
ATOM      1  C2  <0> d           1.161   3.176   0.007  0.00  0.00    -0.043 A 
ATOM      2  C3  <0> d          -0.046   3.848   0.022  0.00  0.00    -0.044 A 
ATOM      3  C4  <0> d          -1.236   3.137   0.029  0.00  0.00     0.066 A 
ATOM      4  C5  <0> d          -1.217   1.750   0.017  0.00  0.00    -0.050 A 
ATOM      5  C6  <0> d          -0.013   1.076   0.008  0.00  0.00    -0.064 A 
ATOM      6  C7  <0> d           1.181   1.787   0.000  0.00  0.00     0.006 A 
ATOM      7  H4  <0> d          -0.062   4.928   0.028  0.00  0.00     0.088 H 
ATOM      8  H5  <0> d          -2.145   1.197   0.019  0.00  0.00     0.087 H 
ATOM      9  H6  <0> d           0.002  -0.004   0.002  0.00  0.00     0.085 H 
ENDROOT
BRANCH   6  10
ATOM     10  S1  <0> d           2.719   0.928  -0.019  0.00  0.00    -0.134 SA
BRANCH  10  11
ATOM     11  C8  <0> d           2.244  -0.823  -0.024  0.00  0.00    -0.030 C 
ATOM     12  H7  <0> d           3.141  -1.442  -0.036  0.00  0.00     0.042 H 
ATOM     13  H8  <0> d           1.661  -1.044   0.871  0.00  0.00     0.042 H 
ATOM     14  H9  <0> d           1.645  -1.034  -0.909  0.00  0.00     0.042 H 
ENDBRANCH  10  11
ENDBRANCH   6  10
BRANCH   1  15
ATOM     15  C1  <0> d           2.454   3.949  -0.000  0.00  0.00    -0.050 C 
ATOM     16  H1  <0> d           2.757   4.140  -1.030  0.00  0.00     0.033 H 
ATOM     17  H2  <0> d           2.314   4.896   0.520  0.00  0.00     0.033 H 
ATOM     18  H3  <0> d           3.227   3.369   0.504  0.00  0.00     0.033 H 
ENDBRANCH   1  15
BRANCH   3  19
ATOM     19  O1  <0> d          -2.424   3.800   0.043  0.00  0.00    -0.361 OA
ATOM     20  H10 <0> d          -2.775   3.996  -0.837  0.00  0.00     0.217 HD
ENDBRANCH   3  19
TORSDOF 4
