REMARK  10 active torsions:
REMARK  status: ('A' for Active; 'I' for Inactive)
REMARK    1  A    between atoms: C1_1  and  C2_2 
REMARK    2  A    between atoms: C2_2  and  C3_3 
REMARK    3  A    between atoms: C3_3  and  C4_4 
REMARK    4  A    between atoms: C4_4  and  C5_6 
REMARK    5  A    between atoms: C4_4  and  C6_7 
REMARK    6  A    between atoms: C6_7  and  C7_9 
REMARK    7  A    between atoms: C6_7  and  O1_14 
REMARK    8  A    between atoms: C7_9  and  C8_11 
REMARK    9  A    between atoms: C7_9  and  C9_12 
REMARK   10  A    between atoms: C9_12  and  C10_13 
ROOT
ATOM      1  C6  <0> d          -0.630   1.667   3.762  0.00  0.00     0.042 C 
ATOM      2  H2  <0> d          -1.676   1.364   3.814  0.00  0.00     0.084 H 
ENDROOT
BRANCH   1   3
ATOM      3  C4  <0> d           0.011   1.072   2.506  0.00  0.00    -0.032 C 
ATOM      4  H1  <0> d           1.057   1.375   2.454  0.00  0.00     0.043 H 
BRANCH   3   5
ATOM      5  C3  <0> d          -0.729   1.579   1.267  0.00  0.00    -0.060 C 
ATOM      6  H9  <0> d          -0.744   2.669   1.273  0.00  0.00     0.033 H 
ATOM      7  H10 <0> d          -1.751   1.202   1.275  0.00  0.00     0.033 H 
BRANCH   5   8
ATOM      8  C2  <0> d          -0.013   1.086   0.008  0.00  0.00    -0.068 C 
ATOM      9  H7  <0> d           0.002  -0.004   0.002  0.00  0.00     0.032 H 
ATOM     10  H8  <0> d           1.010   1.463   0.000  0.00  0.00     0.032 H 
BRANCH   8  11
ATOM     11  C1  <0> d          -0.753   1.593  -1.232  0.00  0.00    -0.077 C 
ATOM     12  H4  <0> d          -0.242   1.241  -2.128  0.00  0.00     0.027 H 
ATOM     13  H5  <0> d          -1.775   1.215  -1.224  0.00  0.00     0.027 H 
ATOM     14  H6  <0> d          -0.767   2.683  -1.226  0.00  0.00     0.027 H 
ENDBRANCH   8  11
ENDBRANCH   5   8
ENDBRANCH   3   5
BRANCH   3  15
ATOM     15  C5  <0> d          -0.075  -0.454   2.563  0.00  0.00    -0.071 C 
ATOM     16  H11 <0> d          -1.121  -0.757   2.615  0.00  0.00     0.028 H 
ATOM     17  H12 <0> d           0.381  -0.878   1.669  0.00  0.00     0.028 H 
ATOM     18  H13 <0> d           0.452  -0.815   3.446  0.00  0.00     0.028 H 
ENDBRANCH   3  15
ENDBRANCH   1   3
BRANCH   1  19
ATOM     19  C7  <0> d           0.110   1.160   5.001  0.00  0.00    -0.033 C 
ATOM     20  H3  <0> d           0.125   0.070   4.995  0.00  0.00     0.043 H 
BRANCH  19  21
ATOM     21  C8  <0> d           1.545   1.690   4.990  0.00  0.00    -0.071 C 
ATOM     22  H14 <0> d           2.072   1.329   5.873  0.00  0.00     0.028 H 
ATOM     23  H15 <0> d           2.055   1.338   4.094  0.00  0.00     0.028 H 
ATOM     24  H16 <0> d           1.530   2.780   4.997  0.00  0.00     0.028 H 
ENDBRANCH  19  21
BRANCH  19  25
ATOM     25  C9  <0> d          -0.606   1.653   6.260  0.00  0.00    -0.063 C 
ATOM     26  H17 <0> d          -0.544   2.740   6.311  0.00  0.00     0.033 H 
ATOM     27  H18 <0> d          -1.653   1.351   6.225  0.00  0.00     0.033 H 
BRANCH  25  28
ATOM     28  C10 <0> d           0.059   1.046   7.497  0.00  0.00    -0.076 C 
ATOM     29  H19 <0> d          -0.004  -0.041   7.446  0.00  0.00     0.027 H 
ATOM     30  H20 <0> d           1.105   1.348   7.532  0.00  0.00     0.027 H 
ATOM     31  H21 <0> d          -0.451   1.397   8.393  0.00  0.00     0.027 H 
ENDBRANCH  25  28
ENDBRANCH  19  25
ENDBRANCH   1  19
BRANCH   1  32
ATOM     32  O1  <0> d          -0.549   3.093   3.708  0.00  0.00    -0.395 OA
ATOM     33  H22 <0> d           0.354   3.434   3.661  0.00  0.00     0.210 HD
ENDBRANCH   1  32
TORSDOF 10
