REMARK  2 active torsions:
REMARK  status: ('A' for Active; 'I' for Inactive)
REMARK    1  A    between atoms: C1_1  and  N1_2 
REMARK    2  A    between atoms: C6_7  and  N3_11 
ROOT
ATOM      1  N1  <0> d           0.002  -0.004   0.002  0.00  0.00    -0.274 N 
ATOM      2  C2  <0> d           1.311  -0.412  -0.013  0.00  0.00     0.066 A 
ATOM      3  C3  <0> d           1.930  -1.661  -0.025  0.00  0.00    -0.054 A 
ATOM      4  C4  <0> d           3.303  -1.748  -0.039  0.00  0.00    -0.079 A 
ATOM      5  C5  <0> d           4.087  -0.602  -0.041  0.00  0.00    -0.057 A 
ATOM      6  C6  <0> d           3.498   0.648  -0.028  0.00  0.00     0.039 A 
ATOM      7  C7  <0> d           2.096   0.755  -0.014  0.00  0.00     0.038 A 
ATOM      8  C8  <0> d           1.202   1.852   0.001  0.00  0.00     0.036 A 
ATOM      9  N2  <0> d          -0.017   1.396   0.010  0.00  0.00    -0.184 NA
ATOM     10  H4  <0> d           1.331  -2.559  -0.025  0.00  0.00     0.087 H 
ATOM     11  H5  <0> d           3.777  -2.719  -0.049  0.00  0.00     0.083 H 
ATOM     12  H6  <0> d           5.163  -0.688  -0.051  0.00  0.00     0.086 H 
ATOM     13  H7  <0> d           1.484   2.894   0.003  0.00  0.00     0.118 H 
ENDROOT
BRANCH   1  14
ATOM     14  C1  <0> d          -1.172  -0.880   0.009  0.00  0.00     0.003 C 
ATOM     15  H1  <0> d          -1.473  -1.092  -1.017  0.00  0.00     0.059 H 
ATOM     16  H2  <0> d          -0.926  -1.813   0.516  0.00  0.00     0.059 H 
ATOM     17  H3  <0> d          -1.990  -0.387   0.534  0.00  0.00     0.059 H 
ENDBRANCH   1  14
BRANCH   6  18
ATOM     18  N3  <0> d           4.290   1.796  -0.030  0.00  0.00    -0.398 N 
ATOM     19  H8  <0> d           5.256   1.718  -0.039  0.00  0.00     0.156 HD
ATOM     20  H9  <0> d           3.873   2.672  -0.021  0.00  0.00     0.156 HD
ENDBRANCH   6  18
TORSDOF 2
