REMARK  1 active torsions:
REMARK  status: ('A' for Active; 'I' for Inactive)
REMARK    1  A    between atoms: C4_5  and  C5_6 
ROOT
ATOM      1  C1  <0> d           2.096   0.725  -0.014  0.00  0.00    -0.040 A 
ATOM      2  C2  <0> d           1.290  -0.422  -0.013  0.00  0.00    -0.036 A 
ATOM      3  C3  <0> d           0.002  -0.004   0.002  0.00  0.00     0.145 A 
ATOM      4  O1  <0> d          -0.016   1.335   0.009  0.00  0.00    -0.292 OA
ATOM      5  C4  <0> d           1.251   1.800  -0.000  0.00  0.00     0.153 A 
ATOM      6 Cl1  <0> d          -1.395  -1.034   0.011  0.00  0.00    -0.057 Cl
ATOM      7  H1  <0> d           3.176   0.754  -0.024  0.00  0.00     0.088 H 
ATOM      8  H2  <0> d           1.632  -1.446  -0.021  0.00  0.00     0.089 H 
ENDROOT
BRANCH   5   9
ATOM      9  C5  <0> d           1.651   3.208   0.004  0.00  0.00     0.234 C 
ATOM     10  O2  <0> d           2.830   3.505  -0.007  0.00  0.00    -0.642 OA
ATOM     11  O3  <0> d           0.711   4.176   0.018  0.00  0.00    -0.642 OA
ENDBRANCH   5   9
TORSDOF 1
