REMARK  5 active torsions:
REMARK  status: ('A' for Active; 'I' for Inactive)
REMARK    1  A    between atoms: C1_1  and  N1_2 
REMARK    2  A    between atoms: C3_4  and  N2_11 
REMARK    3  A    between atoms: C5_6  and  C6_7 
REMARK    4  A    between atoms: C6_7  and  O2_9 
REMARK    5  A    between atoms: O2_9  and  C7_10 
ROOT
ATOM      1  N1  <0> d          -0.017   1.372   0.010  0.00  0.00    -0.354 N 
ATOM      2  C2  <0> d           1.265   1.825  -0.000  0.00  0.00     0.005 A 
ATOM      3  C3  <0> d           2.106   0.758  -0.014  0.00  0.00     0.043 A 
ATOM      4  C4  <0> d           1.323  -0.404  -0.013  0.00  0.00    -0.024 A 
ATOM      5  C5  <0> d           0.002  -0.004   0.002  0.00  0.00     0.112 A 
ATOM      6  H4  <0> d           1.566   2.862   0.002  0.00  0.00     0.115 H 
ATOM      7  H5  <0> d           1.685  -1.422  -0.022  0.00  0.00     0.090 H 
ENDROOT
BRANCH   5   8
ATOM      8  C6  <0> d          -1.168  -0.885   0.008  0.00  0.00     0.309 C 
ATOM      9  O1  <0> d          -1.021  -2.092   0.000  0.00  0.00    -0.258 OA
BRANCH   8  10
ATOM     10  O2  <0> d          -2.409  -0.357   0.022  0.00  0.00    -0.321 OA
BRANCH  10  11
ATOM     11  C7  <0> d          -3.505  -1.274   0.027  0.00  0.00     0.013 C 
ATOM     12  H6  <0> d          -4.443  -0.720   0.039  0.00  0.00     0.067 H 
ATOM     13  H7  <0> d          -3.462  -1.897  -0.866  0.00  0.00     0.067 H 
ATOM     14  H8  <0> d          -3.445  -1.907   0.913  0.00  0.00     0.067 H 
ENDBRANCH  10  11
ENDBRANCH   8  10
ENDBRANCH   5   8
BRANCH   1  15
ATOM     15  C1  <0> d          -1.218   2.210   0.020  0.00  0.00    -0.014 C 
ATOM     16  H1  <0> d          -1.511   2.412   1.050  0.00  0.00     0.057 H 
ATOM     17  H2  <0> d          -1.010   3.151  -0.490  0.00  0.00     0.057 H 
ATOM     18  H3  <0> d          -2.028   1.690  -0.493  0.00  0.00     0.057 H 
ENDBRANCH   1  15
BRANCH   3  19
ATOM     19  N2  <0> d           3.513   0.810  -0.027  0.00  0.00    -0.398 N 
ATOM     20  H9  <0> d           4.029  -0.011  -0.036  0.00  0.00     0.156 HD
ATOM     21  H10 <0> d           3.966   1.667  -0.027  0.00  0.00     0.156 HD
ENDBRANCH   3  19
TORSDOF 5
