REMARK  3 active torsions:
REMARK  status: ('A' for Active; 'I' for Inactive)
REMARK    1  A    between atoms: C1_1  and  C2_2 
REMARK    2  A    between atoms: C4_4  and  O1_8 
REMARK    3  A    between atoms: O1_8  and  C7_9 
ROOT
ATOM      1  C2  <0> d           0.002  -0.004   0.002  0.00  0.00     0.053 A 
ATOM      2  C3  <0> d           0.006  -0.689  -1.214  0.00  0.00     0.102 A 
ATOM      3  C4  <0> d           0.025  -2.095  -1.199  0.00  0.00     0.092 A 
ATOM      4  C5  <0> d           0.039  -2.739   0.035  0.00  0.00    -0.032 A 
ATOM      5  C6  <0> d           0.035  -1.982   1.189  0.00  0.00     0.005 A 
ATOM      6  N1  <0> d           0.022  -0.662   1.142  0.00  0.00    -0.264 NA
ATOM      7  C8  <0> d          -0.011   0.027  -2.454  0.00  0.00     0.104 C 
ATOM      8  N2  <0> d          -0.023   0.595  -3.438  0.00  0.00    -0.191 NA
ATOM      9  H4  <0> d           0.054  -3.817   0.089  0.00  0.00     0.090 H 
ATOM     10  H5  <0> d           0.045  -2.479   2.148  0.00  0.00     0.114 H 
ENDROOT
BRANCH   1  11
ATOM     11  C1  <0> d          -0.018   1.503   0.010  0.00  0.00    -0.034 C 
ATOM     12  H1  <0> d           1.004   1.880   0.003  0.00  0.00     0.035 H 
ATOM     13  H2  <0> d          -0.545   1.864  -0.873  0.00  0.00     0.035 H 
ATOM     14  H3  <0> d          -0.529   1.854   0.907  0.00  0.00     0.035 H 
ENDBRANCH   1  11
BRANCH   3  15
ATOM     15  O1  <0> d           0.029  -2.805  -2.354  0.00  0.00    -0.354 OA
BRANCH  15  16
ATOM     16  C7  <0> d           0.049  -4.229  -2.241  0.00  0.00     0.010 C 
ATOM     17  H6  <0> d           0.049  -4.673  -3.236  0.00  0.00     0.066 H 
ATOM     18  H7  <0> d           0.946  -4.538  -1.704  0.00  0.00     0.066 H 
ATOM     19  H8  <0> d          -0.834  -4.562  -1.695  0.00  0.00     0.066 H 
ENDBRANCH  15  16
ENDBRANCH   3  15
TORSDOF 3
