REMARK  1 active torsions:
REMARK  status: ('A' for Active; 'I' for Inactive)
REMARK    1  A    between atoms: C8_9  and  O1_11 
ROOT
ATOM      1  C1  <0> d           2.156  -0.753  -3.097  0.00  0.00    -0.065 A 
ATOM      2  C2  <0> d           1.790  -0.098  -1.932  0.00  0.00    -0.071 A 
ATOM      3  C3  <0> d           0.645  -0.513  -1.268  0.00  0.00    -0.005 A 
ATOM      4  C4  <0> d          -0.094  -1.562  -1.784  0.00  0.00     0.043 A 
ATOM      5  N1  <0> d           0.288  -2.162  -2.899  0.00  0.00    -0.265 NA
ATOM      6  C5  <0> d           1.369  -1.794  -3.555  0.00  0.00     0.003 A 
ATOM      7  C6  <0> d          -1.287  -1.829  -0.890  0.00  0.00    -0.022 C 
ATOM      8  C7  <0> d          -1.438  -0.559  -0.022  0.00  0.00    -0.032 C 
ATOM      9  C8  <0> d           0.002  -0.004   0.002  0.00  0.00     0.063 C 
ATOM     10  H1  <0> d           0.575  -0.260   0.905  0.00  0.00     0.090 H 
ATOM     11  H2  <0> d           3.041  -0.456  -3.639  0.00  0.00     0.085 H 
ATOM     12  H3  <0> d           2.384   0.719  -1.549  0.00  0.00     0.084 H 
ATOM     13  H4  <0> d           1.645  -2.311  -4.462  0.00  0.00     0.114 H 
ATOM     14  H5  <0> d          -2.179  -2.002  -1.511  0.00  0.00     0.042 H 
ATOM     15  H6  <0> d          -1.092  -2.718  -0.274  0.00  0.00     0.042 H 
ATOM     16  H7  <0> d          -2.154   0.127  -0.498  0.00  0.00     0.037 H 
ATOM     17  H8  <0> d          -1.806  -0.839   0.976  0.00  0.00     0.037 H 
ENDROOT
BRANCH   9  18
ATOM     18  O1  <0> d          -0.017   1.425   0.010  0.00  0.00    -0.391 OA
ATOM     19  H9  <0> d          -0.452   1.964   0.864  0.00  0.00     0.210 HD
ENDBRANCH   9  18
TORSDOF 1
