REMARK  4 active torsions:
REMARK  status: ('A' for Active; 'I' for Inactive)
REMARK    1  A    between atoms: C1_1  and  C2_2 
REMARK    2  A    between atoms: C4_4  and  C7_8 
REMARK    3  A    between atoms: C5_5  and  C6_7 
REMARK    4  A    between atoms: C7_8  and  C8_10 
ROOT
ATOM      1  C2  <0> d           0.002  -0.004   0.002  0.00  0.00     0.050 A 
ATOM      2  C3  <0> d          -1.080  -0.795   0.003  0.00  0.00    -0.039 A 
ATOM      3  C4  <0> d          -0.572  -2.176  -0.007  0.00  0.00     0.041 A 
ATOM      4  C5  <0> d           0.792  -2.064  -0.013  0.00  0.00     0.063 A 
ATOM      5  O1  <0> d           1.107  -0.766  -0.013  0.00  0.00    -0.319 OA
ATOM      6  H4  <0> d          -2.114  -0.483   0.010  0.00  0.00     0.088 H 
ENDROOT
BRANCH   3   7
ATOM      7  C7  <0> d          -1.360  -3.412  -0.010  0.00  0.00     0.158 C 
ATOM      8  O2  <0> d          -0.800  -4.489  -0.018  0.00  0.00    -0.293 OA
BRANCH   7   9
ATOM      9  C8  <0> d          -2.866  -3.346  -0.003  0.00  0.00    -0.017 C 
ATOM     10  H8  <0> d          -3.183  -2.303   0.003  0.00  0.00     0.038 H 
ATOM     11  H9  <0> d          -3.255  -3.838  -0.894  0.00  0.00     0.038 H 
ATOM     12  H10 <0> d          -3.248  -3.848   0.886  0.00  0.00     0.038 H 
ENDBRANCH   7   9
ENDBRANCH   3   7
BRANCH   4  13
ATOM     13  C6  <0> d           1.772  -3.210  -0.023  0.00  0.00    -0.030 C 
ATOM     14  H5  <0> d           2.003  -3.481  -1.053  0.00  0.00     0.036 H 
ATOM     15  H6  <0> d           2.687  -2.910   0.488  0.00  0.00     0.036 H 
ATOM     16  H7  <0> d           1.334  -4.067   0.488  0.00  0.00     0.036 H 
ENDBRANCH   4  13
BRANCH   1  17
ATOM     17  C1  <0> d          -0.018   1.503   0.010  0.00  0.00    -0.031 C 
ATOM     18  H1  <0> d           1.004   1.880   0.003  0.00  0.00     0.036 H 
ATOM     19  H2  <0> d          -0.545   1.864  -0.873  0.00  0.00     0.036 H 
ATOM     20  H3  <0> d          -0.529   1.854   0.907  0.00  0.00     0.036 H 
ENDBRANCH   1  17
TORSDOF 4
