REMARK  4 active torsions:
REMARK  status: ('A' for Active; 'I' for Inactive)
REMARK    1  A    between atoms: C1_1  and  C2_2 
REMARK    2  A    between atoms: C2_2  and  C3_3 
REMARK    3  A    between atoms: C3_3  and  C4_4 
REMARK    4  A    between atoms: C5_5  and  C7_9 
ROOT
ATOM      1  C3  <0> d           0.718  -0.497  -1.257  0.00  0.00    -0.018 C 
ATOM      2  H6  <0> d           0.191  -0.136  -2.140  0.00  0.00     0.043 H 
ATOM      3  H7  <0> d           1.741  -0.120  -1.264  0.00  0.00     0.043 H 
ENDROOT
BRANCH   1   4
ATOM      4  C2  <0> d           0.002  -0.004   0.002  0.00  0.00    -0.063 C 
ATOM      5  H4  <0> d           0.529  -0.365   0.885  0.00  0.00     0.033 H 
ATOM      6  H5  <0> d          -1.020  -0.381   0.010  0.00  0.00     0.033 H 
BRANCH   4   7
ATOM      7  C1  <0> d          -0.019   1.526   0.010  0.00  0.00    -0.076 C 
ATOM      8  H1  <0> d           1.004   1.903   0.003  0.00  0.00     0.027 H 
ATOM      9  H2  <0> d          -0.546   1.887  -0.873  0.00  0.00     0.027 H 
ATOM     10  H3  <0> d          -0.529   1.877   0.907  0.00  0.00     0.027 H 
ENDBRANCH   4   7
ENDBRANCH   1   4
BRANCH   1  11
ATOM     11  C4  <0> d           0.739  -2.004  -1.265  0.00  0.00     0.097 A 
ATOM     12  O1  <0> d           1.689  -2.780  -0.739  0.00  0.00    -0.217 OA
ATOM     13  N1  <0> d           1.352  -4.138  -0.943  0.00  0.00    -0.140 NA
ATOM     14  C6  <0> d           0.226  -4.202  -1.587  0.00  0.00     0.048 A 
ATOM     15  C5  <0> d          -0.217  -2.826  -1.822  0.00  0.00     0.092 A 
ATOM     16  H8  <0> d          -0.288  -5.102  -1.892  0.00  0.00     0.119 H 
BRANCH  15  17
ATOM     17  C7  <0> d          -1.442  -2.403  -2.516  0.00  0.00     0.213 C 
ATOM     18  O2  <0> d          -2.211  -3.243  -2.966  0.00  0.00    -0.644 OA
ATOM     19  O3  <0> d          -1.694  -1.213  -2.643  0.00  0.00    -0.644 OA
ENDBRANCH  15  17
ENDBRANCH   1  11
TORSDOF 4
