REMARK  7 active torsions:
REMARK  status: ('A' for Active; 'I' for Inactive)
REMARK    1  A    between atoms: C1_1  and  C2_2 
REMARK    2  A    between atoms: C2_2  and  C3_3 
REMARK    3  A    between atoms: C3_3  and  C4_5 
REMARK    4  A    between atoms: C3_3  and  C5_7 
REMARK    5  A    between atoms: C4_5  and  O1_6 
REMARK    6  A    between atoms: C5_7  and  C6_8 
REMARK    7  A    between atoms: C5_7  and  C7_9 
ROOT
ATOM      1  C3  <0> d          -2.037   1.251   1.140  0.00  0.00    -0.031 C 
ATOM      2  H1  <0> d          -1.854   0.178   1.069  0.00  0.00     0.043 H 
ENDROOT
BRANCH   1   3
ATOM      3  C2  <0> d          -0.704   2.000   1.081  0.00  0.00    -0.063 C 
ATOM      4  H5  <0> d          -0.115   1.763   1.967  0.00  0.00     0.033 H 
ATOM      5  H6  <0> d          -0.891   3.073   1.046  0.00  0.00     0.033 H 
BRANCH   3   6
ATOM      6  C1  <0> d           0.066   1.574  -0.171  0.00  0.00    -0.076 C 
ATOM      7  H2  <0> d           0.313   0.515  -0.103  0.00  0.00     0.027 H 
ATOM      8  H3  <0> d           0.983   2.157  -0.249  0.00  0.00     0.027 H 
ATOM      9  H4  <0> d          -0.551   1.747  -1.053  0.00  0.00     0.027 H 
ENDBRANCH   3   6
ENDBRANCH   1   3
BRANCH   1  10
ATOM     10  C4  <0> d          -2.739   1.562   2.463  0.00  0.00     0.020 C 
ATOM     11  H7  <0> d          -2.062   1.352   3.292  0.00  0.00     0.074 H 
ATOM     12  H8  <0> d          -3.023   2.614   2.485  0.00  0.00     0.074 H 
BRANCH  10  13
ATOM     13  O1  <0> d          -3.908   0.750   2.585  0.00  0.00    -0.400 OA
ATOM     14  H9  <0> d          -4.404   0.894   3.402  0.00  0.00     0.209 HD
ENDBRANCH  10  13
ENDBRANCH   1  10
BRANCH   1  15
ATOM     15  C5  <0> d          -2.923   1.695  -0.025  0.00  0.00    -0.056 C 
ATOM     16  H10 <0> d          -2.385   1.562  -0.963  0.00  0.00     0.039 H 
BRANCH  15  17
ATOM     17  C6  <0> d          -4.200   0.852  -0.045  0.00  0.00    -0.073 C 
ATOM     18  H11 <0> d          -4.813   1.101   0.821  0.00  0.00     0.028 H 
ATOM     19  H12 <0> d          -4.758   1.061  -0.957  0.00  0.00     0.028 H 
ATOM     20  H13 <0> d          -3.937  -0.205  -0.013  0.00  0.00     0.028 H 
ENDBRANCH  15  17
BRANCH  15  21
ATOM     21  C7  <0> d          -3.289   3.171   0.147  0.00  0.00    -0.073 C 
ATOM     22  H14 <0> d          -2.383   3.776   0.116  0.00  0.00     0.028 H 
ATOM     23  H15 <0> d          -3.958   3.476  -0.658  0.00  0.00     0.028 H 
ATOM     24  H16 <0> d          -3.787   3.312   1.107  0.00  0.00     0.028 H 
ENDBRANCH  15  21
ENDBRANCH   1  15
TORSDOF 7
