REMARK  1 active torsions:
REMARK  status: ('A' for Active; 'I' for Inactive)
REMARK    1  A    between atoms: C8_10  and  O1_11 
ROOT
ATOM      1  C1  <0> d          -0.017   1.388   0.010  0.00  0.00    -0.049 A 
ATOM      2  C2  <0> d           1.159   2.106   0.002  0.00  0.00    -0.054 A 
ATOM      3  C3  <0> d           2.380   1.440  -0.013  0.00  0.00     0.042 A 
ATOM      4  C4  <0> d           2.402   0.034  -0.021  0.00  0.00    -0.005 A 
ATOM      5  C5  <0> d           3.816  -0.349  -0.037  0.00  0.00    -0.056 A 
ATOM      6  C6  <0> d           4.531   0.787  -0.038  0.00  0.00    -0.022 A 
ATOM      7  N1  <0> d           3.691   1.867  -0.024  0.00  0.00    -0.365 N 
ATOM      8  H1  <0> d           3.975   2.794  -0.021  0.00  0.00     0.165 HD
ATOM      9  C7  <0> d           1.204  -0.684  -0.013  0.00  0.00    -0.039 A 
ATOM     10  C8  <0> d           0.002  -0.004   0.002  0.00  0.00     0.066 A 
ATOM     11  H2  <0> d          -0.962   1.910   0.026  0.00  0.00     0.087 H 
ATOM     12  H3  <0> d           1.133   3.185   0.008  0.00  0.00     0.087 H 
ATOM     13  H4  <0> d           4.209  -1.355  -0.046  0.00  0.00     0.086 H 
ATOM     14  H5  <0> d           5.609   0.841  -0.048  0.00  0.00     0.111 H 
ATOM     15  H6  <0> d           1.217  -1.764  -0.019  0.00  0.00     0.089 H 
ENDROOT
BRANCH  10  16
ATOM     16  O1  <0> d          -1.168  -0.697   0.009  0.00  0.00    -0.361 OA
ATOM     17  H7  <0> d          -1.515  -0.893  -0.872  0.00  0.00     0.217 HD
ENDBRANCH  10  16
TORSDOF 1
