REMARK  3 active torsions:
REMARK  status: ('A' for Active; 'I' for Inactive)
REMARK    1  A    between atoms: C1_1  and  C2_2 
REMARK    2  A    between atoms: C5_5  and  N1_9 
REMARK    3  A    between atoms: C6_6  and  O1_8 
ROOT
ATOM      1  C2  <0> d           0.041  -2.774  -0.013  0.00  0.00    -0.059 A 
ATOM      2  C3  <0> d           1.228  -2.065  -0.021  0.00  0.00    -0.075 A 
ATOM      3  C4  <0> d           1.212  -0.683  -0.013  0.00  0.00    -0.054 A 
ATOM      4  C5  <0> d           0.002  -0.004   0.002  0.00  0.00     0.059 A 
ATOM      5  C6  <0> d          -1.194  -0.719   0.015  0.00  0.00     0.092 A 
ATOM      6  C7  <0> d          -1.169  -2.104   0.002  0.00  0.00    -0.043 A 
ATOM      7  H4  <0> d           2.170  -2.593  -0.032  0.00  0.00     0.084 H 
ATOM      8  H5  <0> d           2.140  -0.132  -0.019  0.00  0.00     0.087 H 
ATOM      9  H6  <0> d          -2.094  -2.660   0.008  0.00  0.00     0.088 H 
ENDROOT
BRANCH   1  10
ATOM     10  C1  <0> d           0.065  -4.281  -0.021  0.00  0.00    -0.051 C 
ATOM     11  H1  <0> d           0.080  -4.649   1.004  0.00  0.00     0.033 H 
ATOM     12  H2  <0> d          -0.824  -4.656  -0.529  0.00  0.00     0.033 H 
ATOM     13  H3  <0> d           0.956  -4.627  -0.545  0.00  0.00     0.033 H 
ENDBRANCH   1  10
BRANCH   5  14
ATOM     14  O1  <0> d          -2.382  -0.059   0.036  0.00  0.00    -0.358 OA
ATOM     15  H7  <0> d          -2.739   0.137  -0.841  0.00  0.00     0.217 HD
ENDBRANCH   5  14
BRANCH   4  16
ATOM     16  N1  <0> d          -0.017   1.395   0.010  0.00  0.00    -0.397 N 
ATOM     17  H8  <0> d           0.816   1.892   0.004  0.00  0.00     0.156 HD
ATOM     18  H9  <0> d          -0.863   1.869   0.016  0.00  0.00     0.156 HD
ENDBRANCH   4  16
TORSDOF 3
