REMARK  3 active torsions:
REMARK  status: ('A' for Active; 'I' for Inactive)
REMARK    1  A    between atoms: C3_3  and  C7_10 
REMARK    2  A    between atoms: C4_5  and  C6_7 
REMARK    3  A    between atoms: C7_10  and  O3_11 
ROOT
ATOM      1  C1  <0> d           2.511   5.099   0.005  0.00  0.00    -0.079 A 
ATOM      2  C2  <0> d           1.312   5.793   0.020  0.00  0.00    -0.057 A 
ATOM      3  C3  <0> d           0.119   5.088   0.027  0.00  0.00     0.059 A 
ATOM      4  N1  <0> d           0.112   3.772   0.016  0.00  0.00    -0.244 NA
ATOM      5  C4  <0> d           1.238   3.070   0.007  0.00  0.00     0.133 A 
ATOM      6  C5  <0> d           2.474   3.714  -0.002  0.00  0.00    -0.048 A 
ATOM      7  H1  <0> d           3.454   5.626  -0.002  0.00  0.00     0.083 H 
ATOM      8  H2  <0> d           1.306   6.873   0.026  0.00  0.00     0.086 H 
ATOM      9  H3  <0> d           3.389   3.141  -0.013  0.00  0.00     0.087 H 
ENDROOT
BRANCH   3  10
ATOM     10  C7  <0> d          -1.188   5.838   0.043  0.00  0.00     0.056 C 
ATOM     11  H4  <0> d          -1.773   5.575  -0.851  0.00  0.00     0.083 H 
ATOM     12  H5  <0> d          -1.756   5.566   0.946  0.00  0.00     0.083 H 
BRANCH  10  13
ATOM     13  O3  <0> d          -0.931   7.243   0.048  0.00  0.00    -0.395 OA
ATOM     14  H6  <0> d          -1.769   7.956   0.059  0.00  0.00     0.209 HD
ENDBRANCH  10  13
ENDBRANCH   3  10
BRANCH   5  15
ATOM     15  C6  <0> d           1.181   1.591  -0.001  0.00  0.00     0.228 C 
ATOM     16  O1  <0> d           2.208   0.943  -0.014  0.00  0.00    -0.643 OA
ATOM     17  O2  <0> d          -0.011   0.963   0.007  0.00  0.00    -0.643 OA
ENDBRANCH   5  15
TORSDOF 3
