REMARK  1 active torsions:
REMARK  status: ('A' for Active; 'I' for Inactive)
REMARK    1  A    between atoms: C4_4  and  C7_7 
ROOT
ATOM      1  C1  <0> d          -0.056   4.244   0.024  0.00  0.00    -0.083 A 
ATOM      2  C2  <0> d           1.153   3.571   0.010  0.00  0.00    -0.082 A 
ATOM      3  C3  <0> d           1.179   2.192   0.003  0.00  0.00    -0.069 A 
ATOM      4  C4  <0> d          -0.018   1.475   0.010  0.00  0.00     0.010 A 
ATOM      5  C5  <0> d          -1.234   2.159   0.020  0.00  0.00    -0.069 A 
ATOM      6  C6  <0> d          -1.246   3.539   0.032  0.00  0.00    -0.082 A 
ATOM      7  H2  <0> d          -0.070   5.324   0.029  0.00  0.00     0.083 H 
ATOM      8  H3  <0> d           2.079   4.127   0.004  0.00  0.00     0.083 H 
ATOM      9  H4  <0> d           2.123   1.668  -0.009  0.00  0.00     0.085 H 
ATOM     10  H5  <0> d          -2.164   1.610   0.021  0.00  0.00     0.085 H 
ATOM     11  H6  <0> d          -2.186   4.069   0.043  0.00  0.00     0.083 H 
ENDROOT
BRANCH   4  12
ATOM     12  C7  <0> d           0.002  -0.004   0.002  0.00  0.00     0.137 A 
ATOM     13  N2  <0> d           1.078  -0.759  -0.018  0.00  0.00    -0.241 NA
ATOM     14  C9  <0> d           0.714  -2.046  -0.017  0.00  0.00     0.019 A 
ATOM     15  C8  <0> d          -0.634  -2.107  -0.004  0.00  0.00    -0.004 A 
ATOM     16  H8  <0> d           1.384  -2.893  -0.028  0.00  0.00     0.117 H 
ATOM     17  N1  <0> d          -1.093  -0.818   0.008  0.00  0.00    -0.349 N 
ATOM     18  H7  <0> d          -1.236  -3.003  -0.003  0.00  0.00     0.113 H 
ATOM     19  H1  <0> d          -2.050  -0.527   0.019  0.00  0.00     0.167 HD
ENDBRANCH   4  12
TORSDOF 1
