REMARK  2 active torsions:
REMARK  status: ('A' for Active; 'I' for Inactive)
REMARK    1  A    between atoms: C1_1  and  C2_2 
REMARK    2  A    between atoms: C7_7  and  C8_8 
ROOT
ATOM      1  C2  <0> d           2.397   1.396  -0.012  0.00  0.00    -0.049 A 
ATOM      2  C3  <0> d           2.402   0.016  -0.021  0.00  0.00    -0.076 A 
ATOM      3  C4  <0> d           1.208  -0.683  -0.014  0.00  0.00    -0.082 A 
ATOM      4  C5  <0> d           0.002  -0.004   0.002  0.00  0.00    -0.082 A 
ATOM      5  C6  <0> d          -0.017   1.375   0.010  0.00  0.00    -0.070 A 
ATOM      6  C7  <0> d           1.185   2.086   0.002  0.00  0.00     0.004 A 
ATOM      7  H4  <0> d           3.340  -0.520  -0.033  0.00  0.00     0.084 H 
ATOM      8  H5  <0> d           1.217  -1.763  -0.020  0.00  0.00     0.083 H 
ATOM      9  H6  <0> d          -0.926  -0.555   0.008  0.00  0.00     0.083 H 
ATOM     10  H7  <0> d          -0.959   1.904   0.017  0.00  0.00     0.084 H 
ENDROOT
BRANCH   6  11
ATOM     11  C8  <0> d           1.172   3.564   0.009  0.00  0.00     0.085 A 
ATOM     12  O1  <0> d           1.870   4.356   0.846  0.00  0.00    -0.322 OA
ATOM     13  C11 <0> d           1.615   5.643   0.559  0.00  0.00     0.019 A 
ATOM     14  C10 <0> d           0.740   5.692  -0.464  0.00  0.00    -0.059 A 
ATOM     15  H10 <0> d           2.039   6.497   1.067  0.00  0.00     0.123 H 
ATOM     16  C9  <0> d           0.450   4.360  -0.823  0.00  0.00    -0.048 A 
ATOM     17  H9  <0> d           0.337   6.583  -0.923  0.00  0.00     0.086 H 
ATOM     18  H8  <0> d          -0.217   4.035  -1.608  0.00  0.00     0.087 H 
ENDBRANCH   6  11
BRANCH   1  19
ATOM     19  C1  <0> d           3.699   2.155  -0.019  0.00  0.00    -0.050 C 
ATOM     20  H1  <0> d           4.004   2.345  -1.048  0.00  0.00     0.033 H 
ATOM     21  H2  <0> d           3.569   3.104   0.501  0.00  0.00     0.033 H 
ATOM     22  H3  <0> d           4.466   1.567   0.484  0.00  0.00     0.033 H 
ENDBRANCH   1  19
TORSDOF 2
