REMARK  6 active torsions:
REMARK  status: ('A' for Active; 'I' for Inactive)
REMARK    1  A    between atoms: C2_2  and  C3_3 
REMARK    2  A    between atoms: C3_3  and  N1_4 
REMARK    3  A    between atoms: N1_4  and  C4_5 
REMARK    4  A    between atoms: N1_4  and  C7_8 
REMARK    5  A    between atoms: C4_5  and  C5_6 
REMARK    6  A    between atoms: C7_8  and  C8_9 
ROOT
ATOM      1  C1  <0> d           0.018  -1.178  -0.004  0.00  0.00    -0.152 C 
ATOM      2  C2  <0> d           0.002  -0.004   0.002  0.00  0.00    -0.087 C 
ATOM      3  H1  <0> d           0.033  -2.278  -0.010  0.00  0.00     0.166 H 
ENDROOT
BRANCH   2   4
ATOM      4  C3  <0> d          -0.018   1.468   0.010  0.00  0.00     0.168 C 
ATOM      5  H2  <0> d           1.014   1.849   0.002  0.00  0.00     0.099 H 
ATOM      6  H3  <0> d          -0.550   1.832  -0.881  0.00  0.00     0.099 H 
BRANCH   4   7
ATOM      7  N1  <0> d          -0.706   1.942   1.219  0.00  0.00     0.120 N 
BRANCH   7   8
ATOM      8  C4  <0> d          -0.540   3.392   1.384  0.00  0.00     0.168 C 
ATOM      9  H4  <0> d           0.524   3.653   1.291  0.00  0.00     0.099 H 
ATOM     10  H5  <0> d          -1.116   3.917   0.608  0.00  0.00     0.099 H 
BRANCH   8  11
ATOM     11  C5  <0> d          -1.029   3.793   2.713  0.00  0.00    -0.087 C 
ATOM     12  C6  <0> d          -1.419   4.113   3.773  0.00  0.00    -0.152 C 
ATOM     13  H6  <0> d          -1.768   4.399   4.722  0.00  0.00     0.166 H 
ENDBRANCH   8  11
ENDBRANCH   7   8
BRANCH   7  14
ATOM     14  C7  <0> d          -2.127   1.573   1.194  0.00  0.00     0.168 C 
ATOM     15  H7  <0> d          -2.646   2.164   0.425  0.00  0.00     0.099 H 
ATOM     16  H8  <0> d          -2.224   0.502   0.962  0.00  0.00     0.099 H 
BRANCH  14  17
ATOM     17  C8  <0> d          -2.728   1.846   2.510  0.00  0.00    -0.087 C 
ATOM     18  C9  <0> d          -3.207   2.064   3.560  0.00  0.00    -0.152 C 
ATOM     19  H9  <0> d          -3.635   2.259   4.498  0.00  0.00     0.166 H 
ENDBRANCH  14  17
ENDBRANCH   7  14
ENDBRANCH   4   7
ENDBRANCH   2   4
TORSDOF 6
