REMARK  7 active torsions:
REMARK  status: ('A' for Active; 'I' for Inactive)
REMARK    1  A    between atoms: C1_1  and  C2_2 
REMARK    2  A    between atoms: C2_2  and  C3_4 
REMARK    3  A    between atoms: C2_2  and  O2_9 
REMARK       I    between atoms: C3_4  and  N1_6 
REMARK    4  A    between atoms: N1_6  and  C4_7 
REMARK    5  A    between atoms: N1_6  and  C5_8 
REMARK    6  A    between atoms: O2_9  and  C6_10 
REMARK    7  A    between atoms: C6_10  and  C7_12 
ROOT
ATOM      1  C2  <0> d          -1.015  -2.161  -0.093  0.00  0.00     0.121 C 
ATOM      2  H1  <0> d          -0.139  -2.612  -0.559  0.00  0.00     0.098 H 
ENDROOT
BRANCH   1   3
ATOM      3  C1  <0> d          -0.972  -2.408   1.417  0.00  0.00    -0.043 C 
ATOM      4  H2  <0> d          -0.884  -3.477   1.608  0.00  0.00     0.031 H 
ATOM      5  H3  <0> d          -0.113  -1.891   1.845  0.00  0.00     0.031 H 
ATOM      6  H4  <0> d          -1.888  -2.031   1.873  0.00  0.00     0.031 H 
ENDBRANCH   1   3
BRANCH   1   7
ATOM      7  C3  <0> d          -2.264  -2.777  -0.667  0.00  0.00     0.248 C 
ATOM      8  O1  <0> d          -3.187  -2.070  -1.011  0.00  0.00    -0.270 OA
ATOM      9  N1  <0> d          -2.355  -4.116  -0.800  0.00  0.00    -0.359 N 
BRANCH   9  10
ATOM     10  C4  <0> d          -3.524  -4.709  -1.454  0.00  0.00    -0.017 C 
ATOM     11  H5  <0> d          -3.335  -4.799  -2.524  0.00  0.00     0.056 H 
ATOM     12  H6  <0> d          -3.713  -5.697  -1.035  0.00  0.00     0.056 H 
ATOM     13  H7  <0> d          -4.394  -4.072  -1.292  0.00  0.00     0.056 H 
ENDBRANCH   9  10
BRANCH   9  14
ATOM     14  C5  <0> d          -1.286  -4.977  -0.289  0.00  0.00    -0.017 C 
ATOM     15  H8  <0> d          -0.486  -4.360   0.119  0.00  0.00     0.056 H 
ATOM     16  H9  <0> d          -1.682  -5.623   0.493  0.00  0.00     0.056 H 
ATOM     17  H10 <0> d          -0.893  -5.589  -1.102  0.00  0.00     0.056 H 
ENDBRANCH   9  14
ENDBRANCH   1   7
BRANCH   1  18
ATOM     18  O2  <0> d          -1.018  -0.732  -0.349  0.00  0.00    -0.307 OA
BRANCH  18  19
ATOM     19  C6  <0> d           0.176  -0.135  -0.491  0.00  0.00     0.255 C 
ATOM     20  O3  <0> d           1.190  -0.785  -0.404  0.00  0.00    -0.266 OA
BRANCH  19  21
ATOM     21  C7  <0> d           0.251   1.346  -0.760  0.00  0.00     0.004 C 
ATOM     22  H11 <0> d           1.295   1.647  -0.844  0.00  0.00     0.041 H 
ATOM     23  H12 <0> d          -0.269   1.573  -1.690  0.00  0.00     0.041 H 
ATOM     24  H13 <0> d          -0.218   1.888   0.061  0.00  0.00     0.041 H 
ENDBRANCH  19  21
ENDBRANCH  18  19
ENDBRANCH   1  18
TORSDOF 7
