REMARK  0 active torsions:
REMARK  status: ('A' for Active; 'I' for Inactive)
ROOT
ATOM      1  C1  <0> d           0.530   4.029   0.020  0.00  0.00    -0.065 A 
ATOM      2  C2  <0> d           1.597   3.147   0.004  0.00  0.00    -0.066 A 
ATOM      3  C3  <0> d           1.317   1.783  -0.001  0.00  0.00     0.040 A 
ATOM      4  C4  <0> d           2.139   0.558  -0.015  0.00  0.00     0.081 A 
ATOM      5  C5  <0> d           1.256  -0.476  -0.013  0.00  0.00     0.042 A 
ATOM      6  O1  <0> d           0.002  -0.004   0.002  0.00  0.00    -0.302 OA
ATOM      7  C6  <0> d          -0.016   1.344   0.009  0.00  0.00     0.180 A 
ATOM      8  N1  <0> d          -0.999   2.233   0.028  0.00  0.00    -0.236 NA
ATOM      9  C7  <0> d          -0.762   3.528   0.030  0.00  0.00     0.005 A 
ATOM     10  C8  <0> d           3.568   0.474  -0.029  0.00  0.00     0.102 C 
ATOM     11  N2  <0> d           4.702   0.409  -0.040  0.00  0.00    -0.191 NA
ATOM     12  H1  <0> d           0.703   5.095   0.025  0.00  0.00     0.085 H 
ATOM     13  H2  <0> d           2.615   3.506  -0.003  0.00  0.00     0.085 H 
ATOM     14  H3  <0> d           1.525  -1.522  -0.020  0.00  0.00     0.126 H 
ATOM     15  H4  <0> d          -1.594   4.217   0.042  0.00  0.00     0.114 H 
ENDROOT
TORSDOF 0
