REMARK  2 active torsions:
REMARK  status: ('A' for Active; 'I' for Inactive)
REMARK    1  A    between atoms: C4_4  and  O1_12 
REMARK    2  A    between atoms: C5_5  and  N1_7 
ROOT
ATOM      1  C1  <0> d          -0.013   1.076   0.008  0.00  0.00    -0.081 A 
ATOM      2  C2  <0> d          -1.220   1.749   0.017  0.00  0.00    -0.080 A 
ATOM      3  C3  <0> d          -1.245   3.131   0.031  0.00  0.00    -0.049 A 
ATOM      4  C4  <0> d          -0.058   3.846   0.023  0.00  0.00     0.092 A 
ATOM      5  C5  <0> d           1.159   3.168   0.008  0.00  0.00     0.071 A 
ATOM      6  C6  <0> d           1.176   1.781   0.000  0.00  0.00    -0.054 A 
ATOM      7  H1  <0> d           0.002  -0.004   0.002  0.00  0.00     0.083 H 
ATOM      8  H2  <0> d          -2.147   1.194   0.019  0.00  0.00     0.083 H 
ATOM      9  H3  <0> d          -2.190   3.654   0.043  0.00  0.00     0.087 H 
ATOM     10  H4  <0> d           2.118   1.253  -0.011  0.00  0.00     0.087 H 
ENDROOT
BRANCH   5  11
ATOM     11  N1  <0> d           2.364   3.887   0.001  0.00  0.00    -0.330 N 
ATOM     12  C10 <0> d           3.421   3.677   0.840  0.00  0.00    -0.015 A 
ATOM     13  C9  <0> d           4.390   4.561   0.526  0.00  0.00    -0.066 A 
ATOM     14  H8  <0> d           3.472   2.932   1.620  0.00  0.00     0.112 H 
ATOM     15  C8  <0> d           3.916   5.345  -0.545  0.00  0.00    -0.066 A 
ATOM     16  H7  <0> d           5.353   4.651   1.006  0.00  0.00     0.085 H 
ATOM     17  C7  <0> d           2.677   4.907  -0.850  0.00  0.00    -0.015 A 
ATOM     18  H6  <0> d           4.449   6.146  -1.035  0.00  0.00     0.085 H 
ATOM     19  H5  <0> d           2.042   5.298  -1.631  0.00  0.00     0.112 H 
ENDBRANCH   5  11
BRANCH   4  20
ATOM     20  O1  <0> d          -0.081   5.205   0.031  0.00  0.00    -0.358 OA
ATOM     21  H9  <0> d          -0.096   5.603  -0.850  0.00  0.00     0.217 HD
ENDBRANCH   4  20
TORSDOF 2
