REMARK  3 active torsions:
REMARK  status: ('A' for Active; 'I' for Inactive)
REMARK    1  A    between atoms: C1_1  and  C2_2 
REMARK    2  A    between atoms: C7_7  and  N1_8 
REMARK    3  A    between atoms: N1_8  and  C8_9 
ROOT
ATOM      1  C2  <0> d          -2.680   1.649   2.587  0.00  0.00    -0.036 A 
ATOM      2  C3  <0> d          -3.996   1.294   2.813  0.00  0.00    -0.075 A 
ATOM      3  C4  <0> d          -4.665   0.496   1.904  0.00  0.00    -0.082 A 
ATOM      4  C5  <0> d          -4.019   0.049   0.765  0.00  0.00    -0.081 A 
ATOM      5  C6  <0> d          -2.705   0.403   0.531  0.00  0.00    -0.057 A 
ATOM      6  C7  <0> d          -2.029   1.202   1.445  0.00  0.00     0.033 A 
ATOM      7  H4  <0> d          -4.503   1.641   3.701  0.00  0.00     0.084 H 
ATOM      8  H5  <0> d          -5.694   0.221   2.083  0.00  0.00     0.083 H 
ATOM      9  H6  <0> d          -4.544  -0.574   0.057  0.00  0.00     0.083 H 
ATOM     10  H7  <0> d          -2.203   0.058  -0.360  0.00  0.00     0.086 H 
ENDROOT
BRANCH   6  11
ATOM     11  N1  <0> d          -0.698   1.558   1.213  0.00  0.00    -0.394 N 
ATOM     12  H8  <0> d          -0.229   2.119   1.850  0.00  0.00     0.159 HD
BRANCH  11  13
ATOM     13  C8  <0> d          -0.013   1.086   0.008  0.00  0.00    -0.021 C 
ATOM     14  H9  <0> d           0.002  -0.004   0.002  0.00  0.00     0.056 H 
ATOM     15  H10 <0> d           1.010   1.463   0.000  0.00  0.00     0.056 H 
ATOM     16  H11 <0> d          -0.540   1.447  -0.875  0.00  0.00     0.056 H 
ENDBRANCH  11  13
ENDBRANCH   6  11
BRANCH   1  17
ATOM     17  C1  <0> d          -1.953   2.520   3.579  0.00  0.00    -0.049 C 
ATOM     18  H1  <0> d          -2.090   3.567   3.312  0.00  0.00     0.033 H 
ATOM     19  H2  <0> d          -2.352   2.344   4.578  0.00  0.00     0.033 H 
ATOM     20  H3  <0> d          -0.890   2.277   3.564  0.00  0.00     0.033 H 
ENDBRANCH   1  17
TORSDOF 3
