REMARK  3 active torsions:
REMARK  status: ('A' for Active; 'I' for Inactive)
REMARK    1  A    between atoms: C1_1  and  O1_2 
REMARK    2  A    between atoms: O1_2  and  C2_3 
REMARK       I    between atoms: C2_3  and  N1_5 
REMARK    3  A    between atoms: N1_5  and  N2_6 
ROOT
ATOM      1  C2  <0> d          -0.924  -2.197  -0.000  0.00  0.00     0.379 C 
ATOM      2  O2  <0> d           0.201  -2.657  -0.014  0.00  0.00    -0.237 OA
ATOM      3  N1  <0> d          -1.105  -0.862   0.009  0.00  0.00    -0.237 N 
ATOM      4  H4  <0> d          -2.003  -0.495   0.020  0.00  0.00     0.193 HD
ENDROOT
BRANCH   3   5
ATOM      5  N2  <0> d           0.002  -0.004   0.002  0.00  0.00    -0.236 N 
ATOM      6  C4  <0> d           1.309  -0.361  -0.012  0.00  0.00     0.108 A 
ATOM      7  N4  <0> d           2.012   0.739  -0.013  0.00  0.00    -0.142 NA
ATOM      8  H6  <0> d           1.698  -1.368  -0.021  0.00  0.00     0.149 H 
ATOM      9  N3  <0> d           1.224   1.756  -0.000  0.00  0.00    -0.142 NA
ATOM     10  C3  <0> d          -0.016   1.351   0.009  0.00  0.00     0.108 A 
ATOM     11  H5  <0> d          -0.895   1.979   0.017  0.00  0.00     0.149 H 
ENDBRANCH   3   5
BRANCH   1  12
ATOM     12  O1  <0> d          -1.988  -3.022   0.006  0.00  0.00    -0.308 OA
BRANCH  12  13
ATOM     13  C1  <0> d          -1.717  -4.448  -0.004  0.00  0.00     0.015 C 
ATOM     14  H1  <0> d          -1.135  -4.714   0.878  0.00  0.00     0.067 H 
ATOM     15  H2  <0> d          -2.659  -4.997   0.002  0.00  0.00     0.067 H 
ATOM     16  H3  <0> d          -1.153  -4.705  -0.901  0.00  0.00     0.067 H 
ENDBRANCH  12  13
ENDBRANCH   1  12
TORSDOF 3
