REMARK  2 active torsions:
REMARK  status: ('A' for Active; 'I' for Inactive)
REMARK    1  A    between atoms: C4_5  and  C5_7 
REMARK    2  A    between atoms: C5_7  and  O1_8 
ROOT
ATOM      1  C1  <0> d           0.002  -0.004   0.002  0.00  0.00     0.019 A 
ATOM      2  C2  <0> d          -0.017   1.379   0.010  0.00  0.00     0.021 A 
ATOM      3  N1  <0> d           1.118   2.056   0.002  0.00  0.00    -0.245 NA
ATOM      4  C3  <0> d           2.272   1.410  -0.012  0.00  0.00     0.152 A 
ATOM      5  C4  <0> d           2.291   0.025  -0.020  0.00  0.00     0.098 A 
ATOM      6  N2  <0> d           1.155  -0.650  -0.013  0.00  0.00    -0.259 NA
ATOM      7 Cl1  <0> d           3.764   2.298  -0.022  0.00  0.00    -0.060 Cl
ATOM      8  H1  <0> d          -0.926  -0.556   0.008  0.00  0.00     0.117 H 
ATOM      9  H2  <0> d          -0.959   1.906   0.017  0.00  0.00     0.117 H 
ENDROOT
BRANCH   5  10
ATOM     10  C5  <0> d           3.605  -0.711  -0.037  0.00  0.00     0.059 C 
ATOM     11  H3  <0> d           4.369  -0.110   0.478  0.00  0.00     0.083 H 
ATOM     12  H4  <0> d           3.491  -1.677   0.478  0.00  0.00     0.083 H 
BRANCH  10  13
ATOM     13  O1  <0> d           4.008  -0.937  -1.389  0.00  0.00    -0.395 OA
ATOM     14  H5  <0> d           4.949  -1.464  -1.602  0.00  0.00     0.209 HD
ENDBRANCH  10  13
ENDBRANCH   5  10
TORSDOF 2
