REMARK  4 active torsions:
REMARK  status: ('A' for Active; 'I' for Inactive)
REMARK    1  A    between atoms: C3_3  and  O2_10 
REMARK    2  A    between atoms: C6_6  and  C7_7 
REMARK    3  A    between atoms: C7_7  and  C8_8 
REMARK    4  A    between atoms: C8_8  and  O1_9 
ROOT
ATOM      1  C1  <0> d          -0.017   1.378   0.010  0.00  0.00    -0.074 A 
ATOM      2  C2  <0> d           1.169   2.087   0.002  0.00  0.00    -0.051 A 
ATOM      3  C3  <0> d           2.380   1.409  -0.013  0.00  0.00     0.065 A 
ATOM      4  C4  <0> d           2.396   0.022  -0.021  0.00  0.00    -0.051 A 
ATOM      5  C5  <0> d           1.207  -0.681  -0.013  0.00  0.00    -0.074 A 
ATOM      6  C6  <0> d           0.002  -0.004   0.002  0.00  0.00    -0.056 A 
ATOM      7  H1  <0> d          -0.959   1.905   0.026  0.00  0.00     0.084 H 
ATOM      8  H2  <0> d           1.154   3.166   0.008  0.00  0.00     0.087 H 
ATOM      9  H3  <0> d           3.337  -0.507  -0.033  0.00  0.00     0.087 H 
ATOM     10  H4  <0> d           1.219  -1.761  -0.019  0.00  0.00     0.084 H 
ENDROOT
BRANCH   6  11
ATOM     11  C7  <0> d          -1.293  -0.774   0.011  0.00  0.00    -0.021 C 
ATOM     12  H5  <0> d          -1.146  -1.727   0.518  0.00  0.00     0.043 H 
ATOM     13  H6  <0> d          -2.055  -0.197   0.535  0.00  0.00     0.043 H 
BRANCH  11  14
ATOM     14  C8  <0> d          -1.746  -1.027  -1.429  0.00  0.00     0.020 C 
ATOM     15  H7  <0> d          -1.893  -0.073  -1.936  0.00  0.00     0.074 H 
ATOM     16  H8  <0> d          -0.984  -1.603  -1.953  0.00  0.00     0.074 H 
BRANCH  14  17
ATOM     17  O1  <0> d          -2.974  -1.757  -1.421  0.00  0.00    -0.401 OA
ATOM     18  H9  <0> d          -3.321  -1.953  -2.302  0.00  0.00     0.209 HD
ENDBRANCH  14  17
ENDBRANCH  11  14
ENDBRANCH   6  11
BRANCH   3  19
ATOM     19  O2  <0> d           3.548   2.104  -0.021  0.00  0.00    -0.361 OA
ATOM     20  H10 <0> d           3.895   2.300   0.860  0.00  0.00     0.217 HD
ENDBRANCH   3  19
TORSDOF 4
