REMARK  0 active torsions:
REMARK  status: ('A' for Active; 'I' for Inactive)
ROOT
ATOM      1  C1  <0> d          -0.018   1.459   0.010  0.00  0.00    -0.031 A 
ATOM      2  C2  <0> d           1.266   1.852  -0.000  0.00  0.00     0.022 A 
ATOM      3  O1  <0> d           2.078   0.781  -0.014  0.00  0.00    -0.317 OA
ATOM      4  C3  <0> d           1.365  -0.359  -0.013  0.00  0.00     0.144 A 
ATOM      5  C4  <0> d           0.002  -0.004   0.002  0.00  0.00     0.097 A 
ATOM      6  N1  <0> d          -0.921  -0.962   0.005  0.00  0.00    -0.239 NA
ATOM      7  C5  <0> d          -0.562  -2.228  -0.005  0.00  0.00     0.089 A 
ATOM      8  N2  <0> d           0.705  -2.600  -0.019  0.00  0.00    -0.227 NA
ATOM      9  C6  <0> d           1.687  -1.711  -0.023  0.00  0.00     0.163 A 
ATOM     10 Cl1  <0> d           3.345  -2.225  -0.041  0.00  0.00    -0.059 Cl
ATOM     11  H1  <0> d          -0.890   2.095   0.026  0.00  0.00     0.090 H 
ATOM     12  H2  <0> d           1.598   2.880   0.002  0.00  0.00     0.123 H 
ATOM     13  H3  <0> d          -1.329  -2.989  -0.002  0.00  0.00     0.146 H 
ENDROOT
TORSDOF 0
