REMARK  2 active torsions:
REMARK  status: ('A' for Active; 'I' for Inactive)
REMARK    1  A    between atoms: N1_4  and  S1_6 
REMARK    2  A    between atoms: S1_6  and  N2_9 
ROOT
ATOM      1  C1  <0> d          -2.187   2.808   3.219  0.00  0.00    -0.048 C 
ATOM      2  C2  <0> d          -0.765   3.348   3.524  0.00  0.00    -0.048 C 
ATOM      3  C3  <0> d           0.119   2.383   2.696  0.00  0.00     0.006 C 
ATOM      4  N1  <0> d          -0.653   2.125   1.466  0.00  0.00    -0.298 N 
ATOM      5  C4  <0> d          -2.077   2.364   1.745  0.00  0.00     0.006 C 
ATOM      6  H1  <0> d          -2.964   3.582   3.311  0.00  0.00     0.035 H 
ATOM      7  H2  <0> d          -2.455   1.944   3.843  0.00  0.00     0.035 H 
ATOM      8  H3  <0> d          -0.692   4.395   3.194  0.00  0.00     0.035 H 
ATOM      9  H4  <0> d          -0.576   3.291   4.606  0.00  0.00     0.035 H 
ATOM     10  H5  <0> d           1.083   2.864   2.478  0.00  0.00     0.065 H 
ATOM     11  H6  <0> d           0.291   1.460   3.270  0.00  0.00     0.065 H 
ATOM     12  H7  <0> d          -2.659   1.442   1.595  0.00  0.00     0.065 H 
ATOM     13  H8  <0> d          -2.470   3.156   1.092  0.00  0.00     0.065 H 
ENDROOT
BRANCH   4  14
ATOM     14  S1  <0> d          -0.020   1.652   0.011  0.00  0.00     0.296 S 
ATOM     15  O1  <0> d           1.336   2.076   0.001  0.00  0.00    -0.189 OA
ATOM     16  O2  <0> d          -0.952   2.051  -0.985  0.00  0.00    -0.189 OA
BRANCH  14  17
ATOM     17  N2  <0> d           0.002  -0.004   0.002  0.00  0.00    -0.212 NA
ATOM     18  H9  <0> d           0.417  -0.360  -0.952  0.00  0.00     0.137 HD
ATOM     19  H10 <0> d          -1.023  -0.385   0.121  0.00  0.00     0.137 HD
ENDBRANCH  14  17
ENDBRANCH   4  14
TORSDOF 2
