REMARK  2 active torsions:
REMARK  status: ('A' for Active; 'I' for Inactive)
REMARK    1  A    between atoms: C1_1  and  C2_2 
REMARK    2  A    between atoms: C4_5  and  C5_7 
ROOT
ATOM      1  C2  <0> d           2.276   1.354  -0.012  0.00  0.00     0.071 A 
ATOM      2  N1  <0> d           1.133   2.007   0.002  0.00  0.00    -0.257 NA
ATOM      3  C3  <0> d          -0.017   1.384   0.010  0.00  0.00     0.026 A 
ATOM      4  C4  <0> d           0.002  -0.004   0.002  0.00  0.00     0.100 A 
ATOM      5  S1  <0> d           1.764  -0.305  -0.016  0.00  0.00    -0.067 SA
ATOM      6  H4  <0> d          -0.948   1.930   0.017  0.00  0.00     0.117 H 
ENDROOT
BRANCH   1   7
ATOM      7  C1  <0> d           3.678   1.908  -0.022  0.00  0.00    -0.029 C 
ATOM      8  H1  <0> d           4.006   2.046  -1.052  0.00  0.00     0.036 H 
ATOM      9  H2  <0> d           3.694   2.866   0.496  0.00  0.00     0.036 H 
ATOM     10  H3  <0> d           4.348   1.211   0.482  0.00  0.00     0.036 H 
ENDBRANCH   1   7
BRANCH   4  11
ATOM     11  C5  <0> d          -1.111  -0.956   0.008  0.00  0.00     0.218 C 
ATOM     12  O1  <0> d          -2.258  -0.551   0.022  0.00  0.00    -0.643 OA
ATOM     13  O2  <0> d          -0.864  -2.282  -0.001  0.00  0.00    -0.643 OA
ENDBRANCH   4  11
TORSDOF 2
