REMARK  2 active torsions:
REMARK  status: ('A' for Active; 'I' for Inactive)
REMARK    1  A    between atoms: C1_1  and  C2_2 
REMARK    2  A    between atoms: C4_4  and  C7_8 
ROOT
ATOM      1  C2  <0> d           0.002  -0.004   0.002  0.00  0.00     0.070 A 
ATOM      2  C3  <0> d           0.005  -0.681  -1.207  0.00  0.00     0.157 A 
ATOM      3  C4  <0> d           0.025  -2.083  -1.198  0.00  0.00     0.082 A 
ATOM      4  C5  <0> d           0.039  -2.734   0.041  0.00  0.00    -0.046 A 
ATOM      5  C6  <0> d           0.035  -1.978   1.195  0.00  0.00     0.004 A 
ATOM      6  N1  <0> d           0.022  -0.660   1.144  0.00  0.00    -0.263 NA
ATOM      7  F1  <0> d          -0.010  -0.002  -2.375  0.00  0.00    -0.203 F 
ATOM      8  H4  <0> d           0.054  -3.813   0.093  0.00  0.00     0.087 H 
ATOM      9  H5  <0> d           0.046  -2.472   2.155  0.00  0.00     0.114 H 
ENDROOT
BRANCH   1  10
ATOM     10  C1  <0> d          -0.018   1.503   0.010  0.00  0.00    -0.033 C 
ATOM     11  H1  <0> d           1.004   1.880   0.003  0.00  0.00     0.035 H 
ATOM     12  H2  <0> d          -0.545   1.864  -0.873  0.00  0.00     0.035 H 
ATOM     13  H3  <0> d          -0.529   1.854   0.907  0.00  0.00     0.035 H 
ENDBRANCH   1  10
BRANCH   3  14
ATOM     14  C7  <0> d           0.029  -2.851  -2.461  0.00  0.00     0.212 C 
ATOM     15  O1  <0> d           0.045  -4.073  -2.433  0.00  0.00    -0.644 OA
ATOM     16  O2  <0> d           0.015  -2.264  -3.533  0.00  0.00    -0.644 OA
ENDBRANCH   3  14
TORSDOF 2
