REMARK  3 active torsions:
REMARK  status: ('A' for Active; 'I' for Inactive)
REMARK    1  A    between atoms: C1_1  and  C2_2 
REMARK    2  A    between atoms: C6_6  and  S1_8 
REMARK    3  A    between atoms: S1_8  and  C8_10 
ROOT
ATOM      1  C2  <0> d           0.002  -0.004   0.002  0.00  0.00    -0.061 A 
ATOM      2  C3  <0> d           0.006  -0.689  -1.199  0.00  0.00    -0.077 A 
ATOM      3  C4  <0> d           0.025  -2.071  -1.207  0.00  0.00    -0.081 A 
ATOM      4  C5  <0> d           0.040  -2.768  -0.013  0.00  0.00    -0.064 A 
ATOM      5  C6  <0> d           0.037  -2.084   1.188  0.00  0.00     0.031 A 
ATOM      6  C7  <0> d           0.023  -0.702   1.195  0.00  0.00    -0.059 A 
ATOM      7  H4  <0> d          -0.006  -0.144  -2.131  0.00  0.00     0.084 H 
ATOM      8  H5  <0> d           0.027  -2.606  -2.145  0.00  0.00     0.083 H 
ATOM      9  H6  <0> d           0.054  -3.848  -0.019  0.00  0.00     0.085 H 
ATOM     10  H7  <0> d           0.025  -0.167   2.133  0.00  0.00     0.086 H 
ENDROOT
BRANCH   5  11
ATOM     11  S1  <0> d           0.057  -2.973   2.709  0.00  0.00     0.045 S 
ATOM     12  O1  <0> d          -0.503  -4.236   2.376  0.00  0.00    -0.253 OA
BRANCH  11  13
ATOM     13  C8  <0> d           1.821  -3.172   3.078  0.00  0.00    -0.004 C 
ATOM     14  H8  <0> d           2.286  -2.190   3.171  0.00  0.00     0.045 H 
ATOM     15  H9  <0> d           1.937  -3.718   4.015  0.00  0.00     0.045 H 
ATOM     16  H10 <0> d           2.301  -3.727   2.272  0.00  0.00     0.045 H 
ENDBRANCH  11  13
ENDBRANCH   5  11
BRANCH   1  17
ATOM     17  C1  <0> d          -0.018   1.503   0.010  0.00  0.00    -0.051 C 
ATOM     18  H1  <0> d           1.004   1.880   0.003  0.00  0.00     0.033 H 
ATOM     19  H2  <0> d          -0.545   1.864  -0.873  0.00  0.00     0.033 H 
ATOM     20  H3  <0> d          -0.529   1.854   0.907  0.00  0.00     0.033 H 
ENDBRANCH   1  17
TORSDOF 3
