REMARK  2 active torsions:
REMARK  status: ('A' for Active; 'I' for Inactive)
REMARK    1  A    between atoms: C5_6  and  N4_10 
REMARK    2  A    between atoms: C6_8  and  N3_9 
ROOT
ATOM      1  C1  <0> d          -0.777   1.604   1.245  0.00  0.00    -0.056 C 
ATOM      2  C2  <0> d          -2.214   1.772   0.697  0.00  0.00    -0.035 C 
ATOM      3  C3  <0> d          -2.046   2.000  -0.787  0.00  0.00     0.013 A 
ATOM      4  C4  <0> d          -0.784   1.607  -1.184  0.00  0.00     0.063 A 
ATOM      5  N1  <0> d          -0.441   1.728  -2.459  0.00  0.00    -0.067 NA
ATOM      6  C5  <0> d          -1.290   2.219  -3.349  0.00  0.00     0.722 A 
ATOM      7  N2  <0> d          -2.510   2.607  -3.008  0.00  0.00    -0.045 NA
ATOM      8  C6  <0> d          -2.920   2.514  -1.747  0.00  0.00     0.148 A 
ATOM      9  C7  <0> d          -0.013   1.086   0.008  0.00  0.00    -0.023 C 
ATOM     10  H1  <0> d          -0.752   0.872   2.052  0.00  0.00     0.034 H 
ATOM     11  H2  <0> d          -0.374   2.561   1.577  0.00  0.00     0.034 H 
ATOM     12  H3  <0> d          -2.696   2.634   1.160  0.00  0.00     0.040 H 
ATOM     13  H4  <0> d          -2.796   0.869   0.878  0.00  0.00     0.040 H 
ATOM     14  H9  <0> d           0.002  -0.004   0.002  0.00  0.00     0.042 H 
ATOM     15  H10 <0> d           1.004   1.477   0.000  0.00  0.00     0.042 H 
ENDROOT
BRANCH   6  16
ATOM     16  N4  <0> d          -0.893   2.330  -4.670  0.00  0.00    -0.231 N 
ATOM     17  H7  <0> d          -1.505   2.688  -5.332  0.00  0.00     0.174 HD
ATOM     18  H8  <0> d          -0.003   2.049  -4.934  0.00  0.00     0.174 HD
ENDBRANCH   6  16
BRANCH   8  19
ATOM     19  N3  <0> d          -4.196   2.920  -1.390  0.00  0.00    -0.383 N 
ATOM     20  H5  <0> d          -4.488   2.848  -0.468  0.00  0.00     0.157 HD
ATOM     21  H6  <0> d          -4.797   3.276  -2.063  0.00  0.00     0.157 HD
ENDBRANCH   8  19
TORSDOF 2
