REMARK  1 active torsions:
REMARK  status: ('A' for Active; 'I' for Inactive)
REMARK    1  A    between atoms: N1_4  and  C5_6 
ROOT
ATOM      1  C5  <0> d          -2.454   1.400   0.020  0.00  0.00     0.055 A 
ATOM      2  C6  <0> d          -3.515   2.301   0.030  0.00  0.00    -0.054 A 
ATOM      3  C7  <0> d          -4.806   1.797   0.032  0.00  0.00    -0.064 A 
ATOM      4  C8  <0> d          -4.996   0.427   0.026  0.00  0.00     0.002 A 
ATOM      5  N2  <0> d          -3.968  -0.399   0.016  0.00  0.00    -0.271 NA
ATOM      6  C9  <0> d          -2.725   0.039   0.009  0.00  0.00     0.028 A 
ATOM      7  H5  <0> d          -3.337   3.366   0.035  0.00  0.00     0.087 H 
ATOM      8  H6  <0> d          -5.654   2.466   0.039  0.00  0.00     0.085 H 
ATOM      9  H7  <0> d          -6.000   0.029   0.028  0.00  0.00     0.114 H 
ATOM     10  H8  <0> d          -1.909  -0.669  -0.003  0.00  0.00     0.118 H 
ENDROOT
BRANCH   1  11
ATOM     11  N1  <0> d          -1.130   1.861   0.017  0.00  0.00    -0.331 N 
ATOM     12  C3  <0> d          -0.013   1.076   0.008  0.00  0.00    -0.015 A 
ATOM     13  C2  <0> d           1.069   1.881   0.002  0.00  0.00    -0.066 A 
ATOM     14  H3  <0> d           0.002  -0.004   0.002  0.00  0.00     0.112 H 
ATOM     15  C1  <0> d           0.605   3.212   0.013  0.00  0.00    -0.066 A 
ATOM     16  H2  <0> d           2.101   1.565  -0.010  0.00  0.00     0.085 H 
ATOM     17  C4  <0> d          -0.743   3.171   0.025  0.00  0.00    -0.015 A 
ATOM     18  H1  <0> d           1.217   4.102   0.012  0.00  0.00     0.085 H 
ATOM     19  H4  <0> d          -1.402   4.026   0.035  0.00  0.00     0.112 H 
ENDBRANCH   1  11
TORSDOF 1
