REMARK  0 active torsions:
REMARK  status: ('A' for Active; 'I' for Inactive)
ROOT
ATOM      1  C1  <0> d          -2.389  -0.050   0.025  0.00  0.00    -0.058 A 
ATOM      2  C2  <0> d          -1.212  -0.724   0.010  0.00  0.00    -0.037 A 
ATOM      3  C3  <0> d           0.002  -0.004   0.002  0.00  0.00     0.133 A 
ATOM      4  N1  <0> d           1.267  -0.396  -0.012  0.00  0.00    -0.241 NA
ATOM      5  C4  <0> d           2.061   0.678  -0.014  0.00  0.00     0.020 A 
ATOM      6  C5  <0> d           1.288   1.786  -0.001  0.00  0.00     0.003 A 
ATOM      7  N2  <0> d          -0.017   1.368   0.010  0.00  0.00    -0.315 N 
ATOM      8  C6  <0> d          -1.196   2.044   0.029  0.00  0.00     0.006 A 
ATOM      9  C7  <0> d          -2.382   1.368   0.032  0.00  0.00     0.060 A 
ATOM     10  C8  <0> d          -3.619   2.090   0.048  0.00  0.00     0.101 C 
ATOM     11  N3  <0> d          -4.600   2.662   0.060  0.00  0.00    -0.191 NA
ATOM     12  H1  <0> d          -3.325  -0.589   0.030  0.00  0.00     0.086 H 
ATOM     13  H2  <0> d          -1.204  -1.804   0.004  0.00  0.00     0.089 H 
ATOM     14  H3  <0> d           3.140   0.664  -0.025  0.00  0.00     0.117 H 
ATOM     15  H4  <0> d           1.634   2.809   0.001  0.00  0.00     0.114 H 
ATOM     16  H5  <0> d          -1.195   3.124   0.035  0.00  0.00     0.114 H 
ENDROOT
TORSDOF 0
