REMARK  6 active torsions:
REMARK  status: ('A' for Active; 'I' for Inactive)
REMARK    1  A    between atoms: C1_1  and  C2_2 
REMARK    2  A    between atoms: C2_2  and  C3_3 
REMARK    3  A    between atoms: C4_4  and  C5_5 
REMARK    4  A    between atoms: C5_5  and  C6_6 
REMARK    5  A    between atoms: C6_6  and  C7_8 
REMARK    6  A    between atoms: C6_6  and  O1_9 
ROOT
ATOM      1  C5  <0> d           1.423   1.615  -0.003  0.00  0.00     0.014 C 
ATOM      2  H7  <0> d           1.408   2.702  -0.086  0.00  0.00     0.055 H 
ATOM      3  H8  <0> d           1.923   1.329   0.922  0.00  0.00     0.055 H 
ENDROOT
BRANCH   1   4
ATOM      4  C4  <0> d           2.148   1.044  -1.150  0.00  0.00    -0.104 C 
ATOM      5  C3  <0> d           2.726   0.589  -2.064  0.00  0.00    -0.107 C 
BRANCH   5   6
ATOM      6  C2  <0> d           3.451   0.018  -3.211  0.00  0.00    -0.013 C 
ATOM      7  H5  <0> d           3.465  -1.068  -3.128  0.00  0.00     0.051 H 
ATOM      8  H6  <0> d           2.951   0.305  -4.136  0.00  0.00     0.051 H 
BRANCH   6   9
ATOM      9  C1  <0> d           4.886   0.548  -3.222  0.00  0.00    -0.067 C 
ATOM     10  H2  <0> d           5.386   0.261  -2.297  0.00  0.00     0.028 H 
ATOM     11  H3  <0> d           5.423   0.125  -4.071  0.00  0.00     0.028 H 
ATOM     12  H4  <0> d           4.872   1.635  -3.306  0.00  0.00     0.028 H 
ENDBRANCH   6   9
ENDBRANCH   5   6
ENDBRANCH   1   4
BRANCH   1  13
ATOM     13  C6  <0> d          -0.013   1.086   0.008  0.00  0.00     0.042 C 
ATOM     14  H1  <0> d           0.002  -0.004   0.002  0.00  0.00     0.083 H 
BRANCH  13  15
ATOM     15  C7  <0> d          -0.729   1.579   1.267  0.00  0.00    -0.052 C 
ATOM     16  H9  <0> d          -1.751   1.202   1.275  0.00  0.00     0.030 H 
ATOM     17  H10 <0> d          -0.202   1.218   2.150  0.00  0.00     0.030 H 
ATOM     18  H11 <0> d          -0.744   2.669   1.273  0.00  0.00     0.030 H 
ENDBRANCH  13  15
BRANCH  13  19
ATOM     19  O1  <0> d          -0.704   1.559  -1.150  0.00  0.00    -0.395 OA
ATOM     20  H12 <0> d          -1.622   1.262  -1.209  0.00  0.00     0.210 HD
ENDBRANCH  13  19
ENDBRANCH   1  13
TORSDOF 6
