REMARK  2 active torsions:
REMARK  status: ('A' for Active; 'I' for Inactive)
REMARK    1  A    between atoms: C1_1  and  C2_2 
REMARK    2  A    between atoms: C2_2  and  C7_11 
ROOT
ATOM      1  C2  <0> d          -0.591   1.998   1.341  0.00  0.00     0.080 C 
ATOM      2  C3  <0> d          -0.018   1.468   0.010  0.00  0.00     0.068 C 
ATOM      3  H1  <0> d          -0.588   1.849  -0.837  0.00  0.00     0.068 H 
ATOM      4  C4  <0> d           1.419   2.033  -0.001  0.00  0.00     0.034 C 
ATOM      5  C5  <0> d           1.530   2.823   1.288  0.00  0.00     0.261 C 
ATOM      6  O1  <0> d           2.334   3.694   1.519  0.00  0.00    -0.265 OA
ATOM      7  O2  <0> d           0.575   2.386   2.129  0.00  0.00    -0.309 OA
ATOM      8  C6  <0> d           0.002  -0.004   0.002  0.00  0.00     0.067 C 
ATOM      9  N1  <0> d           0.018  -1.140  -0.004  0.00  0.00    -0.197 NA
ATOM     10  H5  <0> d           2.147   1.222  -0.012  0.00  0.00     0.050 H 
ATOM     11  H6  <0> d           1.564   2.687  -0.861  0.00  0.00     0.050 H 
ENDROOT
BRANCH   1  12
ATOM     12  C1  <0> d          -1.488   3.212   1.088  0.00  0.00    -0.046 C 
ATOM     13  H2  <0> d          -2.312   2.924   0.435  0.00  0.00     0.031 H 
ATOM     14  H3  <0> d          -1.885   3.575   2.036  0.00  0.00     0.031 H 
ATOM     15  H4  <0> d          -0.906   4.001   0.612  0.00  0.00     0.031 H 
ENDBRANCH   1  12
BRANCH   1  16
ATOM     16  C7  <0> d          -1.375   0.897   2.059  0.00  0.00    -0.046 C 
ATOM     17  H7  <0> d          -0.713   0.057   2.267  0.00  0.00     0.031 H 
ATOM     18  H8  <0> d          -1.773   1.287   2.996  0.00  0.00     0.031 H 
ATOM     19  H9  <0> d          -2.197   0.565   1.425  0.00  0.00     0.031 H 
ENDBRANCH   1  16
TORSDOF 2
