REMARK  6 active torsions:
REMARK  status: ('A' for Active; 'I' for Inactive)
REMARK    1  A    between atoms: C1_1  and  C2_2 
REMARK    2  A    between atoms: C2_2  and  C3_3 
REMARK    3  A    between atoms: C2_2  and  C4_4 
REMARK    4  A    between atoms: C2_2  and  C5_5 
REMARK    5  A    between atoms: C5_5  and  O2_7 
REMARK    6  A    between atoms: O2_7  and  C6_8 
ROOT
ATOM      1  C2  <0> d           1.280   1.975   0.000  0.00  0.00     0.037 C 
ENDROOT
BRANCH   1   2
ATOM      2  C1  <0> d           2.457   0.997  -0.016  0.00  0.00    -0.061 C 
ATOM      3  H1  <0> d           2.399   0.374  -0.909  0.00  0.00     0.029 H 
ATOM      4  H2  <0> d           3.393   1.555  -0.022  0.00  0.00     0.029 H 
ATOM      5  H3  <0> d           2.416   0.365   0.871  0.00  0.00     0.029 H 
ENDBRANCH   1   2
BRANCH   1   6
ATOM      6  C3  <0> d           1.338   2.863  -1.245  0.00  0.00    -0.061 C 
ATOM      7  H4  <0> d           0.500   3.559  -1.233  0.00  0.00     0.029 H 
ATOM      8  H5  <0> d           2.274   3.420  -1.251  0.00  0.00     0.029 H 
ATOM      9  H6  <0> d           1.280   2.240  -2.138  0.00  0.00     0.029 H 
ENDBRANCH   1   6
BRANCH   1  10
ATOM     10  C4  <0> d           1.361   2.849   1.254  0.00  0.00    -0.061 C 
ATOM     11  H7  <0> d           1.321   2.217   2.141  0.00  0.00     0.029 H 
ATOM     12  H8  <0> d           2.298   3.407   1.248  0.00  0.00     0.029 H 
ATOM     13  H9  <0> d           0.523   3.546   1.265  0.00  0.00     0.029 H 
ENDBRANCH   1  10
BRANCH   1  14
ATOM     14  C5  <0> d          -0.014   1.204   0.009  0.00  0.00     0.266 C 
ATOM     15  O1  <0> d           0.002  -0.004   0.002  0.00  0.00    -0.264 OA
BRANCH  14  16
ATOM     16  O2  <0> d          -1.186   1.859   0.018  0.00  0.00    -0.326 OA
BRANCH  16  17
ATOM     17  C6  <0> d          -2.393   1.052   0.019  0.00  0.00     0.013 C 
ATOM     18  H10 <0> d          -3.266   1.704   0.027  0.00  0.00     0.067 H 
ATOM     19  H11 <0> d          -2.413   0.428  -0.874  0.00  0.00     0.067 H 
ATOM     20  H12 <0> d          -2.405   0.418   0.906  0.00  0.00     0.067 H 
ENDBRANCH  16  17
ENDBRANCH  14  16
ENDBRANCH   1  14
TORSDOF 6
