REMARK  5 active torsions:
REMARK  status: ('A' for Active; 'I' for Inactive)
REMARK    1  A    between atoms: C1_1  and  C2_2 
REMARK    2  A    between atoms: C2_2  and  N1_3 
REMARK    3  A    between atoms: C3_4  and  C7_10 
REMARK    4  A    between atoms: C4_5  and  N3_9 
REMARK    5  A    between atoms: C5_6  and  C6_8 
ROOT
ATOM      1  N1  <0> d           0.002  -0.004   0.002  0.00  0.00    -0.272 N 
ATOM      2  C3  <0> d          -0.016   1.355   0.009  0.00  0.00     0.055 A 
ATOM      3  C4  <0> d           1.272   1.782  -0.001  0.00  0.00     0.076 A 
ATOM      4  C5  <0> d           2.100   0.651  -0.015  0.00  0.00     0.079 A 
ATOM      5  N2  <0> d           1.341  -0.415  -0.013  0.00  0.00    -0.175 NA
ENDROOT
BRANCH   1   6
ATOM      6  C2  <0> d          -1.170  -0.883   0.008  0.00  0.00     0.014 C 
ATOM      7  H4  <0> d          -0.922  -1.815   0.515  0.00  0.00     0.066 H 
ATOM      8  H5  <0> d          -1.990  -0.391   0.532  0.00  0.00     0.066 H 
BRANCH   6   9
ATOM      9  C1  <0> d          -1.592  -1.181  -1.432  0.00  0.00    -0.059 C 
ATOM     10  H1  <0> d          -1.839  -0.248  -1.939  0.00  0.00     0.029 H 
ATOM     11  H2  <0> d          -0.772  -1.672  -1.956  0.00  0.00     0.029 H 
ATOM     12  H3  <0> d          -2.464  -1.835  -1.428  0.00  0.00     0.029 H 
ENDBRANCH   6   9
ENDBRANCH   1   6
BRANCH   2  13
ATOM     13  C7  <0> d          -1.244   2.229   0.020  0.00  0.00    -0.034 C 
ATOM     14  H11 <0> d          -1.535   2.434   1.051  0.00  0.00     0.035 H 
ATOM     15  H12 <0> d          -1.026   3.168  -0.489  0.00  0.00     0.035 H 
ATOM     16  H13 <0> d          -2.059   1.718  -0.492  0.00  0.00     0.035 H 
ENDBRANCH   2  13
BRANCH   4  17
ATOM     17  C6  <0> d           3.607   0.661  -0.030  0.00  0.00    -0.032 C 
ATOM     18  H6  <0> d           3.960   0.669  -1.061  0.00  0.00     0.035 H 
ATOM     19  H7  <0> d           3.969   1.550   0.485  0.00  0.00     0.035 H 
ATOM     20  H8  <0> d           3.981  -0.230   0.476  0.00  0.00     0.035 H 
ENDBRANCH   4  17
BRANCH   3  21
ATOM     21  N3  <0> d           1.701   3.123   0.002  0.00  0.00    -0.396 N 
ATOM     22  H9  <0> d           1.048   3.841   0.012  0.00  0.00     0.156 HD
ATOM     23  H10 <0> d           2.649   3.329  -0.006  0.00  0.00     0.156 HD
ENDBRANCH   3  21
TORSDOF 5
