REMARK  1 active torsions:
REMARK  status: ('A' for Active; 'I' for Inactive)
REMARK    1  A    between atoms: C1_1  and  C2_2 
ROOT
ATOM      1  C2  <0> d          -0.718   1.572   1.248  0.00  0.00     0.051 A 
ATOM      2  C3  <0> d          -2.108   1.789   1.211  0.00  0.00    -0.054 A 
ATOM      3  C4  <0> d          -2.760   2.221   2.319  0.00  0.00    -0.033 A 
ATOM      4  C5  <0> d          -2.020   2.459   3.505  0.00  0.00     0.175 A 
ATOM      5  N1  <0> d          -2.370   2.874   4.699  0.00  0.00    -0.150 NA
ATOM      6  N2  <0> d          -1.215   2.928   5.491  0.00  0.00    -0.225 N 
ATOM      7  H1  <0> d          -1.170   3.201   6.421  0.00  0.00     0.194 HD
ATOM      8  C6  <0> d          -0.177   2.532   4.726  0.00  0.00     0.365 A 
ATOM      9  O1  <0> d           0.987   2.453   5.080  0.00  0.00    -0.243 OA
ATOM     10  N3  <0> d          -0.654   2.240   3.500  0.00  0.00    -0.161 N 
ATOM     11  N4  <0> d          -0.029   1.788   2.331  0.00  0.00    -0.167 NA
ATOM     12  H5  <0> d          -2.658   1.607   0.300  0.00  0.00     0.086 H 
ATOM     13  H6  <0> d          -3.828   2.384   2.297  0.00  0.00     0.089 H 
ENDROOT
BRANCH   1  14
ATOM     14  C1  <0> d          -0.013   1.086   0.008  0.00  0.00    -0.034 C 
ATOM     15  H2  <0> d           0.002  -0.004   0.002  0.00  0.00     0.035 H 
ATOM     16  H3  <0> d           1.010   1.463   0.000  0.00  0.00     0.035 H 
ATOM     17  H4  <0> d          -0.540   1.447  -0.875  0.00  0.00     0.035 H 
ENDBRANCH   1  14
TORSDOF 1
