REMARK  3 active torsions:
REMARK  status: ('A' for Active; 'I' for Inactive)
REMARK    1  A    between atoms: C2_2  and  C3_3 
REMARK       I    between atoms: C3_3  and  N1_5 
REMARK    2  A    between atoms: N1_5  and  C4_6 
REMARK    3  A    between atoms: C4_6  and  C5_7 
ROOT
ATOM      1  C1  <0> d          -0.146   8.051  -4.038  0.00  0.00    -0.144 C 
ATOM      2  C2  <0> d          -0.130   7.654  -2.934  0.00  0.00    -0.017 C 
ATOM      3  H1  <0> d          -0.160   8.406  -5.026  0.00  0.00     0.167 H 
ENDROOT
BRANCH   2   4
ATOM      4  C3  <0> d          -0.111   7.169  -1.586  0.00  0.00     0.295 C 
ATOM      5  O1  <0> d          -0.113   7.954  -0.657  0.00  0.00    -0.258 OA
ATOM      6  N1  <0> d          -0.090   5.843  -1.347  0.00  0.00    -0.346 N 
ATOM      7  H2  <0> d          -0.089   5.216  -2.088  0.00  0.00     0.163 HD
BRANCH   6   8
ATOM      8  C4  <0> d          -0.070   5.347   0.031  0.00  0.00     0.020 C 
ATOM      9  H3  <0> d          -0.960   5.696   0.555  0.00  0.00     0.071 H 
ATOM     10  H4  <0> d           0.819   5.720   0.538  0.00  0.00     0.071 H 
BRANCH   8  11
ATOM     11  C5  <0> d          -0.050   3.840   0.023  0.00  0.00    -0.041 A 
ATOM     12  C10 <0> d          -1.238   3.133   0.030  0.00  0.00    -0.075 A 
ATOM     13  C9  <0> d          -1.219   1.751   0.017  0.00  0.00    -0.082 A 
ATOM     14  H9  <0> d          -2.180   3.660   0.041  0.00  0.00     0.084 H 
ATOM     15  C8  <0> d          -0.013   1.076   0.008  0.00  0.00    -0.083 A 
ATOM     16  H8  <0> d          -2.147   1.198   0.019  0.00  0.00     0.083 H 
ATOM     17  C7  <0> d           1.175   1.783   0.000  0.00  0.00    -0.082 A 
ATOM     18  H7  <0> d           0.002  -0.004   0.002  0.00  0.00     0.083 H 
ATOM     19  C6  <0> d           1.156   3.165   0.008  0.00  0.00    -0.075 A 
ATOM     20  H6  <0> d           2.118   1.256  -0.011  0.00  0.00     0.083 H 
ATOM     21  H5  <0> d           2.084   3.718   0.002  0.00  0.00     0.084 H 
ENDBRANCH   8  11
ENDBRANCH   6   8
ENDBRANCH   2   4
TORSDOF 3
