REMARK  4 active torsions:
REMARK  status: ('A' for Active; 'I' for Inactive)
REMARK    1  A    between atoms: C1_1  and  C2_2 
REMARK    2  A    between atoms: C2_2  and  C3_4 
REMARK    3  A    between atoms: C5_6  and  O3_11 
REMARK    4  A    between atoms: C7_8  and  O2_10 
ROOT
ATOM      1  C3  <0> d           2.391   1.412  -0.013  0.00  0.00     0.015 A 
ATOM      2  C4  <0> d           1.171   2.095   0.002  0.00  0.00    -0.037 A 
ATOM      3  C5  <0> d          -0.017   1.383   0.010  0.00  0.00     0.069 A 
ATOM      4  C6  <0> d           0.002  -0.004   0.002  0.00  0.00    -0.019 A 
ATOM      5  C7  <0> d           1.210  -0.687  -0.013  0.00  0.00     0.069 A 
ATOM      6  C8  <0> d           2.404   0.014  -0.021  0.00  0.00    -0.037 A 
ATOM      7  H4  <0> d           1.155   3.174   0.008  0.00  0.00     0.089 H 
ATOM      8  H5  <0> d          -0.927  -0.555   0.008  0.00  0.00     0.092 H 
ATOM      9  H6  <0> d           3.344  -0.518  -0.033  0.00  0.00     0.089 H 
ENDROOT
BRANCH   1  10
ATOM     10  C2  <0> d           3.657   2.163  -0.021  0.00  0.00     0.155 C 
ATOM     11  O1  <0> d           4.714   1.568  -0.035  0.00  0.00    -0.293 OA
BRANCH  10  12
ATOM     12  C1  <0> d           3.640   3.670  -0.013  0.00  0.00    -0.017 C 
ATOM     13  H1  <0> d           2.693   3.992  -0.002  0.00  0.00     0.038 H 
ATOM     14  H2  <0> d           4.158   4.034   0.874  0.00  0.00     0.038 H 
ATOM     15  H3  <0> d           4.141   4.043  -0.906  0.00  0.00     0.038 H 
ENDBRANCH  10  12
ENDBRANCH   1  10
BRANCH   5  16
ATOM     16  O2  <0> d           1.221  -2.046  -0.021  0.00  0.00    -0.361 OA
ATOM     17  H7  <0> d           1.216  -2.434  -0.907  0.00  0.00     0.217 HD
ENDBRANCH   5  16
BRANCH   3  18
ATOM     18  O3  <0> d          -1.204   2.046   0.019  0.00  0.00    -0.361 OA
ATOM     19  H8  <0> d          -1.543   2.233   0.905  0.00  0.00     0.217 HD
ENDBRANCH   3  18
TORSDOF 4
