REMARK  1 active torsions:
REMARK  status: ('A' for Active; 'I' for Inactive)
REMARK    1  A    between atoms: N1_4  and  C5_6 
ROOT
ATOM      1  C5  <0> d          -0.487   0.813  -2.365  0.00  0.00     0.138 C 
ATOM      2  C6  <0> d           0.980   1.001  -2.759  0.00  0.00    -0.013 C 
ATOM      3  C7  <0> d           1.260   0.228  -4.050  0.00  0.00     0.084 C 
ATOM      4  N2  <0> d           0.380   0.722  -5.117  0.00  0.00    -0.075 N 
ATOM      5  C8  <0> d          -1.033   0.509  -4.782  0.00  0.00     0.084 C 
ATOM      6  C9  <0> d          -1.381   1.290  -3.513  0.00  0.00    -0.013 C 
ATOM      7  H9  <0> d          -0.694  -0.239  -2.121  0.00  0.00     0.088 H 
ATOM      8  H10 <0> d           1.183   2.071  -2.919  0.00  0.00     0.038 H 
ATOM      9  H11 <0> d           1.628   0.621  -1.955  0.00  0.00     0.038 H 
ATOM     10  H12 <0> d           2.310   0.373  -4.344  0.00  0.00     0.075 H 
ATOM     11  H13 <0> d           1.070  -0.842  -3.885  0.00  0.00     0.075 H 
ATOM     12  H14 <0> d           0.548   1.800  -5.262  0.00  0.00     0.277 HD
ATOM     13  H15 <0> d          -1.664   0.860  -5.612  0.00  0.00     0.075 H 
ATOM     14  H16 <0> d          -1.213  -0.563  -4.613  0.00  0.00     0.075 H 
ATOM     15  H17 <0> d          -2.436   1.119  -3.252  0.00  0.00     0.038 H 
ATOM     16  H18 <0> d          -1.216   2.364  -3.684  0.00  0.00     0.038 H 
ATOM     17  H19 <0> d           0.603   0.188  -6.053  0.00  0.00     0.277 HD
ENDROOT
BRANCH   1  18
ATOM     18  N1  <0> d          -0.776   1.600  -1.158  0.00  0.00     0.093 N 
ATOM     19  C3  <0> d          -0.013   1.086   0.008  0.00  0.00     0.114 C 
ATOM     20  C2  <0> d          -0.782   1.607   1.240  0.00  0.00    -0.038 C 
ATOM     21  H5  <0> d           1.016   1.475   0.027  0.00  0.00     0.079 H 
ATOM     22  H6  <0> d           0.011  -0.014   0.028  0.00  0.00     0.079 H 
ATOM     23  C1  <0> d          -2.223   1.850   0.736  0.00  0.00    -0.038 C 
ATOM     24  H3  <0> d          -0.360   2.552   1.614  0.00  0.00     0.035 H 
ATOM     25  H4  <0> d          -0.798   0.866   2.053  0.00  0.00     0.035 H 
ATOM     26  C4  <0> d          -2.199   1.455  -0.756  0.00  0.00     0.114 C 
ATOM     27  H1  <0> d          -2.513   2.907   0.831  0.00  0.00     0.035 H 
ATOM     28  H2  <0> d          -2.951   1.221   1.270  0.00  0.00     0.035 H 
ATOM     29  H7  <0> d          -2.552   0.419  -0.867  0.00  0.00     0.079 H 
ATOM     30  H8  <0> d          -2.856   2.130  -1.325  0.00  0.00     0.079 H 
ENDBRANCH   1  18
TORSDOF 1
