REMARK  1 active torsions:
REMARK  status: ('A' for Active; 'I' for Inactive)
REMARK    1  A    between atoms: C5_5  and  N1_7 
ROOT
ATOM      1  C1  <0> d           2.407   0.025  -0.021  0.00  0.00    -0.080 A 
ATOM      2  C2  <0> d           2.398   1.407  -0.014  0.00  0.00    -0.072 A 
ATOM      3  C3  <0> d           1.184   2.091   0.002  0.00  0.00    -0.028 A 
ATOM      4  C4  <0> d          -0.017   1.380   0.010  0.00  0.00    -0.021 A 
ATOM      5  C5  <0> d           0.002  -0.004   0.002  0.00  0.00     0.033 A 
ATOM      6  C6  <0> d           1.218  -0.679  -0.013  0.00  0.00    -0.057 A 
ATOM      7  C7  <0> d          -1.320   2.134   0.020  0.00  0.00    -0.035 C 
ATOM      8  C8  <0> d          -1.169   3.415   0.842  0.00  0.00    -0.046 C 
ATOM      9  C9  <0> d           0.041   4.189   0.399  0.00  0.00    -0.102 C 
ATOM     10  C10 <0> d           1.145   3.568   0.010  0.00  0.00    -0.076 C 
ATOM     11  H1  <0> d           3.347  -0.506  -0.033  0.00  0.00     0.083 H 
ATOM     12  H2  <0> d           3.328   1.955  -0.021  0.00  0.00     0.084 H 
ATOM     13  H3  <0> d           1.234  -1.759  -0.019  0.00  0.00     0.086 H 
ATOM     14  H6  <0> d          -1.600   2.387  -1.003  0.00  0.00     0.040 H 
ATOM     15  H7  <0> d          -2.096   1.509   0.462  0.00  0.00     0.040 H 
ATOM     16  H8  <0> d          -1.064   3.157   1.897  0.00  0.00     0.039 H 
ATOM     17  H9  <0> d          -2.058   4.031   0.710  0.00  0.00     0.039 H 
ATOM     18  H10 <0> d           0.010   5.269   0.398  0.00  0.00     0.076 H 
ATOM     19  H11 <0> d           2.009   4.137  -0.299  0.00  0.00     0.084 H 
ENDROOT
BRANCH   5  20
ATOM     20  N1  <0> d          -1.197  -0.721   0.010  0.00  0.00    -0.399 N 
ATOM     21  H4  <0> d          -2.044  -0.249   0.021  0.00  0.00     0.156 HD
ATOM     22  H5  <0> d          -1.182  -1.691   0.005  0.00  0.00     0.156 HD
ENDBRANCH   5  20
TORSDOF 1
