REMARK  3 active torsions:
REMARK  status: ('A' for Active; 'I' for Inactive)
REMARK    1  A    between atoms: C1_1  and  C2_2 
REMARK    2  A    between atoms: C2_2  and  C3_3 
REMARK    3  A    between atoms: C6_6  and  C7_8 
ROOT
ATOM      1  C3  <0> d           0.000   1.080   2.488  0.00  0.00    -0.017 A 
ATOM      2  C4  <0> d           1.012   1.679   3.171  0.00  0.00    -0.069 A 
ATOM      3  C5  <0> d           1.542   1.050   4.269  0.00  0.00    -0.059 A 
ATOM      4  C6  <0> d           1.001  -0.179   4.616  0.00  0.00     0.081 A 
ATOM      5  S1  <0> d          -0.254  -0.393   3.366  0.00  0.00    -0.088 SA
ATOM      6  H6  <0> d           1.393   2.637   2.852  0.00  0.00     0.085 H 
ATOM      7  H7  <0> d           2.347   1.492   4.837  0.00  0.00     0.086 H 
ENDROOT
BRANCH   1   8
ATOM      8  C2  <0> d          -0.729   1.579   1.267  0.00  0.00    -0.038 C 
ATOM      9  H4  <0> d          -0.744   2.669   1.273  0.00  0.00     0.040 H 
ATOM     10  H5  <0> d          -1.751   1.202   1.275  0.00  0.00     0.040 H 
BRANCH   8  11
ATOM     11  C1  <0> d          -0.013   1.086   0.008  0.00  0.00    -0.072 C 
ATOM     12  H1  <0> d           0.002  -0.004   0.002  0.00  0.00     0.028 H 
ATOM     13  H2  <0> d           1.010   1.463   0.000  0.00  0.00     0.028 H 
ATOM     14  H3  <0> d          -0.540   1.447  -0.875  0.00  0.00     0.028 H 
ENDBRANCH   8  11
ENDBRANCH   1   8
BRANCH   4  15
ATOM     15  C7  <0> d           1.361  -1.066   5.723  0.00  0.00     0.216 C 
ATOM     16  O1  <0> d           2.252  -0.751   6.490  0.00  0.00    -0.643 OA
ATOM     17  O2  <0> d           0.707  -2.233   5.893  0.00  0.00    -0.643 OA
ENDBRANCH   4  15
TORSDOF 3
