REMARK  0 active torsions:
REMARK  status: ('A' for Active; 'I' for Inactive)
ROOT
ATOM      1  C1  <0> d          -0.013   1.076   0.008  0.00  0.00    -0.022 A 
ATOM      2  C2  <0> d           1.187   1.792   0.000  0.00  0.00     0.050 A 
ATOM      3  C3  <0> d           1.161   3.188   0.008  0.00  0.00    -0.022 A 
ATOM      4  C4  <0> d          -0.048   3.854   0.023  0.00  0.00     0.159 A 
ATOM      5  C5  <0> d          -1.237   3.139   0.031  0.00  0.00     0.193 A 
ATOM      6  C6  <0> d          -1.217   1.751   0.017  0.00  0.00     0.159 A 
ATOM      7  F1  <0> d          -2.378   1.060   0.019  0.00  0.00    -0.203 F 
ATOM      8  F2  <0> d          -2.418   3.795   0.046  0.00  0.00    -0.200 F 
ATOM      9  F3  <0> d          -0.074   5.205   0.030  0.00  0.00    -0.203 F 
ATOM     10  C7  <0> d           2.438   1.096  -0.015  0.00  0.00     0.099 C 
ATOM     11  N1  <0> d           3.431   0.544  -0.027  0.00  0.00    -0.191 NA
ATOM     12  H1  <0> d           0.002  -0.004   0.002  0.00  0.00     0.090 H 
ATOM     13  H2  <0> d           2.086   3.746   0.002  0.00  0.00     0.090 H 
ENDROOT
TORSDOF 0
