REMARK  6 active torsions:
REMARK  status: ('A' for Active; 'I' for Inactive)
REMARK    1  A    between atoms: C1_1  and  C2_2 
REMARK    2  A    between atoms: C2_2  and  C3_3 
REMARK    3  A    between atoms: C3_3  and  C4_5 
REMARK    4  A    between atoms: C3_3  and  N1_6 
REMARK       I    between atoms: N1_6  and  C5_7 
REMARK    5  A    between atoms: C5_7  and  O2_9 
REMARK    6  A    between atoms: O2_9  and  C6_10 
ROOT
ATOM      1  C3  <0> d           2.522   4.105   0.000  0.00  0.00     0.010 C 
ATOM      2  H1  <0> d           3.241   3.526   0.580  0.00  0.00     0.072 H 
ENDROOT
BRANCH   1   3
ATOM      3  C2  <0> d           2.370   5.496   0.619  0.00  0.00    -0.050 C 
ATOM      4  H5  <0> d           3.312   6.037   0.532  0.00  0.00     0.035 H 
ATOM      5  H6  <0> d           1.587   6.043   0.094  0.00  0.00     0.035 H 
BRANCH   3   6
ATOM      6  C1  <0> d           1.994   5.359   2.095  0.00  0.00    -0.075 C 
ATOM      7  H2  <0> d           1.052   4.818   2.182  0.00  0.00     0.027 H 
ATOM      8  H3  <0> d           2.777   4.812   2.620  0.00  0.00     0.027 H 
ATOM      9  H4  <0> d           1.886   6.350   2.536  0.00  0.00     0.027 H 
ENDBRANCH   3   6
ENDBRANCH   1   3
BRANCH   1  10
ATOM     10  C4  <0> d           3.018   4.239  -1.441  0.00  0.00    -0.057 C 
ATOM     11  H7  <0> d           2.299   4.818  -2.021  0.00  0.00     0.030 H 
ATOM     12  H8  <0> d           3.982   4.747  -1.448  0.00  0.00     0.030 H 
ATOM     13  H9  <0> d           3.127   3.248  -1.882  0.00  0.00     0.030 H 
ENDBRANCH   1  10
BRANCH   1  14
ATOM     14  N1  <0> d           1.226   3.422   0.009  0.00  0.00    -0.333 N 
ATOM     15  C5  <0> d           1.174   2.075   0.002  0.00  0.00     0.360 C 
ATOM     16  O1  <0> d           2.201   1.427  -0.011  0.00  0.00    -0.239 OA
ATOM     17  H10 <0> d           0.405   3.939   0.019  0.00  0.00     0.165 HD
BRANCH  15  18
ATOM     18  O2  <0> d          -0.018   1.448   0.010  0.00  0.00    -0.309 OA
BRANCH  18  19
ATOM     19  C6  <0> d           0.002  -0.004   0.002  0.00  0.00     0.015 C 
ATOM     20  H11 <0> d          -1.020  -0.381   0.010  0.00  0.00     0.067 H 
ATOM     21  H12 <0> d           0.512  -0.356  -0.895  0.00  0.00     0.067 H 
ATOM     22  H13 <0> d           0.529  -0.365   0.885  0.00  0.00     0.067 H 
ENDBRANCH  18  19
ENDBRANCH  15  18
ENDBRANCH   1  14
TORSDOF 6
