REMARK  6 active torsions:
REMARK  status: ('A' for Active; 'I' for Inactive)
REMARK    1  A    between atoms: C1_1  and  C2_2 
REMARK    2  A    between atoms: C2_2  and  C3_3 
REMARK    3  A    between atoms: C3_3  and  C4_4 
REMARK    4  A    between atoms: C3_3  and  C6_6 
REMARK    5  A    between atoms: C4_4  and  C5_5 
REMARK       I    between atoms: C6_6  and  N1_8 
REMARK    6  A    between atoms: N1_8  and  C7_9 
ROOT
ATOM      1  C3  <0> d          -0.014   1.530  -0.014  0.00  0.00     0.023 C 
ATOM      2  H6  <0> d           0.958   1.972  -0.234  0.00  0.00     0.054 H 
ENDROOT
BRANCH   1   3
ATOM      3  C2  <0> d          -1.027   1.973  -1.071  0.00  0.00    -0.057 C 
ATOM      4  H4  <0> d          -0.740   1.569  -2.041  0.00  0.00     0.033 H 
ATOM      5  H5  <0> d          -2.017   1.604  -0.802  0.00  0.00     0.033 H 
BRANCH   3   6
ATOM      6  C1  <0> d          -1.054   3.501  -1.142  0.00  0.00    -0.076 C 
ATOM      7  H1  <0> d          -1.776   3.817  -1.895  0.00  0.00     0.027 H 
ATOM      8  H2  <0> d          -1.341   3.905  -0.172  0.00  0.00     0.027 H 
ATOM      9  H3  <0> d          -0.064   3.870  -1.411  0.00  0.00     0.027 H 
ENDBRANCH   3   6
ENDBRANCH   1   3
BRANCH   1  10
ATOM     10  C4  <0> d          -0.482   1.992   1.368  0.00  0.00    -0.057 C 
ATOM     11  H7  <0> d          -0.661   3.067   1.350  0.00  0.00     0.033 H 
ATOM     12  H8  <0> d          -1.406   1.474   1.630  0.00  0.00     0.033 H 
BRANCH  10  13
ATOM     13  C5  <0> d           0.595   1.670   2.406  0.00  0.00    -0.076 C 
ATOM     14  H9  <0> d           0.695   0.589   2.502  0.00  0.00     0.027 H 
ATOM     15  H10 <0> d           1.546   2.096   2.087  0.00  0.00     0.027 H 
ATOM     16  H11 <0> d           0.310   2.095   3.368  0.00  0.00     0.027 H 
ENDBRANCH  10  13
ENDBRANCH   1  10
BRANCH   1  17
ATOM     17  C6  <0> d           0.103   0.027  -0.028  0.00  0.00     0.221 C 
ATOM     18  O1  <0> d          -0.687  -0.648   0.597  0.00  0.00    -0.273 OA
ATOM     19  N1  <0> d           1.085  -0.565  -0.736  0.00  0.00    -0.365 N 
ATOM     20  H12 <0> d           1.759  -0.025  -1.177  0.00  0.00     0.161 HD
BRANCH  19  21
ATOM     21  C7  <0> d           1.135  -2.026  -0.839  0.00  0.00    -0.018 C 
ATOM     22  H13 <0> d           1.991  -2.319  -1.446  0.00  0.00     0.056 H 
ATOM     23  H14 <0> d           1.231  -2.457   0.158  0.00  0.00     0.056 H 
ATOM     24  H15 <0> d           0.218  -2.389  -1.304  0.00  0.00     0.056 H 
ENDBRANCH  19  21
ENDBRANCH   1  17
TORSDOF 6
