REMARK  1 active torsions:
REMARK  status: ('A' for Active; 'I' for Inactive)
REMARK    1  A    between atoms: C3_4  and  N4_8 
ROOT
ATOM      1  C1  <0> d           0.002  -0.004   0.002  0.00  0.00     0.126 C 
ATOM      2  N1  <0> d           0.018  -1.140  -0.004  0.00  0.00    -0.190 NA
ATOM      3  C2  <0> d          -0.017   1.428   0.010  0.00  0.00     0.213 A 
ATOM      4  C3  <0> d           1.125   2.371   0.004  0.00  0.00     0.193 A 
ATOM      5  N2  <0> d           0.530   3.541   0.015  0.00  0.00    -0.084 NA
ATOM      6  O1  <0> d          -0.668   3.383   0.026  0.00  0.00    -0.104 OA
ATOM      7  N3  <0> d          -1.055   2.238   0.018  0.00  0.00    -0.090 NA
ENDROOT
BRANCH   4   8
ATOM      8  N4  <0> d           2.485   2.089  -0.010  0.00  0.00    -0.380 N 
ATOM      9  H1  <0> d           2.789   1.167  -0.018  0.00  0.00     0.158 HD
ATOM     10  H2  <0> d           3.130   2.812  -0.013  0.00  0.00     0.158 HD
ENDBRANCH   4   8
TORSDOF 1
