REMARK  10 active torsions:
REMARK  status: ('A' for Active; 'I' for Inactive)
REMARK    1  A    between atoms: C1_1  and  C2_2 
REMARK    2  A    between atoms: C2_2  and  C3_3 
REMARK    3  A    between atoms: C3_3  and  C4_4 
REMARK    4  A    between atoms: C3_3  and  C5_5 
REMARK    5  A    between atoms: C3_3  and  O1_11 
REMARK    6  A    between atoms: C5_5  and  C6_6 
REMARK    7  A    between atoms: C6_6  and  C7_7 
REMARK    8  A    between atoms: C7_7  and  C8_8 
REMARK    9  A    between atoms: C8_8  and  C9_9 
REMARK   10  A    between atoms: C8_8  and  C10_10 
ROOT
ATOM      1  C5  <0> d           0.718  -0.497  -1.257  0.00  0.00    -0.037 C 
ATOM      2  H9  <0> d           1.741  -0.120  -1.264  0.00  0.00     0.037 H 
ATOM      3  H10 <0> d           0.733  -1.587  -1.263  0.00  0.00     0.037 H 
ENDROOT
BRANCH   1   4
ATOM      4  C3  <0> d           0.002  -0.004   0.002  0.00  0.00     0.054 C 
BRANCH   4   5
ATOM      5  C2  <0> d           0.742  -0.511   1.242  0.00  0.00    -0.040 C 
ATOM      6  H4  <0> d           0.835  -1.596   1.191  0.00  0.00     0.036 H 
ATOM      7  H5  <0> d           1.735  -0.063   1.280  0.00  0.00     0.036 H 
BRANCH   5   8
ATOM      8  C1  <0> d          -0.042  -0.124   2.497  0.00  0.00    -0.074 C 
ATOM      9  H1  <0> d           0.486  -0.485   3.380  0.00  0.00     0.027 H 
ATOM     10  H2  <0> d          -0.134   0.961   2.548  0.00  0.00     0.027 H 
ATOM     11  H3  <0> d          -1.034  -0.572   2.458  0.00  0.00     0.027 H 
ENDBRANCH   5   8
ENDBRANCH   4   5
BRANCH   4  12
ATOM     12  C4  <0> d          -1.433  -0.534   0.013  0.00  0.00    -0.048 C 
ATOM     13  H6  <0> d          -1.960  -0.173  -0.870  0.00  0.00     0.031 H 
ATOM     14  H7  <0> d          -1.419  -1.623   0.007  0.00  0.00     0.031 H 
ATOM     15  H8  <0> d          -1.944  -0.182   0.910  0.00  0.00     0.031 H 
ENDBRANCH   4  12
BRANCH   4  16
ATOM     16  O1  <0> d          -0.017   1.425   0.010  0.00  0.00    -0.390 OA
ATOM     17  H22 <0> d           0.861   1.830   0.004  0.00  0.00     0.210 HD
ENDBRANCH   4  16
ENDBRANCH   1   4
BRANCH   1  18
ATOM     18  C6  <0> d          -0.022   0.009  -2.496  0.00  0.00    -0.062 C 
ATOM     19  H11 <0> d          -1.044  -0.368  -2.489  0.00  0.00     0.033 H 
ATOM     20  H12 <0> d          -0.037   1.099  -2.490  0.00  0.00     0.033 H 
BRANCH  18  21
ATOM     21  C7  <0> d           0.694  -0.484  -3.755  0.00  0.00    -0.062 C 
ATOM     22  H13 <0> d           1.717  -0.107  -3.763  0.00  0.00     0.033 H 
ATOM     23  H14 <0> d           0.709  -1.574  -3.761  0.00  0.00     0.033 H 
BRANCH  21  24
ATOM     24  C8  <0> d          -0.046   0.023  -4.995  0.00  0.00    -0.061 C 
ATOM     25  H15 <0> d          -0.138   1.108  -4.944  0.00  0.00     0.038 H 
BRANCH  24  26
ATOM     26  C9  <0> d           0.738  -0.364  -6.250  0.00  0.00    -0.073 C 
ATOM     27  H16 <0> d           0.831  -1.449  -6.301  0.00  0.00     0.028 H 
ATOM     28  H17 <0> d           0.211  -0.003  -7.133  0.00  0.00     0.028 H 
ATOM     29  H18 <0> d           1.731   0.083  -6.212  0.00  0.00     0.028 H 
ENDBRANCH  24  26
BRANCH  24  30
ATOM     30  C10 <0> d          -1.439  -0.606  -5.049  0.00  0.00    -0.073 C 
ATOM     31  H19 <0> d          -1.998  -0.330  -4.155  0.00  0.00     0.028 H 
ATOM     32  H20 <0> d          -1.967  -0.245  -5.932  0.00  0.00     0.028 H 
ATOM     33  H21 <0> d          -1.347  -1.691  -5.099  0.00  0.00     0.028 H 
ENDBRANCH  24  30
ENDBRANCH  21  24
ENDBRANCH  18  21
ENDBRANCH   1  18
TORSDOF 10
