REMARK  2 active torsions:
REMARK  status: ('A' for Active; 'I' for Inactive)
REMARK    1  A    between atoms: C3_3  and  C7_8 
REMARK    2  A    between atoms: C5_5  and  N1_7 
ROOT
ATOM      1  C1  <0> d          -0.017   1.377   0.010  0.00  0.00    -0.080 A 
ATOM      2  C2  <0> d           1.171   2.086   0.002  0.00  0.00    -0.071 A 
ATOM      3  C3  <0> d           2.380   1.416  -0.013  0.00  0.00     0.008 A 
ATOM      4  C4  <0> d           2.406   0.035  -0.021  0.00  0.00    -0.046 A 
ATOM      5  C5  <0> d           1.215  -0.681  -0.013  0.00  0.00     0.026 A 
ATOM      6  C6  <0> d           0.002  -0.004   0.002  0.00  0.00    -0.058 A 
ATOM      7  H1  <0> d          -0.959   1.903   0.026  0.00  0.00     0.083 H 
ATOM      8  H2  <0> d           1.153   3.166   0.008  0.00  0.00     0.084 H 
ATOM      9  H3  <0> d           3.351  -0.488  -0.034  0.00  0.00     0.088 H 
ATOM     10  H4  <0> d          -0.925  -0.557   0.008  0.00  0.00     0.086 H 
ENDROOT
BRANCH   3  11
ATOM     11  C7  <0> d           3.671   2.193  -0.023  0.00  0.00     0.234 C 
ATOM     12  F1  <0> d           3.488   3.409   0.645  0.00  0.00    -0.209 F 
ATOM     13  F2  <0> d           4.666   1.451   0.623  0.00  0.00    -0.209 F 
ATOM     14  H7  <0> d           3.972   2.385  -1.052  0.00  0.00     0.153 H 
ENDBRANCH   3  11
BRANCH   5  15
ATOM     15  N1  <0> d           1.238  -2.077  -0.021  0.00  0.00    -0.399 N 
ATOM     16  H5  <0> d           2.086  -2.549  -0.032  0.00  0.00     0.156 HD
ATOM     17  H6  <0> d           0.406  -2.576  -0.015  0.00  0.00     0.156 HD
ENDBRANCH   5  15
TORSDOF 2
