REMARK  3 active torsions:
REMARK  status: ('A' for Active; 'I' for Inactive)
REMARK    1  A    between atoms: C1_1  and  C2_2 
REMARK    2  A    between atoms: C2_2  and  C3_3 
REMARK    3  A    between atoms: C3_3  and  C5_7 
ROOT
ATOM      1  C3  <0> d           1.151   3.592   0.010  0.00  0.00     0.055 C 
ATOM      2  H1  <0> d           0.118   3.942   0.021  0.00  0.00     0.070 H 
ATOM      3  C4  <0> d           1.826   4.098  -1.196  0.00  0.00     0.068 C 
ATOM      4  N1  <0> d           2.348   4.489  -2.126  0.00  0.00    -0.197 NA
ENDROOT
BRANCH   1   5
ATOM      5  C2  <0> d           1.876   4.106   1.255  0.00  0.00    -0.050 C 
ATOM      6  H5  <0> d           1.431   3.660   2.145  0.00  0.00     0.034 H 
ATOM      7  H6  <0> d           2.930   3.832   1.200  0.00  0.00     0.034 H 
BRANCH   5   8
ATOM      8  C1  <0> d           1.748   5.629   1.328  0.00  0.00    -0.075 C 
ATOM      9  H2  <0> d           0.695   5.902   1.383  0.00  0.00     0.027 H 
ATOM     10  H3  <0> d           2.266   5.994   2.215  0.00  0.00     0.027 H 
ATOM     11  H4  <0> d           2.194   6.074   0.439  0.00  0.00     0.027 H 
ENDBRANCH   5   8
ENDBRANCH   1   5
BRANCH   1  12
ATOM     12  C5  <0> d           1.171   2.086   0.002  0.00  0.00    -0.041 A 
ATOM     13  C10 <0> d           2.377   1.411  -0.014  0.00  0.00    -0.076 A 
ATOM     14  C9  <0> d           2.396   0.029  -0.021  0.00  0.00    -0.082 A 
ATOM     15  H11 <0> d           3.305   1.963  -0.019  0.00  0.00     0.084 H 
ATOM     16  C8  <0> d           1.208  -0.679  -0.014  0.00  0.00    -0.083 A 
ATOM     17  H10 <0> d           3.339  -0.499  -0.033  0.00  0.00     0.083 H 
ATOM     18  C7  <0> d           0.002  -0.004   0.002  0.00  0.00    -0.082 A 
ATOM     19  H9  <0> d           1.223  -1.759  -0.020  0.00  0.00     0.083 H 
ATOM     20  C6  <0> d          -0.017   1.378   0.010  0.00  0.00    -0.076 A 
ATOM     21  H8  <0> d          -0.926  -0.557   0.008  0.00  0.00     0.083 H 
ATOM     22  H7  <0> d          -0.959   1.905   0.017  0.00  0.00     0.084 H 
ENDBRANCH   1  12
TORSDOF 3
