REMARK  0 active torsions:
REMARK  status: ('A' for Active; 'I' for Inactive)
ROOT
ATOM      1  C1  <0> d          -0.018   1.455   0.010  0.00  0.00     0.073 C 
ATOM      2  C2  <0> d           1.392   2.002  -0.001  0.00  0.00     0.178 C 
ATOM      3  O1  <0> d           1.932   2.316  -1.034  0.00  0.00    -0.293 OA
ATOM      4  C3  <0> d           2.100   2.143   1.321  0.00  0.00     0.149 A 
ATOM      5  H1  <0> d           1.625   2.900   1.945  0.00  0.00     0.100 H 
ATOM      6  C4  <0> d           2.054   0.774   1.976  0.00  0.00     0.138 A 
ATOM      7  N1  <0> d           3.294   0.473   2.229  0.00  0.00    -0.226 NA
ATOM      8  C5  <0> d           4.139   1.386   1.732  0.00  0.00     0.084 A 
ATOM      9  N2  <0> d           3.533   2.406   1.161  0.00  0.00    -0.262 NA
ATOM     10  N3  <0> d           0.932   0.021   2.135  0.00  0.00    -0.337 N 
ATOM     11  C6  <0> d           0.447  -0.662   1.040  0.00  0.00     0.060 C 
ATOM     12  N4  <0> d           0.002  -0.004   0.002  0.00  0.00    -0.277 NA
ATOM     13  H2  <0> d          -0.533   1.804   0.905  0.00  0.00     0.079 H 
ATOM     14  H3  <0> d          -0.550   1.813  -0.871  0.00  0.00     0.079 H 
ATOM     15  H4  <0> d           5.214   1.301   1.800  0.00  0.00     0.146 H 
ATOM     16  H5  <0> d           0.434  -1.742   1.040  0.00  0.00     0.142 H 
ATOM     17  H6  <0> d           0.487  -0.034   2.995  0.00  0.00     0.168 HD
ENDROOT
TORSDOF 0
