REMARK  4 active torsions:
REMARK  status: ('A' for Active; 'I' for Inactive)
REMARK    1  A    between atoms: C1_1  and  C2_2 
REMARK    2  A    between atoms: C6_6  and  O1_8 
REMARK    3  A    between atoms: O1_8  and  C8_9 
REMARK    4  A    between atoms: C8_9  and  C9_10 
ROOT
ATOM      1  C9  <0> d           0.082  -4.774   3.630  0.00  0.00    -0.091 C 
ATOM      2  C10 <0> d           0.093  -5.230   4.712  0.00  0.00    -0.152 C 
ATOM      3  H10 <0> d           0.103  -5.638   5.679  0.00  0.00     0.166 H 
ENDROOT
BRANCH   1   4
ATOM      4  C8  <0> d           0.069  -4.202   2.274  0.00  0.00     0.080 C 
ATOM      5  H8  <0> d          -0.819  -4.546   1.743  0.00  0.00     0.094 H 
ATOM      6  H9  <0> d           0.960  -4.522   1.735  0.00  0.00     0.094 H 
BRANCH   4   7
ATOM      7  O1  <0> d           0.050  -2.776   2.358  0.00  0.00    -0.340 OA
BRANCH   7   8
ATOM      8  C6  <0> d           0.035  -2.088   1.186  0.00  0.00     0.070 A 
ATOM      9  C5  <0> d           0.039  -2.772  -0.020  0.00  0.00    -0.051 A 
ATOM     10  C4  <0> d           0.024  -2.071  -1.211  0.00  0.00    -0.080 A 
ATOM     11  H6  <0> d           0.053  -3.852  -0.029  0.00  0.00     0.087 H 
ATOM     12  C3  <0> d           0.006  -0.688  -1.200  0.00  0.00    -0.077 A 
ATOM     13  H5  <0> d           0.027  -2.603  -2.151  0.00  0.00     0.083 H 
ATOM     14  C2  <0> d           0.002  -0.004   0.002  0.00  0.00    -0.059 A 
ATOM     15  H4  <0> d          -0.006  -0.142  -2.131  0.00  0.00     0.084 H 
ATOM     16  C7  <0> d           0.023  -0.700   1.195  0.00  0.00    -0.045 A 
ATOM     17  H7  <0> d           0.025  -0.166   2.133  0.00  0.00     0.088 H 
BRANCH  14  18
ATOM     18  C1  <0> d          -0.018   1.503   0.010  0.00  0.00    -0.051 C 
ATOM     19  H1  <0> d           1.004   1.880   0.003  0.00  0.00     0.033 H 
ATOM     20  H2  <0> d          -0.545   1.864  -0.873  0.00  0.00     0.033 H 
ATOM     21  H3  <0> d          -0.529   1.854   0.907  0.00  0.00     0.033 H 
ENDBRANCH  14  18
ENDBRANCH   7   8
ENDBRANCH   4   7
ENDBRANCH   1   4
TORSDOF 4
