REMARK  2 active torsions:
REMARK  status: ('A' for Active; 'I' for Inactive)
REMARK    1  A    between atoms: C1_1  and  C2_2 
REMARK       I    between atoms: C2_2  and  N1_4 
REMARK    2  A    between atoms: N1_4  and  C3_5 
ROOT
ATOM      1  C3  <0> d          -0.071  -2.068  -1.121  0.00  0.00     0.034 A 
ATOM      2  C4  <0> d          -0.152  -2.719   0.103  0.00  0.00    -0.057 A 
ATOM      3  C5  <0> d          -0.222  -4.098   0.147  0.00  0.00    -0.081 A 
ATOM      4  C6  <0> d          -0.211  -4.830  -1.026  0.00  0.00    -0.083 A 
ATOM      5  C7  <0> d          -0.130  -4.185  -2.246  0.00  0.00    -0.081 A 
ATOM      6  C8  <0> d          -0.066  -2.806  -2.297  0.00  0.00    -0.057 A 
ATOM      7  H5  <0> d          -0.160  -2.148   1.020  0.00  0.00     0.086 H 
ATOM      8  H6  <0> d          -0.284  -4.605   1.099  0.00  0.00     0.083 H 
ATOM      9  H7  <0> d          -0.266  -5.908  -0.989  0.00  0.00     0.083 H 
ATOM     10  H8  <0> d          -0.121  -4.759  -3.161  0.00  0.00     0.083 H 
ATOM     11  H9  <0> d          -0.008  -2.303  -3.251  0.00  0.00     0.086 H 
ENDROOT
BRANCH   1  12
ATOM     12  N1  <0> d           0.000  -0.672  -1.169  0.00  0.00    -0.328 N 
ATOM     13  C2  <0> d          -0.604  -0.000  -2.169  0.00  0.00     0.218 C 
ATOM     14  O1  <0> d          -1.137  -0.609  -3.073  0.00  0.00    -0.274 OA
ATOM     15  H4  <0> d           0.484  -0.187  -0.482  0.00  0.00     0.169 HD
BRANCH  13  16
ATOM     16  C1  <0> d          -0.617   1.507  -2.165  0.00  0.00    -0.003 C 
ATOM     17  H1  <0> d          -1.502   1.861  -1.638  0.00  0.00     0.040 H 
ATOM     18  H2  <0> d           0.277   1.876  -1.663  0.00  0.00     0.040 H 
ATOM     19  H3  <0> d          -0.634   1.873  -3.192  0.00  0.00     0.040 H 
ENDBRANCH  13  16
ENDBRANCH   1  12
TORSDOF 2
