REMARK  4 active torsions:
REMARK  status: ('A' for Active; 'I' for Inactive)
REMARK    1  A    between atoms: C1_1  and  N1_2 
REMARK    2  A    between atoms: C2_3  and  C5_9 
REMARK    3  A    between atoms: C5_9  and  O3_11 
REMARK    4  A    between atoms: O3_11  and  C6_12 
ROOT
ATOM      1  N1  <0> d           1.130  -0.793  -0.018  0.00  0.00    -0.288 N 
ATOM      2  C2  <0> d           0.002  -0.004   0.002  0.00  0.00     0.131 A 
ATOM      3  C3  <0> d          -1.087  -0.811   0.008  0.00  0.00     0.017 A 
ATOM      4  C4  <0> d          -0.600  -2.195  -0.004  0.00  0.00     0.262 A 
ATOM      5  O1  <0> d          -1.282  -3.203  -0.004  0.00  0.00    -0.267 OA
ATOM      6  N2  <0> d           0.748  -2.139  -0.016  0.00  0.00    -0.264 N 
ATOM      7  H1  <0> d           1.348  -2.901  -0.026  0.00  0.00     0.190 HD
ATOM      8  H5  <0> d          -2.119  -0.495   0.019  0.00  0.00     0.096 H 
ENDROOT
BRANCH   2   9
ATOM      9  C5  <0> d          -0.018   1.478   0.010  0.00  0.00     0.311 C 
ATOM     10  O2  <0> d           1.025   2.100   0.004  0.00  0.00    -0.258 OA
BRANCH   9  11
ATOM     11  O3  <0> d          -1.193   2.136   0.019  0.00  0.00    -0.321 OA
BRANCH  11  12
ATOM     12  C6  <0> d          -1.137   3.587   0.027  0.00  0.00     0.013 C 
ATOM     13  H6  <0> d          -0.605   3.925   0.916  0.00  0.00     0.067 H 
ATOM     14  H7  <0> d          -0.614   3.935  -0.864  0.00  0.00     0.067 H 
ATOM     15  H8  <0> d          -2.150   3.990   0.034  0.00  0.00     0.067 H 
ENDBRANCH  11  12
ENDBRANCH   9  11
ENDBRANCH   2   9
BRANCH   1  16
ATOM     16  C1  <0> d           2.510  -0.302  -0.036  0.00  0.00     0.001 C 
ATOM     17  H2  <0> d           2.867  -0.185   0.987  0.00  0.00     0.059 H 
ATOM     18  H3  <0> d           3.143  -1.016  -0.563  0.00  0.00     0.059 H 
ATOM     19  H4  <0> d           2.546   0.661  -0.546  0.00  0.00     0.059 H 
ENDBRANCH   1  16
TORSDOF 4
