REMARK  1 active torsions:
REMARK  status: ('A' for Active; 'I' for Inactive)
REMARK    1  A    between atoms: C3_4  and  C5_7 
ROOT
ATOM      1  C1  <0> d          -0.017   1.383   0.010  0.00  0.00    -0.049 A 
ATOM      2  C2  <0> d           1.192   2.063   0.002  0.00  0.00     0.006 A 
ATOM      3  N1  <0> d           2.320   1.374  -0.013  0.00  0.00    -0.238 NA
ATOM      4  C3  <0> d           2.304   0.047  -0.020  0.00  0.00     0.195 A 
ATOM      5  N2  <0> d           1.164  -0.633  -0.013  0.00  0.00    -0.238 NA
ATOM      6  C4  <0> d           0.002  -0.004   0.002  0.00  0.00     0.006 A 
ATOM      7  H2  <0> d          -0.953   1.922   0.026  0.00  0.00     0.087 H 
ATOM      8  H3  <0> d           1.212   3.143   0.007  0.00  0.00     0.114 H 
ATOM      9  H4  <0> d          -0.922  -0.563   0.008  0.00  0.00     0.114 H 
ENDROOT
BRANCH   4  10
ATOM     10  C5  <0> d           3.585  -0.691  -0.036  0.00  0.00     0.175 A 
ATOM     11  N4  <0> d           4.784  -0.151  -0.045  0.00  0.00    -0.238 NA
ATOM     12  C7  <0> d           5.703  -1.120  -0.056  0.00  0.00     0.019 A 
ATOM     13  C6  <0> d           5.065  -2.311  -0.062  0.00  0.00    -0.004 A 
ATOM     14  H6  <0> d           6.773  -0.976  -0.062  0.00  0.00     0.117 H 
ATOM     15  N3  <0> d           3.726  -2.048  -0.050  0.00  0.00    -0.346 N 
ATOM     16  H5  <0> d           5.528  -3.287  -0.075  0.00  0.00     0.113 H 
ATOM     17  H1  <0> d           3.009  -2.702  -0.051  0.00  0.00     0.167 HD
ENDBRANCH   4  10
TORSDOF 1
