REMARK  2 active torsions:
REMARK  status: ('A' for Active; 'I' for Inactive)
REMARK    1  A    between atoms: C1_1  and  C2_2 
REMARK    2  A    between atoms: C2_2  and  C7_8 
ROOT
ATOM      1  C2  <0> d           0.002  -0.004   0.002  0.00  0.00    -0.041 C 
ATOM      2  C3  <0> d           0.764  -0.518  -1.238  0.00  0.00    -0.052 C 
ATOM      3  C4  <0> d           2.196  -0.780  -0.708  0.00  0.00    -0.009 C 
ATOM      4  C5  <0> d           1.945  -1.337   0.690  0.00  0.00     0.127 C 
ATOM      5  O1  <0> d           2.546  -2.224   1.248  0.00  0.00    -0.298 OA
ATOM      6  C6  <0> d           0.775  -0.530   1.225  0.00  0.00    -0.003 C 
ATOM      7  H4  <0> d           0.317  -1.442  -1.607  0.00  0.00     0.034 H 
ATOM      8  H5  <0> d           0.778   0.240  -2.021  0.00  0.00     0.034 H 
ATOM      9  H6  <0> d           2.709  -1.514  -1.329  0.00  0.00     0.044 H 
ATOM     10  H7  <0> d           2.764   0.149  -0.657  0.00  0.00     0.044 H 
ATOM     11  H8  <0> d           1.140   0.305   1.822  0.00  0.00     0.045 H 
ATOM     12  H9  <0> d           0.129  -1.167   1.829  0.00  0.00     0.045 H 
ENDROOT
BRANCH   1  13
ATOM     13  C1  <0> d          -0.019   1.526   0.010  0.00  0.00    -0.069 C 
ATOM     14  H1  <0> d           1.004   1.903   0.003  0.00  0.00     0.028 H 
ATOM     15  H2  <0> d          -0.546   1.887  -0.873  0.00  0.00     0.028 H 
ATOM     16  H3  <0> d          -0.529   1.877   0.907  0.00  0.00     0.028 H 
ENDBRANCH   1  13
BRANCH   1  17
ATOM     17  C7  <0> d          -1.427  -0.550   0.008  0.00  0.00    -0.069 C 
ATOM     18  H10 <0> d          -1.952  -0.205  -0.883  0.00  0.00     0.028 H 
ATOM     19  H11 <0> d          -1.400  -1.639   0.014  0.00  0.00     0.028 H 
ATOM     20  H12 <0> d          -1.948  -0.194   0.896  0.00  0.00     0.028 H 
ENDBRANCH   1  17
TORSDOF 2
