REMARK  2 active torsions:
REMARK  status: ('A' for Active; 'I' for Inactive)
REMARK    1  A    between atoms: C1_1  and  C2_2 
REMARK    2  A    between atoms: C4_4  and  C5_8 
ROOT
ATOM      1  C2  <0> d           0.002  -0.004   0.002  0.00  0.00     0.026 A 
ATOM      2  C3  <0> d           0.008  -0.792  -1.095  0.00  0.00    -0.030 A 
ATOM      3  C4  <0> d           0.029  -2.133  -0.663  0.00  0.00     0.089 A 
ATOM      4  N1  <0> d           0.035  -2.135   0.653  0.00  0.00    -0.174 NA
ATOM      5  N2  <0> d           0.024  -0.804   1.090  0.00  0.00    -0.282 N 
ATOM      6  H1  <0> d           0.028  -0.508   2.014  0.00  0.00     0.189 HD
ATOM      7  H5  <0> d          -0.002  -0.455  -2.121  0.00  0.00     0.090 H 
ENDROOT
BRANCH   3   8
ATOM      8  C5  <0> d           0.041  -3.332  -1.538  0.00  0.00    -0.006 A 
ATOM      9  C10 <0> d           0.062  -4.607  -0.977  0.00  0.00    -0.071 A 
ATOM     10  C9  <0> d           0.068  -5.718  -1.795  0.00  0.00    -0.082 A 
ATOM     11  H10 <0> d           0.069  -4.725   0.097  0.00  0.00     0.084 H 
ATOM     12  C8  <0> d           0.065  -5.568  -3.170  0.00  0.00    -0.083 A 
ATOM     13  H9  <0> d           0.079  -6.707  -1.361  0.00  0.00     0.083 H 
ATOM     14  C7  <0> d           0.050  -4.304  -3.733  0.00  0.00    -0.082 A 
ATOM     15  H8  <0> d           0.074  -6.440  -3.807  0.00  0.00     0.083 H 
ATOM     16  C6  <0> d           0.038  -3.186  -2.924  0.00  0.00    -0.071 A 
ATOM     17  H7  <0> d           0.046  -4.193  -4.807  0.00  0.00     0.083 H 
ATOM     18  H6  <0> d           0.025  -2.200  -3.364  0.00  0.00     0.084 H 
ENDBRANCH   3   8
BRANCH   1  19
ATOM     19  C1  <0> d          -0.018   1.503   0.010  0.00  0.00    -0.036 C 
ATOM     20  H2  <0> d           1.004   1.880   0.003  0.00  0.00     0.035 H 
ATOM     21  H3  <0> d          -0.545   1.864  -0.873  0.00  0.00     0.035 H 
ATOM     22  H4  <0> d          -0.529   1.854   0.907  0.00  0.00     0.035 H 
ENDBRANCH   1  19
TORSDOF 2
