REMARK  0 active torsions:
REMARK  status: ('A' for Active; 'I' for Inactive)
ROOT
ATOM      1  C1  <0> d          -0.017   1.363   0.009  0.00  0.00    -0.082 A 
ATOM      2  C2  <0> d           1.169   2.084   0.002  0.00  0.00    -0.081 A 
ATOM      3  C3  <0> d           2.386   1.438  -0.013  0.00  0.00    -0.056 A 
ATOM      4  C4  <0> d           2.428   0.047  -0.021  0.00  0.00     0.046 A 
ATOM      5  C5  <0> d           1.223  -0.678  -0.013  0.00  0.00     0.041 A 
ATOM      6  C6  <0> d           0.002  -0.004   0.002  0.00  0.00    -0.067 A 
ATOM      7  C7  <0> d           1.290  -2.150  -0.022  0.00  0.00     0.185 A 
ATOM      8  C8  <0> d           2.570  -2.752  -0.038  0.00  0.00    -0.019 A 
ATOM      9  C9  <0> d           3.679  -1.984  -0.045  0.00  0.00    -0.019 A 
ATOM     10  N1  <0> d           3.627  -0.630  -0.037  0.00  0.00    -0.365 N 
ATOM     11  O1  <0> d           0.275  -2.827  -0.015  0.00  0.00    -0.287 OA
ATOM     12  H1  <0> d          -0.961   1.885   0.026  0.00  0.00     0.083 H 
ATOM     13  H2  <0> d           1.138   3.164   0.008  0.00  0.00     0.083 H 
ATOM     14  H3  <0> d           3.303   2.009  -0.020  0.00  0.00     0.086 H 
ATOM     15  H4  <0> d          -0.924  -0.559   0.008  0.00  0.00     0.085 H 
ATOM     16  H5  <0> d           2.659  -3.828  -0.044  0.00  0.00     0.091 H 
ATOM     17  H6  <0> d           4.645  -2.466  -0.057  0.00  0.00     0.111 H 
ATOM     18  H7  <0> d           4.455  -0.125  -0.043  0.00  0.00     0.165 HD
ENDROOT
TORSDOF 0
