REMARK  2 active torsions:
REMARK  status: ('A' for Active; 'I' for Inactive)
REMARK    1  A    between atoms: C4_4  and  O3_10 
REMARK    2  A    between atoms: C5_5  and  C7_7 
ROOT
ATOM      1  C1  <0> d          -0.017   1.373   0.010  0.00  0.00    -0.082 A 
ATOM      2  C2  <0> d           1.170   2.089   0.002  0.00  0.00    -0.080 A 
ATOM      3  C3  <0> d           2.384   1.431  -0.013  0.00  0.00    -0.050 A 
ATOM      4  C4  <0> d           2.423   0.044  -0.022  0.00  0.00     0.082 A 
ATOM      5  C5  <0> d           1.224  -0.685  -0.014  0.00  0.00     0.073 A 
ATOM      6  C6  <0> d           0.002  -0.004   0.002  0.00  0.00    -0.064 A 
ATOM      7  H1  <0> d          -0.961   1.897   0.026  0.00  0.00     0.083 H 
ATOM      8  H2  <0> d           1.145   3.169   0.008  0.00  0.00     0.083 H 
ATOM      9  H3  <0> d           3.304   1.996  -0.019  0.00  0.00     0.087 H 
ATOM     10  H4  <0> d          -0.925  -0.558   0.008  0.00  0.00     0.085 H 
ENDROOT
BRANCH   5  11
ATOM     11  C7  <0> d           1.252  -2.156  -0.023  0.00  0.00     0.212 C 
ATOM     12  O1  <0> d           0.205  -2.788  -0.016  0.00  0.00    -0.644 OA
ATOM     13  O2  <0> d           2.323  -2.747  -0.037  0.00  0.00    -0.644 OA
ENDBRANCH   5  11
BRANCH   4  14
ATOM     14  O3  <0> d           3.614  -0.603  -0.038  0.00  0.00    -0.360 OA
ATOM     15  H5  <0> d           3.969  -0.796   0.841  0.00  0.00     0.217 HD
ENDBRANCH   4  14
TORSDOF 2
