REMARK  2 active torsions:
REMARK  status: ('A' for Active; 'I' for Inactive)
REMARK    1  A    between atoms: C1_1  and  C2_2 
REMARK    2  A    between atoms: C2_2  and  C3_4 
ROOT
ATOM      1  C3  <0> d          -1.185   3.160   0.029  0.00  0.00     0.050 A 
ATOM      2  C4  <0> d          -1.216   1.757   0.017  0.00  0.00    -0.065 A 
ATOM      3  C5  <0> d          -0.013   1.076   0.008  0.00  0.00    -0.065 A 
ATOM      4  C6  <0> d           1.173   1.791   0.001  0.00  0.00     0.004 A 
ATOM      5  N1  <0> d           1.174   3.110   0.007  0.00  0.00    -0.248 NA
ATOM      6  C7  <0> d           0.056   3.808   0.021  0.00  0.00     0.139 A 
ATOM      7 Cl1  <0> d           0.123   5.542   0.029  0.00  0.00    -0.061 Cl
ATOM      8  H4  <0> d          -2.155   1.224   0.019  0.00  0.00     0.085 H 
ATOM      9  H5  <0> d           0.002  -0.004   0.002  0.00  0.00     0.085 H 
ATOM     10  H6  <0> d           2.113   1.259  -0.011  0.00  0.00     0.114 H 
ENDROOT
BRANCH   1  11
ATOM     11  C2  <0> d          -2.434   3.936   0.045  0.00  0.00     0.158 C 
ATOM     12  O1  <0> d          -2.395   5.148   0.051  0.00  0.00    -0.293 OA
BRANCH  11  13
ATOM     13  C1  <0> d          -3.763   3.225   0.055  0.00  0.00    -0.016 C 
ATOM     14  H1  <0> d          -3.612   2.237   0.048  0.00  0.00     0.038 H 
ATOM     15  H2  <0> d          -4.317   3.502   0.952  0.00  0.00     0.038 H 
ATOM     16  H3  <0> d          -4.334   3.511  -0.828  0.00  0.00     0.038 H 
ENDBRANCH  11  13
ENDBRANCH   1  11
TORSDOF 2
