REMARK  5 active torsions:
REMARK  status: ('A' for Active; 'I' for Inactive)
REMARK    1  A    between atoms: C1_1  and  C2_2 
REMARK    2  A    between atoms: C2_2  and  C3_3 
REMARK    3  A    between atoms: C2_2  and  C4_4 
REMARK    4  A    between atoms: C2_2  and  O1_5 
REMARK    5  A    between atoms: O1_5  and  C5_6 
ROOT
ATOM      1  C2  <0> d          -3.480   4.223   0.998  0.00  0.00     0.053 C 
ENDROOT
BRANCH   1   2
ATOM      2  C1  <0> d          -4.037   3.999  -0.410  0.00  0.00    -0.048 C 
ATOM      3  H2  <0> d          -4.773   3.194  -0.385  0.00  0.00     0.031 H 
ATOM      4  H3  <0> d          -4.512   4.914  -0.763  0.00  0.00     0.031 H 
ATOM      5  H4  <0> d          -3.225   3.728  -1.083  0.00  0.00     0.031 H 
ENDBRANCH   1   2
BRANCH   1   6
ATOM      6  C3  <0> d          -4.586   4.767   1.904  0.00  0.00    -0.048 C 
ATOM      7  H5  <0> d          -4.189   4.927   2.906  0.00  0.00     0.031 H 
ATOM      8  H6  <0> d          -4.952   5.712   1.503  0.00  0.00     0.031 H 
ATOM      9  H7  <0> d          -5.406   4.050   1.948  0.00  0.00     0.031 H 
ENDBRANCH   1   6
BRANCH   1  10
ATOM     10  C4  <0> d          -2.330   5.230   0.936  0.00  0.00    -0.048 C 
ATOM     11  H8  <0> d          -1.542   4.843   0.290  0.00  0.00     0.031 H 
ATOM     12  H9  <0> d          -2.696   6.175   0.535  0.00  0.00     0.031 H 
ATOM     13  H10 <0> d          -1.933   5.390   1.938  0.00  0.00     0.031 H 
ENDBRANCH   1  10
BRANCH   1  14
ATOM     14  O1  <0> d          -3.000   2.984   1.523  0.00  0.00    -0.352 OA
BRANCH  14  15
ATOM     15  C5  <0> d          -1.897   2.434   0.800  0.00  0.00     0.132 C 
ATOM     16  H1  <0> d          -1.127   3.190   0.645  0.00  0.00     0.129 H 
ATOM     17  O2  <0> d          -2.336   1.889  -0.462  0.00  0.00    -0.361 OA
ATOM     18  C8  <0> d          -1.340   0.942  -0.880  0.00  0.00     0.023 C 
ATOM     19  C7  <0> d          -0.644   0.417   0.391  0.00  0.00    -0.041 C 
ATOM     20  H15 <0> d          -0.611   1.431  -1.526  0.00  0.00     0.074 H 
ATOM     21  H16 <0> d          -1.813   0.116  -1.411  0.00  0.00     0.074 H 
ATOM     22  C6  <0> d          -1.313   1.204   1.545  0.00  0.00    -0.017 C 
ATOM     23  H13 <0> d          -0.819  -0.653   0.508  0.00  0.00     0.036 H 
ATOM     24  H14 <0> d           0.424   0.627   0.356  0.00  0.00     0.036 H 
ATOM     25  H11 <0> d          -2.107   0.617   2.007  0.00  0.00     0.040 H 
ATOM     26  H12 <0> d          -0.575   1.509   2.287  0.00  0.00     0.040 H 
ENDBRANCH  14  15
ENDBRANCH   1  14
TORSDOF 5
