REMARK  5 active torsions:
REMARK  status: ('A' for Active; 'I' for Inactive)
REMARK    1  A    between atoms: C1_1  and  C2_2 
REMARK    2  A    between atoms: C2_2  and  C3_3 
REMARK    3  A    between atoms: C3_3  and  N1_4 
REMARK    4  A    between atoms: C4_5  and  C7_10 
REMARK    5  A    between atoms: C5_6  and  N3_9 
ROOT
ATOM      1  N1  <0> d           2.072   0.735  -0.014  0.00  0.00    -0.272 N 
ATOM      2  C4  <0> d           1.269   1.832  -0.000  0.00  0.00     0.054 A 
ATOM      3  C5  <0> d          -0.017   1.398   0.010  0.00  0.00     0.069 A 
ATOM      4  C6  <0> d           0.002  -0.004   0.002  0.00  0.00     0.049 A 
ATOM      5  N2  <0> d           1.250  -0.399  -0.012  0.00  0.00    -0.182 NA
ATOM      6  H8  <0> d          -0.865  -0.648   0.007  0.00  0.00     0.121 H 
ENDROOT
BRANCH   1   7
ATOM      7  C3  <0> d           3.537   0.738  -0.027  0.00  0.00     0.017 C 
ATOM      8  H6  <0> d           3.903   1.626   0.487  0.00  0.00     0.067 H 
ATOM      9  H7  <0> d           3.907  -0.154   0.479  0.00  0.00     0.067 H 
BRANCH   7  10
ATOM     10  C2  <0> d           4.033   0.746  -1.474  0.00  0.00    -0.052 C 
ATOM     11  H4  <0> d           3.667  -0.143  -1.989  0.00  0.00     0.035 H 
ATOM     12  H5  <0> d           3.663   1.637  -1.981  0.00  0.00     0.035 H 
BRANCH  10  13
ATOM     13  C1  <0> d           5.563   0.749  -1.489  0.00  0.00    -0.075 C 
ATOM     14  H1  <0> d           5.917   0.755  -2.519  0.00  0.00     0.027 H 
ATOM     15  H2  <0> d           5.929   1.637  -0.974  0.00  0.00     0.027 H 
ATOM     16  H3  <0> d           5.933  -0.142  -0.982  0.00  0.00     0.027 H 
ENDBRANCH  10  13
ENDBRANCH   7  10
ENDBRANCH   1   7
BRANCH   2  17
ATOM     17  C7  <0> d           1.724   3.268   0.002  0.00  0.00    -0.034 C 
ATOM     18  H11 <0> d           1.844   3.610   1.031  0.00  0.00     0.035 H 
ATOM     19  H12 <0> d           2.677   3.349  -0.520  0.00  0.00     0.035 H 
ATOM     20  H13 <0> d           0.980   3.886  -0.501  0.00  0.00     0.035 H 
ENDBRANCH   2  17
BRANCH   3  21
ATOM     21  N3  <0> d          -1.166   2.211   0.020  0.00  0.00    -0.396 N 
ATOM     22  H9  <0> d          -2.047   1.806   0.022  0.00  0.00     0.156 HD
ATOM     23  H10 <0> d          -1.077   3.177   0.024  0.00  0.00     0.156 HD
ENDBRANCH   3  21
TORSDOF 5
