REMARK  5 active torsions:
REMARK  status: ('A' for Active; 'I' for Inactive)
REMARK    1  A    between atoms: C1_1  and  C2_2 
REMARK    2  A    between atoms: C3_4  and  N5_10 
REMARK    3  A    between atoms: C4_6  and  N4_8 
REMARK    4  A    between atoms: N4_8  and  C5_9 
REMARK    5  A    between atoms: N5_10  and  C6_11 
ROOT
ATOM      1  C2  <0> d          -0.367   1.334   4.751  0.00  0.00     0.160 A 
ATOM      2  N1  <0> d           0.719   0.589   4.862  0.00  0.00    -0.047 NA
ATOM      3  C3  <0> d           1.347   0.156   3.771  0.00  0.00     0.739 A 
ATOM      4  N2  <0> d           0.878   0.470   2.569  0.00  0.00     0.130 NA
ATOM      5  C4  <0> d          -0.210   1.225   2.460  0.00  0.00     0.739 A 
ATOM      6  N3  <0> d          -0.833   1.653   3.556  0.00  0.00    -0.047 NA
ENDROOT
BRANCH   3   7
ATOM      7  N5  <0> d           2.480  -0.623   3.889  0.00  0.00    -0.226 N 
ATOM      8  H8  <0> d           2.819  -0.855   4.768  0.00  0.00     0.177 HD
BRANCH   7   9
ATOM      9  C6  <0> d           3.170  -1.098   2.688  0.00  0.00    -0.005 C 
ATOM     10  H9  <0> d           4.036  -1.693   2.978  0.00  0.00     0.057 H 
ATOM     11  H10 <0> d           2.490  -1.711   2.096  0.00  0.00     0.057 H 
ATOM     12  H11 <0> d           3.498  -0.244   2.095  0.00  0.00     0.057 H 
ENDBRANCH   7   9
ENDBRANCH   3   7
BRANCH   1  13
ATOM     13  C1  <0> d          -1.074   1.822   5.989  0.00  0.00    -0.018 C 
ATOM     14  H1  <0> d          -1.827   1.092   6.288  0.00  0.00     0.037 H 
ATOM     15  H2  <0> d          -0.351   1.949   6.794  0.00  0.00     0.037 H 
ATOM     16  H3  <0> d          -1.557   2.776   5.779  0.00  0.00     0.037 H 
ENDBRANCH   1  13
BRANCH   5  17
ATOM     17  N4  <0> d          -0.698   1.558   1.213  0.00  0.00    -0.226 N 
ATOM     18  H4  <0> d          -1.495   2.106   1.135  0.00  0.00     0.177 HD
BRANCH  17  19
ATOM     19  C5  <0> d          -0.013   1.086   0.008  0.00  0.00    -0.005 C 
ATOM     20  H5  <0> d           0.002  -0.004   0.002  0.00  0.00     0.057 H 
ATOM     21  H6  <0> d           1.010   1.463   0.000  0.00  0.00     0.057 H 
ATOM     22  H7  <0> d          -0.540   1.447  -0.875  0.00  0.00     0.057 H 
ENDBRANCH  17  19
ENDBRANCH   5  17
TORSDOF 5
