REMARK  4 active torsions:
REMARK  status: ('A' for Active; 'I' for Inactive)
REMARK    1  A    between atoms: C1_1  and  C2_2 
REMARK    2  A    between atoms: C2_2  and  C3_3 
REMARK    3  A    between atoms: C3_3  and  C4_4 
REMARK    4  A    between atoms: C4_4  and  S1_5 
ROOT
ATOM      1  C3  <0> d          -0.852   3.489   1.714  0.00  0.00    -0.051 C 
ATOM      2  H6  <0> d           0.153   3.906   1.663  0.00  0.00     0.034 H 
ATOM      3  H7  <0> d          -1.453   3.888   0.897  0.00  0.00     0.034 H 
ENDROOT
BRANCH   1   4
ATOM      4  C2  <0> d          -1.494   3.866   3.051  0.00  0.00    -0.068 C 
ATOM      5  H4  <0> d          -2.499   3.449   3.102  0.00  0.00     0.032 H 
ATOM      6  H5  <0> d          -0.892   3.466   3.868  0.00  0.00     0.032 H 
BRANCH   4   7
ATOM      7  C1  <0> d          -1.567   5.389   3.170  0.00  0.00    -0.076 C 
ATOM      8  H1  <0> d          -2.168   5.789   2.353  0.00  0.00     0.027 H 
ATOM      9  H2  <0> d          -2.024   5.658   4.122  0.00  0.00     0.027 H 
ATOM     10  H3  <0> d          -0.561   5.807   3.119  0.00  0.00     0.027 H 
ENDBRANCH   4   7
ENDBRANCH   1   4
BRANCH   1  11
ATOM     11  C4  <0> d          -0.779   1.965   1.595  0.00  0.00     0.045 C 
ATOM     12  H8  <0> d          -1.785   1.548   1.647  0.00  0.00     0.060 H 
ATOM     13  H9  <0> d          -0.178   1.565   2.412  0.00  0.00     0.060 H 
BRANCH  11  14
ATOM     14  S1  <0> d          -0.019   1.518   0.010  0.00  0.00     0.101 S 
ATOM     15  O1  <0> d           1.350   1.899  -0.001  0.00  0.00    -0.595 OA
ATOM     16  O2  <0> d          -0.879   1.875  -1.063  0.00  0.00    -0.595 OA
ATOM     17  O3  <0> d           0.002  -0.004   0.002  0.00  0.00    -0.595 OA
ENDBRANCH  11  14
ENDBRANCH   1  11
TORSDOF 4
