REMARK  1 active torsions:
REMARK  status: ('A' for Active; 'I' for Inactive)
REMARK    1  A    between atoms: C3_3  and  C8_9 
REMARK       I    between atoms: C8_9  and  N2_11 
ROOT
ATOM      1  C1  <0> d          -0.017   1.373   0.010  0.00  0.00    -0.062 A 
ATOM      2  C2  <0> d           0.002  -0.004   0.002  0.00  0.00    -0.066 A 
ATOM      3  C3  <0> d           1.220  -0.686  -0.013  0.00  0.00     0.031 A 
ATOM      4  C4  <0> d           2.420   0.028  -0.020  0.00  0.00    -0.066 A 
ATOM      5  C5  <0> d           2.402   1.405  -0.012  0.00  0.00    -0.062 A 
ATOM      6  C6  <0> d           1.183   2.088   0.002  0.00  0.00     0.044 A 
ATOM      7  C7  <0> d           1.164   3.519   0.009  0.00  0.00     0.099 C 
ATOM      8  N1  <0> d           1.149   4.655   0.015  0.00  0.00    -0.191 NA
ATOM      9  H1  <0> d          -0.959   1.900   0.017  0.00  0.00     0.085 H 
ATOM     10  H2  <0> d          -0.926  -0.557   0.008  0.00  0.00     0.085 H 
ATOM     11  H3  <0> d           3.363  -0.499  -0.032  0.00  0.00     0.085 H 
ATOM     12  H4  <0> d           3.330   1.958  -0.018  0.00  0.00     0.085 H 
ENDROOT
BRANCH   3  13
ATOM     13  C8  <0> d           1.240  -2.165  -0.021  0.00  0.00     0.249 C 
ATOM     14  O1  <0> d           0.196  -2.787  -0.015  0.00  0.00    -0.268 OA
ATOM     15  N2  <0> d           2.416  -2.823  -0.036  0.00  0.00    -0.366 N 
ATOM     16  H5  <0> d           3.250  -2.327  -0.042  0.00  0.00     0.159 HD
ATOM     17  H6  <0> d           2.429  -3.793  -0.042  0.00  0.00     0.159 HD
ENDBRANCH   3  13
TORSDOF 1
