REMARK  4 active torsions:
REMARK  status: ('A' for Active; 'I' for Inactive)
REMARK    1  A    between atoms: C1_1  and  C2_2 
REMARK    2  A    between atoms: C6_7  and  C7_9 
REMARK    3  A    between atoms: C6_7  and  C8_10 
REMARK    4  A    between atoms: C8_10  and  O2_11 
ROOT
ATOM      1  C2  <0> d           1.151   2.191   0.003  0.00  0.00     0.036 C 
ATOM      2  H1  <0> d           0.894   3.185   0.426  0.00  0.00     0.082 H 
ATOM      3  C3  <0> d           2.273   1.616   0.862  0.00  0.00    -0.041 C 
ATOM      4  C4  <0> d           2.428   0.118   0.599  0.00  0.00    -0.060 C 
ATOM      5  C5  <0> d           1.096  -0.567   0.911  0.00  0.00    -0.034 C 
ATOM      6  C6  <0> d           0.002  -0.004   0.002  0.00  0.00     0.079 C 
ATOM      7  O1  <0> d          -0.017   1.407   0.010  0.00  0.00    -0.373 OA
ATOM      8  H5  <0> d           2.043   1.776   1.918  0.00  0.00     0.036 H 
ATOM      9  H6  <0> d           3.211   2.124   0.626  0.00  0.00     0.036 H 
ATOM     10  H7  <0> d           3.202  -0.285   1.259  0.00  0.00     0.033 H 
ATOM     11  H8  <0> d           2.717  -0.059  -0.433  0.00  0.00     0.033 H 
ATOM     12  H9  <0> d           0.830  -0.387   1.954  0.00  0.00     0.037 H 
ATOM     13  H10 <0> d           1.190  -1.641   0.745  0.00  0.00     0.037 H 
ENDROOT
BRANCH   6  14
ATOM     14  C7  <0> d           0.181  -0.549  -1.418  0.00  0.00    -0.046 C 
ATOM     15  H11 <0> d           1.123  -0.187  -1.830  0.00  0.00     0.031 H 
ATOM     16  H12 <0> d           0.192  -1.639  -1.390  0.00  0.00     0.031 H 
ATOM     17  H13 <0> d          -0.643  -0.210  -2.044  0.00  0.00     0.031 H 
ENDBRANCH   6  14
BRANCH   6  18
ATOM     18  C8  <0> d          -1.356  -0.511   0.529  0.00  0.00     0.045 C 
ATOM     19  H14 <0> d          -1.329  -1.598   0.615  0.00  0.00     0.078 H 
ATOM     20  H15 <0> d          -1.552  -0.075   1.508  0.00  0.00     0.078 H 
BRANCH  18  21
ATOM     21  O2  <0> d          -2.392  -0.130  -0.378  0.00  0.00    -0.398 OA
ATOM     22  H16 <0> d          -3.275  -0.417  -0.110  0.00  0.00     0.209 HD
ENDBRANCH  18  21
ENDBRANCH   6  18
BRANCH   1  23
ATOM     23  C1  <0> d           1.658   2.439  -1.420  0.00  0.00    -0.052 C 
ATOM     24  H2  <0> d           0.891   2.962  -1.993  0.00  0.00     0.030 H 
ATOM     25  H3  <0> d           2.561   3.048  -1.383  0.00  0.00     0.030 H 
ATOM     26  H4  <0> d           1.881   1.486  -1.898  0.00  0.00     0.030 H 
ENDBRANCH   1  23
TORSDOF 4
