REMARK  8 active torsions:
REMARK  status: ('A' for Active; 'I' for Inactive)
REMARK    1  A    between atoms: C1_1  and  C2_2 
REMARK    2  A    between atoms: C2_2  and  C3_3 
REMARK    3  A    between atoms: C3_3  and  C4_4 
REMARK    4  A    between atoms: C4_4  and  C5_5 
REMARK    5  A    between atoms: C5_5  and  C6_6 
REMARK    6  A    between atoms: C6_6  and  O1_7 
REMARK    7  A    between atoms: O1_7  and  C7_8 
REMARK    8  A    between atoms: C7_8  and  C8_9 
ROOT
ATOM      1  C4  <0> d           4.440   6.793  -0.004  0.00  0.00    -0.063 C 
ATOM      2  H8  <0> d           3.964   7.219  -0.887  0.00  0.00     0.033 H 
ATOM      3  H9  <0> d           3.981   7.210   0.893  0.00  0.00     0.033 H 
ENDROOT
BRANCH   1   4
ATOM      4  C3  <0> d           5.932   7.130  -0.016  0.00  0.00    -0.065 C 
ATOM      5  H6  <0> d           6.408   6.704   0.867  0.00  0.00     0.033 H 
ATOM      6  H7  <0> d           6.391   6.714  -0.913  0.00  0.00     0.033 H 
BRANCH   4   7
ATOM      7  C2  <0> d           6.112   8.650  -0.010  0.00  0.00    -0.069 C 
ATOM      8  H4  <0> d           5.636   9.076  -0.893  0.00  0.00     0.032 H 
ATOM      9  H5  <0> d           5.653   9.066   0.887  0.00  0.00     0.032 H 
BRANCH   7  10
ATOM     10  C1  <0> d           7.604   8.987  -0.022  0.00  0.00    -0.077 C 
ATOM     11  H1  <0> d           7.733  10.069  -0.018  0.00  0.00     0.027 H 
ATOM     12  H2  <0> d           8.081   8.561   0.861  0.00  0.00     0.027 H 
ATOM     13  H3  <0> d           8.064   8.570  -0.919  0.00  0.00     0.027 H 
ENDBRANCH   7  10
ENDBRANCH   4   7
ENDBRANCH   1   4
BRANCH   1  14
ATOM     14  C5  <0> d           4.260   5.274  -0.010  0.00  0.00    -0.045 C 
ATOM     15  H10 <0> d           4.736   4.848   0.873  0.00  0.00     0.036 H 
ATOM     16  H11 <0> d           4.719   4.858  -0.907  0.00  0.00     0.036 H 
BRANCH  14  17
ATOM     17  C6  <0> d           2.768   4.937   0.002  0.00  0.00     0.020 C 
ATOM     18  H12 <0> d           2.292   5.363  -0.881  0.00  0.00     0.074 H 
ATOM     19  H13 <0> d           2.309   5.354   0.899  0.00  0.00     0.074 H 
BRANCH  17  20
ATOM     20  O1  <0> d           2.600   3.518  -0.004  0.00  0.00    -0.381 OA
BRANCH  20  21
ATOM     21  C7  <0> d           1.235   3.094   0.007  0.00  0.00     0.099 C 
ATOM     22  H14 <0> d           0.727   3.482  -0.876  0.00  0.00     0.091 H 
ATOM     23  H15 <0> d           0.744   3.473   0.904  0.00  0.00     0.091 H 
BRANCH  21  24
ATOM     24  C8  <0> d           1.177   1.588  -0.001  0.00  0.00     0.197 C 
ATOM     25  O2  <0> d           2.199   0.944  -0.014  0.00  0.00    -0.646 OA
ATOM     26  O3  <0> d          -0.011   0.963   0.007  0.00  0.00    -0.646 OA
ENDBRANCH  21  24
ENDBRANCH  20  21
ENDBRANCH  17  20
ENDBRANCH  14  17
ENDBRANCH   1  14
TORSDOF 8
