REMARK  3 active torsions:
REMARK  status: ('A' for Active; 'I' for Inactive)
REMARK    1  A    between atoms: C1_1  and  O1_2 
REMARK    2  A    between atoms: O1_2  and  C2_3 
REMARK    3  A    between atoms: C5_7  and  C6_8 
REMARK       I    between atoms: C6_8  and  N1_10 
ROOT
ATOM      1  C2  <0> d           0.627  -0.619   1.043  0.00  0.00     0.090 A 
ATOM      2  C3  <0> d           1.202   0.075   2.049  0.00  0.00    -0.012 A 
ATOM      3  S1  <0> d           1.850  -1.203   3.105  0.00  0.00    -0.110 SA
ATOM      4  C4  <0> d           1.375  -2.563   2.245  0.00  0.00    -0.027 A 
ATOM      5  C5  <0> d           0.713  -2.058   1.148  0.00  0.00     0.072 A 
ATOM      6  H4  <0> d           1.256   1.146   2.181  0.00  0.00     0.099 H 
ATOM      7  H5  <0> d           1.546  -3.600   2.497  0.00  0.00     0.096 H 
ENDROOT
BRANCH   1   8
ATOM      8  O1  <0> d           0.002  -0.004   0.002  0.00  0.00    -0.354 OA
BRANCH   8   9
ATOM      9  C1  <0> d          -0.017   1.425   0.010  0.00  0.00     0.010 C 
ATOM     10  H1  <0> d           1.005   1.802   0.002  0.00  0.00     0.066 H 
ATOM     11  H2  <0> d          -0.544   1.786  -0.873  0.00  0.00     0.066 H 
ATOM     12  H3  <0> d          -0.527   1.776   0.907  0.00  0.00     0.066 H 
ENDBRANCH   8   9
ENDBRANCH   1   8
BRANCH   5  13
ATOM     13  C6  <0> d           0.126  -2.941   0.129  0.00  0.00     0.252 C 
ATOM     14  O2  <0> d          -0.450  -2.463  -0.831  0.00  0.00    -0.268 OA
ATOM     15  N1  <0> d           0.224  -4.279   0.258  0.00  0.00    -0.366 N 
ATOM     16  H6  <0> d           0.683  -4.659   1.023  0.00  0.00     0.159 HD
ATOM     17  H7  <0> d          -0.163  -4.861  -0.414  0.00  0.00     0.159 HD
ENDBRANCH   5  13
TORSDOF 3
