REMARK  5 active torsions:
REMARK  status: ('A' for Active; 'I' for Inactive)
REMARK    1  A    between atoms: C1_1  and  C2_2 
REMARK    2  A    between atoms: C2_2  and  C3_3 
REMARK    3  A    between atoms: C3_3  and  C4_5 
REMARK    4  A    between atoms: C3_3  and  C6_8 
REMARK    5  A    between atoms: C4_5  and  C5_6 
ROOT
ATOM      1  C3  <0> d           0.011   1.072   2.506  0.00  0.00     0.039 C 
ATOM      2  H1  <0> d           1.057   1.375   2.454  0.00  0.00     0.057 H 
ENDROOT
BRANCH   1   3
ATOM      3  C2  <0> d          -0.729   1.579   1.267  0.00  0.00    -0.055 C 
ATOM      4  H5  <0> d          -0.744   2.669   1.273  0.00  0.00     0.033 H 
ATOM      5  H6  <0> d          -1.751   1.202   1.275  0.00  0.00     0.033 H 
BRANCH   3   6
ATOM      6  C1  <0> d          -0.013   1.086   0.008  0.00  0.00    -0.076 C 
ATOM      7  H2  <0> d           0.002  -0.004   0.002  0.00  0.00     0.027 H 
ATOM      8  H3  <0> d           1.010   1.463   0.000  0.00  0.00     0.027 H 
ATOM      9  H4  <0> d          -0.540   1.447  -0.875  0.00  0.00     0.027 H 
ENDBRANCH   3   6
ENDBRANCH   1   3
BRANCH   1  10
ATOM     10  C4  <0> d          -0.630   1.667   3.762  0.00  0.00     0.028 C 
ATOM     11  H7  <0> d          -0.648   2.754   3.681  0.00  0.00     0.050 H 
ATOM     12  H8  <0> d          -1.649   1.293   3.861  0.00  0.00     0.050 H 
BRANCH  10  13
ATOM     13  C5  <0> d           0.172   1.267   4.973  0.00  0.00     0.173 C 
ATOM     14  O1  <0> d           1.156   0.577   4.846  0.00  0.00    -0.648 OA
ATOM     15  O3  <0> d          -0.206   1.677   6.194  0.00  0.00    -0.648 OA
ENDBRANCH  10  13
ENDBRANCH   1  10
BRANCH   1  16
ATOM     16  C6  <0> d          -0.074  -0.431   2.563  0.00  0.00     0.177 C 
ATOM     17  O2  <0> d          -0.666  -1.035   1.700  0.00  0.00    -0.648 OA
ATOM     18  O4  <0> d           0.507  -1.099   3.571  0.00  0.00    -0.648 OA
ENDBRANCH   1  16
TORSDOF 5
