REMARK  5 active torsions:
REMARK  status: ('A' for Active; 'I' for Inactive)
REMARK    1  A    between atoms: C1_1  and  C2_2 
REMARK    2  A    between atoms: C2_2  and  O1_3 
REMARK    3  A    between atoms: O1_3  and  C3_4 
REMARK    4  A    between atoms: C3_4  and  C4_5 
REMARK    5  A    between atoms: C4_5  and  N1_6 
ROOT
ATOM      1  N1  <0> d           2.872  -1.808  -2.493  0.00  0.00     0.094 N 
ATOM      2  C5  <0> d           3.610  -2.538  -1.452  0.00  0.00     0.133 C 
ATOM      3  C6  <0> d           5.037  -1.990  -1.366  0.00  0.00     0.044 C 
ATOM      4  O2  <0> d           5.661  -2.096  -2.649  0.00  0.00    -0.388 OA
ATOM      5  C7  <0> d           4.968  -1.396  -3.686  0.00  0.00     0.044 C 
ATOM      6  C8  <0> d           3.541  -1.938  -3.795  0.00  0.00     0.133 C 
ATOM      7  H10 <0> d           3.111  -2.407  -0.492  0.00  0.00     0.083 H 
ATOM      8  H11 <0> d           3.642  -3.598  -1.705  0.00  0.00     0.083 H 
ATOM      9  H12 <0> d           5.007  -0.944  -1.061  0.00  0.00     0.077 H 
ATOM     10  H13 <0> d           5.605  -2.567  -0.636  0.00  0.00     0.077 H 
ATOM     11  H14 <0> d           4.937  -0.332  -3.448  0.00  0.00     0.077 H 
ATOM     12  H15 <0> d           5.487  -1.542  -4.633  0.00  0.00     0.077 H 
ATOM     13  H16 <0> d           3.572  -2.988  -4.085  0.00  0.00     0.083 H 
ATOM     14  H17 <0> d           2.992  -1.368  -4.545  0.00  0.00     0.083 H 
ENDROOT
BRANCH   1  15
ATOM     15  C4  <0> d           1.478  -2.265  -2.569  0.00  0.00     0.133 C 
ATOM     16  H8  <0> d           1.457  -3.348  -2.695  0.00  0.00     0.083 H 
ATOM     17  H9  <0> d           0.986  -1.792  -3.418  0.00  0.00     0.083 H 
BRANCH  15  18
ATOM     18  C3  <0> d           0.746  -1.888  -1.280  0.00  0.00     0.044 C 
ATOM     19  H6  <0> d           1.288  -2.288  -0.423  0.00  0.00     0.077 H 
ATOM     20  H7  <0> d          -0.261  -2.304  -1.299  0.00  0.00     0.077 H 
BRANCH  18  21
ATOM     21  O1  <0> d           0.671  -0.465  -1.174  0.00  0.00    -0.390 OA
BRANCH  21  22
ATOM     22  C2  <0> d           0.002  -0.004   0.002  0.00  0.00     0.016 C 
ATOM     23  H4  <0> d           0.529  -0.365   0.885  0.00  0.00     0.073 H 
ATOM     24  H5  <0> d          -1.020  -0.381   0.010  0.00  0.00     0.073 H 
BRANCH  22  25
ATOM     25  C1  <0> d          -0.019   1.526   0.010  0.00  0.00    -0.056 C 
ATOM     26  H1  <0> d           1.004   1.903   0.003  0.00  0.00     0.030 H 
ATOM     27  H2  <0> d          -0.546   1.887  -0.873  0.00  0.00     0.030 H 
ATOM     28  H3  <0> d          -0.529   1.877   0.907  0.00  0.00     0.030 H 
ENDBRANCH  22  25
ENDBRANCH  21  22
ENDBRANCH  18  21
ENDBRANCH  15  18
ENDBRANCH   1  15
TORSDOF 5
