REMARK  2 active torsions:
REMARK  status: ('A' for Active; 'I' for Inactive)
REMARK    1  A    between atoms: C1_1  and  C2_2 
REMARK    2  A    between atoms: C6_7  and  O2_11 
ROOT
ATOM      1  C2  <0> d          -3.292   2.414   0.045  0.00  0.00     0.142 A 
ATOM      2  N1  <0> d          -2.532   1.361   0.033  0.00  0.00    -0.226 NA
ATOM      3  C3  <0> d          -1.230   1.758   0.017  0.00  0.00     0.093 A 
ATOM      4  C4  <0> d          -0.013   1.076   0.008  0.00  0.00    -0.050 A 
ATOM      5  C5  <0> d           1.161   1.776   0.001  0.00  0.00    -0.049 A 
ATOM      6  C6  <0> d           1.153   3.167   0.008  0.00  0.00     0.068 A 
ATOM      7  C7  <0> d          -0.045   3.860   0.022  0.00  0.00    -0.016 A 
ATOM      8  C8  <0> d          -1.242   3.161   0.030  0.00  0.00     0.109 A 
ATOM      9  O1  <0> d          -2.542   3.528   0.044  0.00  0.00    -0.294 OA
ATOM     10  H4  <0> d           0.002  -0.004   0.002  0.00  0.00     0.087 H 
ATOM     11  H5  <0> d           2.101   1.245  -0.011  0.00  0.00     0.087 H 
ATOM     12  H6  <0> d          -0.047   4.940   0.027  0.00  0.00     0.092 H 
ENDROOT
BRANCH   1  13
ATOM     13  C1  <0> d          -4.798   2.389   0.060  0.00  0.00    -0.015 C 
ATOM     14  H1  <0> d          -5.172   2.389  -0.964  0.00  0.00     0.038 H 
ATOM     15  H2  <0> d          -5.142   1.491   0.572  0.00  0.00     0.038 H 
ATOM     16  H3  <0> d          -5.171   3.271   0.582  0.00  0.00     0.038 H 
ENDBRANCH   1  13
BRANCH   6  17
ATOM     17  O2  <0> d           2.329   3.850   0.001  0.00  0.00    -0.361 OA
ATOM     18  H7  <0> d           2.661   4.052  -0.885  0.00  0.00     0.217 HD
ENDBRANCH   6  17
TORSDOF 2
