REMARK  2 active torsions:
REMARK  status: ('A' for Active; 'I' for Inactive)
REMARK    1  A    between atoms: C1_1  and  N1_2 
REMARK    2  A    between atoms: C4_5  and  C5_7 
ROOT
ATOM      1  N1  <0> d           0.002  -0.004   0.002  0.00  0.00    -0.285 N 
ATOM      2  C2  <0> d           0.008  -0.790  -1.096  0.00  0.00     0.000 A 
ATOM      3  C3  <0> d           0.028  -2.078  -0.686  0.00  0.00    -0.036 A 
ATOM      4  C4  <0> d           0.035  -2.083   0.722  0.00  0.00     0.088 A 
ATOM      5  N2  <0> d           0.025  -0.832   1.132  0.00  0.00    -0.173 NA
ATOM      6  H4  <0> d          -0.002  -0.450  -2.121  0.00  0.00     0.114 H 
ATOM      7  H5  <0> d           0.037  -2.948  -1.326  0.00  0.00     0.089 H 
ENDROOT
BRANCH   4   8
ATOM      8  C5  <0> d           0.056  -3.286   1.591  0.00  0.00    -0.006 A 
ATOM      9  C10 <0> d           0.061  -3.147   2.977  0.00  0.00    -0.071 A 
ATOM     10  C9  <0> d           0.075  -4.270   3.780  0.00  0.00    -0.082 A 
ATOM     11  H10 <0> d           0.049  -2.164   3.422  0.00  0.00     0.084 H 
ATOM     12  C8  <0> d           0.097  -5.530   3.211  0.00  0.00    -0.083 A 
ATOM     13  H9  <0> d           0.075  -4.164   4.855  0.00  0.00     0.083 H 
ATOM     14  C7  <0> d           0.097  -5.674   1.835  0.00  0.00    -0.082 A 
ATOM     15  H8  <0> d           0.113  -6.406   3.843  0.00  0.00     0.083 H 
ATOM     16  C6  <0> d           0.077  -4.558   1.023  0.00  0.00    -0.071 A 
ATOM     17  H7  <0> d           0.113  -6.660   1.396  0.00  0.00     0.083 H 
ATOM     18  H6  <0> d           0.077  -4.671  -0.051  0.00  0.00     0.084 H 
ENDBRANCH   4   8
BRANCH   1  19
ATOM     19  C1  <0> d          -0.018   1.461   0.010  0.00  0.00     0.002 C 
ATOM     20  H1  <0> d           1.005   1.838   0.002  0.00  0.00     0.059 H 
ATOM     21  H2  <0> d          -0.545   1.822  -0.873  0.00  0.00     0.059 H 
ATOM     22  H3  <0> d          -0.528   1.812   0.907  0.00  0.00     0.059 H 
ENDBRANCH   1  19
TORSDOF 2
