REMARK  9 active torsions:
REMARK  status: ('A' for Active; 'I' for Inactive)
REMARK    1  A    between atoms: C1_1  and  C2_2 
REMARK    2  A    between atoms: C2_2  and  C3_3 
REMARK    3  A    between atoms: C3_3  and  C4_4 
REMARK    4  A    between atoms: C4_4  and  C5_6 
REMARK    5  A    between atoms: C4_4  and  O2_12 
REMARK    6  A    between atoms: C5_6  and  C6_8 
REMARK    7  A    between atoms: C5_6  and  C8_10 
REMARK    8  A    between atoms: C6_8  and  C7_9 
REMARK    9  A    between atoms: C8_10  and  O1_11 
ROOT
ATOM      1  C4  <0> d          -1.460  -1.944  -0.077  0.00  0.00     0.041 C 
ATOM      2  H1  <0> d          -1.484  -0.854  -0.089  0.00  0.00     0.083 H 
ENDROOT
BRANCH   1   3
ATOM      3  C3  <0> d          -0.874  -2.456  -1.394  0.00  0.00    -0.041 C 
ATOM      4  H8  <0> d          -1.545  -2.201  -2.214  0.00  0.00     0.036 H 
ATOM      5  H9  <0> d          -0.757  -3.538  -1.343  0.00  0.00     0.036 H 
BRANCH   3   6
ATOM      6  C2  <0> d           0.491  -1.806  -1.632  0.00  0.00    -0.066 C 
ATOM      7  H6  <0> d           1.163  -2.061  -0.812  0.00  0.00     0.032 H 
ATOM      8  H7  <0> d           0.374  -0.724  -1.683  0.00  0.00     0.032 H 
BRANCH   6   9
ATOM      9  C1  <0> d           1.077  -2.318  -2.949  0.00  0.00    -0.076 C 
ATOM     10  H3  <0> d           2.049  -1.855  -3.119  0.00  0.00     0.027 H 
ATOM     11  H4  <0> d           1.194  -3.401  -2.898  0.00  0.00     0.027 H 
ATOM     12  H5  <0> d           0.405  -2.063  -3.769  0.00  0.00     0.027 H 
ENDBRANCH   6   9
ENDBRANCH   3   6
ENDBRANCH   1   3
BRANCH   1  13
ATOM     13  C5  <0> d          -2.881  -2.484   0.094  0.00  0.00    -0.009 C 
ATOM     14  H2  <0> d          -3.479  -2.214  -0.777  0.00  0.00     0.047 H 
BRANCH  13  15
ATOM     15  C6  <0> d          -2.835  -4.007   0.228  0.00  0.00    -0.061 C 
ATOM     16  H10 <0> d          -2.308  -4.432  -0.626  0.00  0.00     0.033 H 
ATOM     17  H11 <0> d          -2.312  -4.275   1.147  0.00  0.00     0.033 H 
BRANCH  15  18
ATOM     18  C7  <0> d          -4.261  -4.559   0.273  0.00  0.00    -0.076 C 
ATOM     19  H12 <0> d          -4.228  -5.644   0.369  0.00  0.00     0.027 H 
ATOM     20  H13 <0> d          -4.788  -4.135   1.128  0.00  0.00     0.027 H 
ATOM     21  H14 <0> d          -4.783  -4.291  -0.645  0.00  0.00     0.027 H 
ENDBRANCH  15  18
ENDBRANCH  13  15
BRANCH  13  22
ATOM     22  C8  <0> d          -3.509  -1.880   1.351  0.00  0.00     0.022 C 
ATOM     23  H15 <0> d          -4.494  -2.317   1.511  0.00  0.00     0.074 H 
ATOM     24  H16 <0> d          -2.874  -2.090   2.212  0.00  0.00     0.074 H 
BRANCH  22  25
ATOM     25  O1  <0> d          -3.637  -0.466   1.188  0.00  0.00    -0.400 OA
ATOM     26  H17 <0> d          -4.029  -0.016   1.948  0.00  0.00     0.209 HD
ENDBRANCH  22  25
ENDBRANCH  13  22
ENDBRANCH   1  13
BRANCH   1  27
ATOM     27  O2  <0> d          -0.647  -2.389   1.011  0.00  0.00    -0.395 OA
ATOM     28  H18 <0> d          -0.580  -3.351   1.084  0.00  0.00     0.210 HD
ENDBRANCH   1  27
TORSDOF 9
