REMARK  6 active torsions:
REMARK  status: ('A' for Active; 'I' for Inactive)
REMARK    1  A    between atoms: C1_1  and  C2_2 
REMARK    2  A    between atoms: C2_2  and  C3_3 
REMARK    3  A    between atoms: C3_3  and  C4_4 
REMARK    4  A    between atoms: C3_3  and  N1_6 
REMARK    5  A    between atoms: C4_4  and  C5_5 
REMARK    6  A    between atoms: C6_7  and  N3_11 
ROOT
ATOM      1  C3  <0> d          -0.013   1.086   0.008  0.00  0.00     0.036 C 
ATOM      2  H6  <0> d           0.002  -0.004   0.002  0.00  0.00     0.075 H 
ENDROOT
BRANCH   1   3
ATOM      3  C2  <0> d           1.423   1.615  -0.003  0.00  0.00    -0.047 C 
ATOM      4  H4  <0> d           1.905   1.339  -0.940  0.00  0.00     0.035 H 
ATOM      5  H5  <0> d           1.410   2.701   0.093  0.00  0.00     0.035 H 
BRANCH   3   6
ATOM      6  C1  <0> d           2.199   1.009   1.168  0.00  0.00    -0.075 C 
ATOM      7  H1  <0> d           3.221   1.387   1.160  0.00  0.00     0.027 H 
ATOM      8  H2  <0> d           1.716   1.286   2.106  0.00  0.00     0.027 H 
ATOM      9  H3  <0> d           2.211  -0.076   1.073  0.00  0.00     0.027 H 
ENDBRANCH   3   6
ENDBRANCH   1   3
BRANCH   1  10
ATOM     10  C4  <0> d          -0.753   1.593  -1.232  0.00  0.00    -0.047 C 
ATOM     11  H7  <0> d          -1.798   1.290  -1.179  0.00  0.00     0.035 H 
ATOM     12  H8  <0> d          -0.691   2.680  -1.272  0.00  0.00     0.035 H 
BRANCH  10  13
ATOM     13  C5  <0> d          -0.111   0.998  -2.487  0.00  0.00    -0.075 C 
ATOM     14  H9  <0> d          -0.173  -0.089  -2.446  0.00  0.00     0.027 H 
ATOM     15  H10 <0> d          -0.639   1.359  -3.370  0.00  0.00     0.027 H 
ATOM     16  H11 <0> d           0.934   1.301  -2.539  0.00  0.00     0.027 H 
ENDBRANCH  10  13
ENDBRANCH   1  10
BRANCH   1  17
ATOM     17  N1  <0> d          -0.698   1.558   1.213  0.00  0.00    -0.250 N 
ATOM     18  N2  <0> d          -0.908   2.896   1.571  0.00  0.00    -0.183 NA
ATOM     19  C8  <0> d          -1.557   2.922   2.707  0.00  0.00     0.025 A 
ATOM     20  C7  <0> d          -1.775   1.605   3.119  0.00  0.00    -0.021 A 
ATOM     21  H13 <0> d          -1.866   3.811   3.239  0.00  0.00     0.117 H 
ATOM     22  C6  <0> d          -1.236   0.780   2.180  0.00  0.00     0.119 A 
ATOM     23  H12 <0> d          -2.282   1.296   4.022  0.00  0.00     0.091 H 
BRANCH  22  24
ATOM     24  N3  <0> d          -1.238  -0.612   2.209  0.00  0.00    -0.384 N 
ATOM     25  H14 <0> d          -0.825  -1.113   1.488  0.00  0.00     0.157 HD
ATOM     26  H15 <0> d          -1.652  -1.081   2.950  0.00  0.00     0.157 HD
ENDBRANCH  22  24
ENDBRANCH   1  17
TORSDOF 6
