REMARK  4 active torsions:
REMARK  status: ('A' for Active; 'I' for Inactive)
REMARK    1  A    between atoms: C1_1  and  C2_2 
REMARK    2  A    between atoms: C2_2  and  C3_3 
REMARK    3  A    between atoms: C3_3  and  C4_4 
REMARK    4  A    between atoms: C5_5  and  C7_10 
ROOT
ATOM      1  C4  <0> d          -2.096   1.839   1.385  0.00  0.00     0.031 A 
ATOM      2  C5  <0> d          -0.718   1.572   1.248  0.00  0.00     0.069 A 
ATOM      3  N1  <0> d          -0.174   1.833   2.403  0.00  0.00    -0.130 NA
ATOM      4  O1  <0> d          -0.992   2.212   3.209  0.00  0.00    -0.184 OA
ATOM      5  C6  <0> d          -2.224   2.248   2.679  0.00  0.00     0.251 A 
ATOM      6  O2  <0> d          -3.366   2.621   3.304  0.00  0.00    -0.161 OA
ENDROOT
BRANCH   1   7
ATOM      7  C3  <0> d          -3.175   1.704   0.342  0.00  0.00    -0.035 C 
ATOM      8  H6  <0> d          -2.747   1.883  -0.655  0.00  0.00     0.040 H 
ATOM      9  H7  <0> d          -3.968   2.441   0.538  0.00  0.00     0.040 H 
BRANCH   7  10
ATOM     10  C2  <0> d          -3.765   0.294   0.398  0.00  0.00    -0.065 C 
ATOM     11  H4  <0> d          -4.194   0.115   1.395  0.00  0.00     0.032 H 
ATOM     12  H5  <0> d          -2.972  -0.443   0.202  0.00  0.00     0.032 H 
BRANCH  10  13
ATOM     13  C1  <0> d          -4.862   0.157  -0.660  0.00  0.00    -0.076 C 
ATOM     14  H1  <0> d          -5.286  -0.857  -0.620  0.00  0.00     0.027 H 
ATOM     15  H2  <0> d          -4.433   0.336  -1.658  0.00  0.00     0.027 H 
ATOM     16  H3  <0> d          -5.654   0.894  -0.464  0.00  0.00     0.027 H 
ENDBRANCH  10  13
ENDBRANCH   7  10
ENDBRANCH   1   7
BRANCH   2  17
ATOM     17  C7  <0> d          -0.014   1.081   0.010  0.00  0.00    -0.033 C 
ATOM     18  H8  <0> d          -0.745   0.954  -0.802  0.00  0.00     0.035 H 
ATOM     19  H9  <0> d           0.470   0.116   0.221  0.00  0.00     0.035 H 
ATOM     20  H10 <0> d           0.748   1.814  -0.294  0.00  0.00     0.035 H 
ENDBRANCH   2  17
TORSDOF 4
