REMARK  0 active torsions:
REMARK  status: ('A' for Active; 'I' for Inactive)
ROOT
ATOM      1  C1  <0> d           3.553   3.290  -0.014  0.00  0.00    -0.064 A 
ATOM      2  C2  <0> d           2.357   3.981   0.000  0.00  0.00    -0.053 A 
ATOM      3  C3  <0> d           1.171   3.246   0.008  0.00  0.00     0.064 A 
ATOM      4  C4  <0> d           1.238   1.842   0.000  0.00  0.00     0.083 A 
ATOM      5  C5  <0> d          -0.013   1.076   0.008  0.00  0.00    -0.048 A 
ATOM      6  C6  <0> d          -1.186   1.751   0.017  0.00  0.00    -0.015 A 
ATOM      7  C7  <0> d          -1.196   3.165   0.029  0.00  0.00     0.245 A 
ATOM      8  O1  <0> d          -2.263   3.753   0.041  0.00  0.00    -0.268 OA
ATOM      9  N1  <0> d          -0.054   3.875   0.022  0.00  0.00    -0.322 N 
ATOM     10  H1  <0> d          -0.108   4.974   0.028  0.00  0.00     0.169 HD
ATOM     11  N2  <0> d           2.417   1.225  -0.014  0.00  0.00    -0.259 NA
ATOM     12  C8  <0> d           3.544   1.901  -0.021  0.00  0.00     0.003 A 
ATOM     13  H2  <0> d           4.490   3.827  -0.020  0.00  0.00     0.085 H 
ATOM     14  H3  <0> d           2.340   5.061   0.006  0.00  0.00     0.087 H 
ATOM     15  H4  <0> d           0.002  -0.004   0.002  0.00  0.00     0.087 H 
ATOM     16  H5  <0> d          -2.119   1.207   0.019  0.00  0.00     0.092 H 
ATOM     17  H6  <0> d           4.482   1.365  -0.033  0.00  0.00     0.114 H 
ENDROOT
TORSDOF 0
