REMARK  3 active torsions:
REMARK  status: ('A' for Active; 'I' for Inactive)
REMARK    1  A    between atoms: C1_1  and  C2_2 
REMARK    2  A    between atoms: C3_3  and  N2_10 
REMARK    3  A    between atoms: C5_6  and  C7_9 
ROOT
ATOM      1  C2  <0> d          -0.718   1.572   1.248  0.00  0.00    -0.011 A 
ATOM      2  C3  <0> d          -2.093   1.797   1.245  0.00  0.00     0.051 A 
ATOM      3  C4  <0> d          -2.706   2.239   2.411  0.00  0.00     0.028 A 
ATOM      4  N1  <0> d          -1.999   2.455   3.502  0.00  0.00    -0.262 NA
ATOM      5  C5  <0> d          -0.696   2.257   3.537  0.00  0.00     0.052 A 
ATOM      6  C6  <0> d          -0.014   1.812   2.418  0.00  0.00     0.066 A 
ATOM      7 Cl1  <0> d           1.702   1.557   2.478  0.00  0.00    -0.082 Cl
ATOM      8  H4  <0> d          -3.772   2.412   2.421  0.00  0.00     0.118 H 
ENDROOT
BRANCH   1   9
ATOM      9  C1  <0> d          -0.013   1.086   0.008  0.00  0.00    -0.047 C 
ATOM     10  H1  <0> d           0.002  -0.004   0.002  0.00  0.00     0.033 H 
ATOM     11  H2  <0> d           1.010   1.463   0.000  0.00  0.00     0.033 H 
ATOM     12  H3  <0> d          -0.540   1.447  -0.875  0.00  0.00     0.033 H 
ENDBRANCH   1   9
BRANCH   2  13
ATOM     13  N2  <0> d          -2.845   1.575   0.089  0.00  0.00    -0.397 N 
ATOM     14  H8  <0> d          -2.410   1.262  -0.720  0.00  0.00     0.156 HD
ATOM     15  H9  <0> d          -3.802   1.734   0.095  0.00  0.00     0.156 HD
ENDBRANCH   2  13
BRANCH   5  16
ATOM     16  C7  <0> d           0.062   2.521   4.812  0.00  0.00    -0.034 C 
ATOM     17  H5  <0> d           0.400   3.557   4.827  0.00  0.00     0.035 H 
ATOM     18  H6  <0> d          -0.590   2.339   5.667  0.00  0.00     0.035 H 
ATOM     19  H7  <0> d           0.925   1.856   4.866  0.00  0.00     0.035 H 
ENDBRANCH   5  16
TORSDOF 3
