REMARK  4 active torsions:
REMARK  status: ('A' for Active; 'I' for Inactive)
REMARK    1  A    between atoms: C1_1  and  C2_2 
REMARK    2  A    between atoms: C2_2  and  O1_3 
REMARK    3  A    between atoms: O1_3  and  C3_4 
REMARK    4  A    between atoms: C8_9  and  N1_10 
ROOT
ATOM      1  C3  <0> d           0.002  -0.004   0.002  0.00  0.00     0.095 A 
ATOM      2  C4  <0> d           1.210  -0.681  -0.013  0.00  0.00    -0.046 A 
ATOM      3  C5  <0> d           1.228  -2.064  -0.020  0.00  0.00    -0.043 A 
ATOM      4  C6  <0> d           0.041  -2.775  -0.012  0.00  0.00     0.118 A 
ATOM      5  C7  <0> d          -1.170  -2.105   0.002  0.00  0.00    -0.018 A 
ATOM      6  C8  <0> d          -1.194  -0.718   0.015  0.00  0.00     0.062 A 
ATOM      7  F1  <0> d           0.064  -4.126  -0.019  0.00  0.00    -0.206 F 
ATOM      8  H6  <0> d           2.138  -0.129  -0.019  0.00  0.00     0.088 H 
ATOM      9  H7  <0> d           2.171  -2.590  -0.032  0.00  0.00     0.088 H 
ATOM     10  H8  <0> d          -2.096  -2.662   0.008  0.00  0.00     0.091 H 
ENDROOT
BRANCH   1  11
ATOM     11  O1  <0> d          -0.016   1.356   0.009  0.00  0.00    -0.349 OA
BRANCH  11  12
ATOM     12  C2  <0> d           1.248   2.022   0.001  0.00  0.00     0.023 C 
ATOM     13  H4  <0> d           1.817   1.732   0.884  0.00  0.00     0.074 H 
ATOM     14  H5  <0> d           1.800   1.742  -0.896  0.00  0.00     0.074 H 
BRANCH  12  15
ATOM     15  C1  <0> d           1.027   3.536   0.011  0.00  0.00    -0.056 C 
ATOM     16  H1  <0> d           1.991   4.044   0.005  0.00  0.00     0.030 H 
ATOM     17  H2  <0> d           0.458   3.826  -0.872  0.00  0.00     0.030 H 
ATOM     18  H3  <0> d           0.474   3.817   0.908  0.00  0.00     0.030 H 
ENDBRANCH  12  15
ENDBRANCH  11  12
ENDBRANCH   1  11
BRANCH   6  19
ATOM     19  N1  <0> d          -2.417  -0.038   0.037  0.00  0.00    -0.397 N 
ATOM     20  H9  <0> d          -2.432   0.932   0.043  0.00  0.00     0.156 HD
ATOM     21  H10 <0> d          -3.249  -0.536   0.046  0.00  0.00     0.156 HD
ENDBRANCH   6  19
TORSDOF 4
