REMARK  2 active torsions:
REMARK  status: ('A' for Active; 'I' for Inactive)
REMARK    1  A    between atoms: C3_3  and  C7_8 
REMARK    2  A    between atoms: C5_5  and  O1_7 
REMARK       I    between atoms: C7_8  and  N1_10 
ROOT
ATOM      1  C1  <0> d           3.119   2.397   1.194  0.00  0.00    -0.079 A 
ATOM      2  C2  <0> d           3.743   2.697   0.000  0.00  0.00    -0.068 A 
ATOM      3  C3  <0> d           3.106   2.414  -1.209  0.00  0.00     0.034 A 
ATOM      4  C4  <0> d           1.840   1.829  -1.205  0.00  0.00    -0.036 A 
ATOM      5  C5  <0> d           1.223   1.532  -0.001  0.00  0.00     0.066 A 
ATOM      6  C6  <0> d           1.862   1.822   1.197  0.00  0.00    -0.051 A 
ATOM      7  H1  <0> d           3.613   2.616   2.129  0.00  0.00     0.083 H 
ATOM      8  H2  <0> d           4.723   3.150   0.002  0.00  0.00     0.085 H 
ATOM      9  H3  <0> d           1.342   1.608  -2.138  0.00  0.00     0.089 H 
ATOM     10  H4  <0> d           1.377   1.594   2.134  0.00  0.00     0.087 H 
ENDROOT
BRANCH   3  11
ATOM     11  C7  <0> d           3.771   2.734  -2.490  0.00  0.00     0.249 C 
ATOM     12  O2  <0> d           3.215   2.487  -3.542  0.00  0.00    -0.268 OA
ATOM     13  N1  <0> d           4.995   3.299  -2.492  0.00  0.00    -0.366 N 
ATOM     14  H6  <0> d           5.439   3.496  -1.652  0.00  0.00     0.159 HD
ATOM     15  H7  <0> d           5.431   3.509  -3.332  0.00  0.00     0.159 HD
ENDBRANCH   3  11
BRANCH   5  16
ATOM     16  O1  <0> d          -0.011   0.963   0.007  0.00  0.00    -0.361 OA
ATOM     17  H5  <0> d           0.002  -0.004   0.002  0.00  0.00     0.217 HD
ENDBRANCH   5  16
TORSDOF 2
