REMARK  9 active torsions:
REMARK  status: ('A' for Active; 'I' for Inactive)
REMARK    1  A    between atoms: C1_1  and  C2_2 
REMARK    2  A    between atoms: C2_2  and  C3_3 
REMARK    3  A    between atoms: C3_3  and  C4_5 
REMARK    4  A    between atoms: C3_3  and  C9_10 
REMARK    5  A    between atoms: C4_5  and  C5_6 
REMARK    6  A    between atoms: C5_6  and  C6_7 
REMARK    7  A    between atoms: C6_7  and  C7_8 
REMARK    8  A    between atoms: C6_7  and  C8_9 
REMARK    9  A    between atoms: C9_10  and  O1_11 
ROOT
ATOM      1  C4  <0> d          -0.864   1.109   3.800  0.00  0.00    -0.059 C 
ATOM      2  H7  <0> d          -0.300   0.669   4.623  0.00  0.00     0.033 H 
ATOM      3  H8  <0> d          -1.043   2.164   4.006  0.00  0.00     0.033 H 
ENDROOT
BRANCH   1   4
ATOM      4  C3  <0> d          -0.064   0.971   2.503  0.00  0.00    -0.034 C 
ATOM      5  H1  <0> d           0.040  -0.084   2.251  0.00  0.00     0.043 H 
BRANCH   4   6
ATOM      6  C2  <0> d          -0.796   1.697   1.373  0.00  0.00    -0.063 C 
ATOM      7  H5  <0> d          -0.826   2.766   1.587  0.00  0.00     0.033 H 
ATOM      8  H6  <0> d          -1.813   1.313   1.293  0.00  0.00     0.033 H 
BRANCH   6   9
ATOM      9  C1  <0> d          -0.057   1.462   0.054  0.00  0.00    -0.076 C 
ATOM     10  H2  <0> d           0.112   0.394  -0.083  0.00  0.00     0.027 H 
ATOM     11  H3  <0> d           0.900   1.982   0.076  0.00  0.00     0.027 H 
ATOM     12  H4  <0> d          -0.658   1.844  -0.772  0.00  0.00     0.027 H 
ENDBRANCH   6   9
ENDBRANCH   4   6
BRANCH   4  13
ATOM     13  C9  <0> d           1.323   1.589   2.692  0.00  0.00     0.020 C 
ATOM     14  H18 <0> d           1.227   2.666   2.824  0.00  0.00     0.074 H 
ATOM     15  H19 <0> d           1.797   1.156   3.573  0.00  0.00     0.074 H 
BRANCH  13  16
ATOM     16  O1  <0> d           2.125   1.320   1.540  0.00  0.00    -0.400 OA
ATOM     17  H20 <0> d           3.020   1.683   1.590  0.00  0.00     0.209 HD
ENDBRANCH  13  16
ENDBRANCH   4  13
ENDBRANCH   1   4
BRANCH   1  18
ATOM     18  C5  <0> d          -2.203   0.383   3.653  0.00  0.00    -0.062 C 
ATOM     19  H9  <0> d          -2.766   0.823   2.830  0.00  0.00     0.033 H 
ATOM     20  H10 <0> d          -2.023  -0.672   3.447  0.00  0.00     0.033 H 
BRANCH  18  21
ATOM     21  C6  <0> d          -3.003   0.521   4.950  0.00  0.00    -0.061 C 
ATOM     22  H11 <0> d          -2.403   0.162   5.787  0.00  0.00     0.038 H 
BRANCH  21  23
ATOM     23  C7  <0> d          -3.362   1.991   5.174  0.00  0.00    -0.073 C 
ATOM     24  H12 <0> d          -3.961   2.350   4.337  0.00  0.00     0.028 H 
ATOM     25  H13 <0> d          -3.932   2.090   6.098  0.00  0.00     0.028 H 
ATOM     26  H14 <0> d          -2.448   2.582   5.246  0.00  0.00     0.028 H 
ENDBRANCH  21  23
BRANCH  21  27
ATOM     27  C8  <0> d          -4.285  -0.307   4.849  0.00  0.00    -0.073 C 
ATOM     28  H15 <0> d          -4.029  -1.355   4.689  0.00  0.00     0.028 H 
ATOM     29  H16 <0> d          -4.855  -0.209   5.773  0.00  0.00     0.028 H 
ATOM     30  H17 <0> d          -4.884   0.051   4.012  0.00  0.00     0.028 H 
ENDBRANCH  21  27
ENDBRANCH  18  21
ENDBRANCH   1  18
TORSDOF 9
