REMARK  1 active torsions:
REMARK  status: ('A' for Active; 'I' for Inactive)
REMARK    1  A    between atoms: C5_6  and  C6_7 
ROOT
ATOM      1  C6  <0> d           1.430   2.031  -0.001  0.00  0.00    -0.025 C 
ATOM      2  H1  <0> d           1.990   1.554   0.803  0.00  0.00     0.047 H 
ATOM      3  C7  <0> d          -0.019   1.526   0.010  0.00  0.00    -0.055 C 
ATOM      4  C8  <0> d           0.002  -0.004   0.002  0.00  0.00    -0.049 C 
ATOM      5  C9  <0> d           0.915  -0.503  -1.080  0.00  0.00    -0.106 C 
ATOM      6  C10 <0> d           1.812   0.225  -1.664  0.00  0.00    -0.106 C 
ATOM      7  C11 <0> d           2.057   1.672  -1.350  0.00  0.00    -0.043 C 
ATOM      8  H6  <0> d          -0.540   1.890  -0.875  0.00  0.00     0.034 H 
ATOM      9  H7  <0> d          -0.523   1.881   0.909  0.00  0.00     0.034 H 
ATOM     10  H8  <0> d           0.355  -0.366   0.968  0.00  0.00     0.038 H 
ATOM     11  H9  <0> d          -1.006  -0.378  -0.178  0.00  0.00     0.038 H 
ATOM     12  H10 <0> d           0.817  -1.532  -1.390  0.00  0.00     0.076 H 
ATOM     13  H11 <0> d           2.421  -0.238  -2.426  0.00  0.00     0.076 H 
ATOM     14  H12 <0> d           3.131   1.856  -1.309  0.00  0.00     0.039 H 
ATOM     15  H13 <0> d           1.613   2.291  -2.129  0.00  0.00     0.039 H 
ENDROOT
BRANCH   1  16
ATOM     16  C5  <0> d           1.446   3.527   0.183  0.00  0.00    -0.051 A 
ATOM     17  C1  <0> d           0.812   4.360  -0.725  0.00  0.00    -0.060 A 
ATOM     18  C2  <0> d           0.845   5.727  -0.522  0.00  0.00     0.002 A 
ATOM     19  H2  <0> d           0.297   3.947  -1.580  0.00  0.00     0.086 H 
ATOM     20  N1  <0> d           1.477   6.239   0.516  0.00  0.00    -0.273 NA
ATOM     21  H3  <0> d           0.351   6.383  -1.223  0.00  0.00     0.114 H 
ATOM     22  C3  <0> d           2.095   5.477   1.397  0.00  0.00     0.002 A 
ATOM     23  C4  <0> d           2.101   4.102   1.262  0.00  0.00    -0.060 A 
ATOM     24  H4  <0> d           2.602   5.933   2.234  0.00  0.00     0.114 H 
ATOM     25  H5  <0> d           2.608   3.483   1.987  0.00  0.00     0.086 H 
ENDBRANCH   1  16
TORSDOF 1
