REMARK  0 active torsions:
REMARK  status: ('A' for Active; 'I' for Inactive)
ROOT
ATOM      1  C1  <0> d          -0.739   1.625  -1.232  0.00  0.00    -0.058 C 
ATOM      2  C2  <0> d          -0.685   3.168  -1.207  0.00  0.00    -0.057 C 
ATOM      3  C3  <0> d           0.085   3.639   0.034  0.00  0.00    -0.022 C 
ATOM      4  H1  <0> d           0.183   4.724   0.039  0.00  0.00     0.048 H 
ATOM      5  C4  <0> d           1.454   2.975   0.011  0.00  0.00    -0.101 C 
ATOM      6  C5  <0> d           1.403   1.643  -0.003  0.00  0.00    -0.102 C 
ATOM      7  C6  <0> d          -0.013   1.086   0.008  0.00  0.00    -0.037 C 
ATOM      8  H2  <0> d           0.002  -0.004   0.002  0.00  0.00     0.046 H 
ATOM      9  C7  <0> d          -0.715   1.612   1.267  0.00  0.00    -0.043 C 
ATOM     10  C8  <0> d          -0.656   3.142   1.283  0.00  0.00     0.037 C 
ATOM     11  H3  <0> d          -0.128   3.476   2.176  0.00  0.00     0.063 H 
ATOM     12  C9  <0> d          -2.025   3.685   1.290  0.00  0.00     0.064 C 
ATOM     13  N1  <0> d          -3.080   4.104   1.295  0.00  0.00    -0.197 NA
ATOM     14  H4  <0> d          -0.255   1.243  -2.131  0.00  0.00     0.034 H 
ATOM     15  H5  <0> d          -1.779   1.302  -1.213  0.00  0.00     0.034 H 
ATOM     16  H6  <0> d          -1.698   3.570  -1.179  0.00  0.00     0.034 H 
ATOM     17  H7  <0> d          -0.178   3.522  -2.104  0.00  0.00     0.034 H 
ATOM     18  H8  <0> d           2.380   3.531   0.006  0.00  0.00     0.077 H 
ATOM     19  H9  <0> d           2.284   1.019  -0.019  0.00  0.00     0.076 H 
ATOM     20  H10 <0> d          -1.756   1.288   1.264  0.00  0.00     0.035 H 
ATOM     21  H11 <0> d          -0.214   1.220   2.152  0.00  0.00     0.035 H 
ENDROOT
TORSDOF 0
