REMARK  3 active torsions:
REMARK  status: ('A' for Active; 'I' for Inactive)
REMARK    1  A    between atoms: C1_1  and  C2_2 
REMARK    2  A    between atoms: C2_2  and  C3_4 
REMARK    3  A    between atoms: C4_5  and  N1_9 
ROOT
ATOM      1  C3  <0> d          -1.284   3.043   0.030  0.00  0.00     0.076 A 
ATOM      2  C4  <0> d          -1.223   1.644   0.017  0.00  0.00     0.047 A 
ATOM      3  C5  <0> d          -2.428   0.974   0.019  0.00  0.00    -0.050 A 
ATOM      4  C6  <0> d          -3.583   1.686   0.029  0.00  0.00    -0.042 A 
ATOM      5  S1  <0> d          -3.044   3.333   0.035  0.00  0.00    -0.096 SA
ATOM      6  H4  <0> d          -2.452  -0.106   0.013  0.00  0.00     0.087 H 
ATOM      7  H5  <0> d          -4.597   1.314   0.032  0.00  0.00     0.095 H 
ENDROOT
BRANCH   1   8
ATOM      8  C2  <0> d          -0.234   3.974   0.036  0.00  0.00     0.164 C 
ATOM      9  O1  <0> d           0.919   3.589   0.030  0.00  0.00    -0.292 OA
BRANCH   8  10
ATOM     10  C1  <0> d          -0.537   5.450   0.051  0.00  0.00    -0.016 C 
ATOM     11  H1  <0> d          -0.601   5.768   0.997  0.00  0.00     0.038 H 
ATOM     12  H2  <0> d           0.261   5.989  -0.460  0.00  0.00     0.038 H 
ATOM     13  H3  <0> d          -1.483   5.632  -0.459  0.00  0.00     0.038 H 
ENDBRANCH   8  10
ENDBRANCH   1   8
BRANCH   2  14
ATOM     14  N1  <0> d          -0.011   0.966   0.007  0.00  0.00    -0.398 N 
ATOM     15  H6  <0> d           0.002  -0.004   0.002  0.00  0.00     0.156 HD
ATOM     16  H7  <0> d           0.822   1.462   0.002  0.00  0.00     0.156 HD
ENDBRANCH   2  14
TORSDOF 3
