REMARK  5 active torsions:
REMARK  status: ('A' for Active; 'I' for Inactive)
REMARK    1  A    between atoms: C1_1  and  O1_2 
REMARK    2  A    between atoms: O1_2  and  C2_3 
REMARK    3  A    between atoms: C2_3  and  C3_4 
REMARK    4  A    between atoms: C2_3  and  O2_10 
REMARK    5  A    between atoms: O2_10  and  C6_11 
ROOT
ATOM      1  C2  <0> d          -0.497   3.372   1.346  0.00  0.00     0.171 C 
ATOM      2  H5  <0> d           0.392   3.813   0.896  0.00  0.00     0.139 H 
ENDROOT
BRANCH   1   3
ATOM      3  O1  <0> d          -0.286   1.974   1.547  0.00  0.00    -0.360 OA
BRANCH   3   4
ATOM      4  C1  <0> d           0.345   1.317   0.446  0.00  0.00     0.007 C 
ATOM      5  H2  <0> d           0.708   0.340   0.766  0.00  0.00     0.066 H 
ATOM      6  H3  <0> d           1.184   1.919   0.097  0.00  0.00     0.066 H 
ATOM      7  H4  <0> d          -0.374   1.191  -0.363  0.00  0.00     0.066 H 
ENDBRANCH   3   4
ENDBRANCH   1   3
BRANCH   1   8
ATOM      8  C3  <0> d          -0.771   4.035   2.671  0.00  0.00     0.084 A 
ATOM      9  N2  <0> d          -0.821   3.422   3.872  0.00  0.00    -0.278 N 
ATOM     10  N1  <0> d          -1.098   4.394   4.842  0.00  0.00    -0.187 NA
ATOM     11  H1  <0> d          -0.683   2.446   4.040  0.00  0.00     0.189 HD
ATOM     12  C5  <0> d          -1.219   5.549   4.239  0.00  0.00     0.024 A 
ATOM     13  C4  <0> d          -1.018   5.351   2.869  0.00  0.00    -0.036 A 
ATOM     14  H7  <0> d          -1.438   6.493   4.717  0.00  0.00     0.117 H 
ATOM     15  H6  <0> d          -1.052   6.113   2.105  0.00  0.00     0.089 H 
ENDBRANCH   1   8
BRANCH   1  16
ATOM     16  O2  <0> d          -1.616   3.565   0.477  0.00  0.00    -0.360 OA
BRANCH  16  17
ATOM     17  C6  <0> d          -1.327   3.328  -0.903  0.00  0.00     0.007 C 
ATOM     18  H8  <0> d          -2.127   3.742  -1.517  0.00  0.00     0.066 H 
ATOM     19  H9  <0> d          -0.384   3.807  -1.164  0.00  0.00     0.066 H 
ATOM     20  H10 <0> d          -1.252   2.255  -1.079  0.00  0.00     0.066 H 
ENDBRANCH  16  17
ENDBRANCH   1  16
TORSDOF 5
