REMARK  8 active torsions:
REMARK  status: ('A' for Active; 'I' for Inactive)
REMARK    1  A    between atoms: C1_1  and  C2_2 
REMARK    2  A    between atoms: C2_2  and  C3_3 
REMARK    3  A    between atoms: C3_3  and  C4_5 
REMARK    4  A    between atoms: C3_3  and  O2_10 
REMARK    5  A    between atoms: C4_5  and  C5_6 
REMARK    6  A    between atoms: C4_5  and  O1_8 
REMARK    7  A    between atoms: C5_6  and  C6_7 
REMARK    8  A    between atoms: O1_8  and  C7_9 
ROOT
ATOM      1  C3  <0> d           0.718  -0.497  -1.257  0.00  0.00     0.079 C 
ATOM      2  H1  <0> d           0.244  -0.064  -2.138  0.00  0.00     0.089 H 
ENDROOT
BRANCH   1   3
ATOM      3  C2  <0> d           0.002  -0.004   0.002  0.00  0.00    -0.041 C 
ATOM      4  H5  <0> d           0.529  -0.365   0.885  0.00  0.00     0.036 H 
ATOM      5  H6  <0> d          -1.020  -0.381   0.010  0.00  0.00     0.036 H 
BRANCH   3   6
ATOM      6  C1  <0> d          -0.019   1.526   0.010  0.00  0.00    -0.074 C 
ATOM      7  H2  <0> d           1.004   1.903   0.003  0.00  0.00     0.027 H 
ATOM      8  H3  <0> d          -0.546   1.887  -0.873  0.00  0.00     0.027 H 
ATOM      9  H4  <0> d          -0.529   1.877   0.907  0.00  0.00     0.027 H 
ENDBRANCH   3   6
ENDBRANCH   1   3
BRANCH   1  10
ATOM     10  C4  <0> d           0.632  -2.000  -1.327  0.00  0.00     0.181 C 
BRANCH  10  11
ATOM     11  C5  <0> d           0.009  -2.664  -0.389  0.00  0.00    -0.138 C 
BRANCH  11  12
ATOM     12  C6  <0> d          -0.613  -3.328   0.549  0.00  0.00    -0.009 C 
ATOM     13  H7  <0> d          -0.071  -3.670   1.418  0.00  0.00     0.051 H 
ATOM     14  H8  <0> d          -1.669  -3.533   0.455  0.00  0.00     0.051 H 
ENDBRANCH  11  12
ENDBRANCH  10  11
BRANCH  10  15
ATOM     15  O1  <0> d           1.198  -2.663  -2.362  0.00  0.00    -0.366 OA
BRANCH  15  16
ATOM     16  C7  <0> d           1.078  -4.087  -2.365  0.00  0.00     0.006 C 
ATOM     17  H9  <0> d           1.544  -4.492  -1.467  0.00  0.00     0.066 H 
ATOM     18  H10 <0> d           0.023  -4.362  -2.384  0.00  0.00     0.066 H 
ATOM     19  H11 <0> d           1.574  -4.491  -3.247  0.00  0.00     0.066 H 
ENDBRANCH  15  16
ENDBRANCH  10  15
ENDBRANCH   1  10
BRANCH   1  20
ATOM     20  O2  <0> d           2.090  -0.101  -1.210  0.00  0.00    -0.391 OA
ATOM     21  H12 <0> d           2.575  -0.451  -0.451  0.00  0.00     0.210 HD
ENDBRANCH   1  20
TORSDOF 8
