REMARK  0 active torsions:
REMARK  status: ('A' for Active; 'I' for Inactive)
ROOT
ATOM      1  C1  <0> d           1.172   1.779   0.000  0.00  0.00    -0.079 A 
ATOM      2  C2  <0> d           1.175   3.164   0.007  0.00  0.00    -0.062 A 
ATOM      3  C3  <0> d          -0.023   3.869   0.022  0.00  0.00     0.058 A 
ATOM      4  C4  <0> d          -1.246   3.160   0.030  0.00  0.00     0.032 A 
ATOM      5  C5  <0> d          -2.601   3.557   0.045  0.00  0.00     0.035 A 
ATOM      6  N1  <0> d          -3.348   2.490   0.047  0.00  0.00    -0.186 NA
ATOM      7  N2  <0> d          -2.539   1.347   0.034  0.00  0.00    -0.278 N 
ATOM      8  H1  <0> d          -2.861   0.400   0.036  0.00  0.00     0.189 HD
ATOM      9  C6  <0> d          -1.229   1.754   0.017  0.00  0.00     0.063 A 
ATOM     10  C7  <0> d          -0.013   1.076   0.008  0.00  0.00    -0.055 A 
ATOM     11  C8  <0> d          -0.018   5.301   0.029  0.00  0.00     0.100 C 
ATOM     12  N3  <0> d          -0.015   6.437   0.035  0.00  0.00    -0.191 NA
ATOM     13  H2  <0> d           2.110   1.243  -0.011  0.00  0.00     0.083 H 
ATOM     14  H3  <0> d           2.113   3.699   0.001  0.00  0.00     0.085 H 
ATOM     15  H4  <0> d          -2.958   4.576   0.053  0.00  0.00     0.118 H 
ATOM     16  H5  <0> d           0.002  -0.004   0.002  0.00  0.00     0.087 H 
ENDROOT
TORSDOF 0
