REMARK  5 active torsions:
REMARK  status: ('A' for Active; 'I' for Inactive)
REMARK    1  A    between atoms: C1_1  and  C2_2 
REMARK    2  A    between atoms: C2_2  and  C3_3 
REMARK    3  A    between atoms: C4_4  and  C9_11 
REMARK    4  A    between atoms: C5_5  and  C8_10 
REMARK    5  A    between atoms: C6_8  and  C7_9 
ROOT
ATOM      1  C3  <0> d          -2.096   1.836   1.374  0.00  0.00    -0.029 A 
ATOM      2  C4  <0> d          -0.718   1.572   1.248  0.00  0.00    -0.032 A 
ATOM      3  C5  <0> d          -0.145   1.840   2.439  0.00  0.00     0.012 A 
ATOM      4  N1  <0> d          -1.120   2.253   3.297  0.00  0.00    -0.363 N 
ATOM      5  H1  <0> d          -0.863   2.524   4.332  0.00  0.00     0.165 HD
ATOM      6  C6  <0> d          -2.315   2.246   2.640  0.00  0.00     0.012 A 
ENDROOT
BRANCH   1   7
ATOM      7  C2  <0> d          -3.136   1.685   0.293  0.00  0.00    -0.042 C 
ATOM      8  H5  <0> d          -2.673   1.864  -0.688  0.00  0.00     0.039 H 
ATOM      9  H6  <0> d          -3.943   2.414   0.457  0.00  0.00     0.039 H 
BRANCH   7  10
ATOM     10  C1  <0> d          -3.712   0.268   0.335  0.00  0.00    -0.073 C 
ATOM     11  H2  <0> d          -4.471   0.158  -0.454  0.00  0.00     0.028 H 
ATOM     12  H3  <0> d          -4.175   0.089   1.316  0.00  0.00     0.028 H 
ATOM     13  H4  <0> d          -2.905  -0.461   0.171  0.00  0.00     0.028 H 
ENDBRANCH   7  10
ENDBRANCH   1   7
BRANCH   6  14
ATOM     14  C7  <0> d          -3.648   2.634   3.225  0.00  0.00    -0.037 C 
ATOM     15  H7  <0> d          -3.515   2.924   4.278  0.00  0.00     0.035 H 
ATOM     16  H8  <0> d          -4.338   1.780   3.164  0.00  0.00     0.035 H 
ATOM     17  H9  <0> d          -4.063   3.482   2.661  0.00  0.00     0.035 H 
ENDBRANCH   6  14
BRANCH   2  18
ATOM     18  C9  <0> d          -0.013   1.086   0.008  0.00  0.00    -0.049 C 
ATOM     19  H13 <0> d           1.061   0.972   0.218  0.00  0.00     0.033 H 
ATOM     20  H14 <0> d          -0.152   1.815  -0.803  0.00  0.00     0.033 H 
ATOM     21  H15 <0> d          -0.432   0.115  -0.296  0.00  0.00     0.033 H 
ENDBRANCH   2  18
BRANCH   3  22
ATOM     22  C8  <0> d           1.320   1.705   2.765  0.00  0.00    -0.037 C 
ATOM     23  H10 <0> d           1.491   1.993   3.812  0.00  0.00     0.035 H 
ATOM     24  H11 <0> d           1.904   2.362   2.104  0.00  0.00     0.035 H 
ATOM     25  H12 <0> d           1.634   0.661   2.616  0.00  0.00     0.035 H 
ENDBRANCH   3  22
TORSDOF 5
