REMARK  7 active torsions:
REMARK  status: ('A' for Active; 'I' for Inactive)
REMARK    1  A    between atoms: C1_1  and  C2_2 
REMARK    2  A    between atoms: C2_2  and  C3_3 
REMARK    3  A    between atoms: C3_3  and  C4_5 
REMARK    4  A    between atoms: C3_3  and  O1_6 
REMARK    5  A    between atoms: O1_6  and  C5_7 
REMARK    6  A    between atoms: C5_7  and  C6_9 
REMARK    7  A    between atoms: C6_9  and  C7_10 
ROOT
ATOM      1  C3  <0> d          -2.164   1.050   1.278  0.00  0.00     0.044 C 
ATOM      2  H1  <0> d          -2.152  -0.036   1.182  0.00  0.00     0.083 H 
ENDROOT
BRANCH   1   3
ATOM      3  C2  <0> d          -0.729   1.579   1.267  0.00  0.00    -0.044 C 
ATOM      4  H5  <0> d          -0.202   1.218   2.150  0.00  0.00     0.036 H 
ATOM      5  H6  <0> d          -0.744   2.669   1.273  0.00  0.00     0.036 H 
BRANCH   3   6
ATOM      6  C1  <0> d          -0.013   1.086   0.008  0.00  0.00    -0.074 C 
ATOM      7  H2  <0> d           0.002  -0.004   0.002  0.00  0.00     0.027 H 
ATOM      8  H3  <0> d           1.010   1.463   0.000  0.00  0.00     0.027 H 
ATOM      9  H4  <0> d          -0.540   1.447  -0.875  0.00  0.00     0.027 H 
ENDBRANCH   3   6
ENDBRANCH   1   3
BRANCH   1  10
ATOM     10  C4  <0> d          -2.841   1.438   2.594  0.00  0.00    -0.052 C 
ATOM     11  H7  <0> d          -2.288   1.006   3.428  0.00  0.00     0.030 H 
ATOM     12  H8  <0> d          -2.854   2.524   2.689  0.00  0.00     0.030 H 
ATOM     13  H9  <0> d          -3.864   1.061   2.601  0.00  0.00     0.030 H 
ENDBRANCH   1  10
BRANCH   1  14
ATOM     14  O1  <0> d          -2.901   1.625   0.166  0.00  0.00    -0.316 OA
BRANCH  14  15
ATOM     15  C5  <0> d          -3.889   0.883  -0.359  0.00  0.00     0.258 C 
ATOM     16  O2  <0> d          -4.130  -0.210   0.095  0.00  0.00    -0.265 OA
BRANCH  15  17
ATOM     17  C6  <0> d          -4.697   1.414  -1.515  0.00  0.00     0.013 C 
ATOM     18  H10 <0> d          -5.191   2.339  -1.218  0.00  0.00     0.047 H 
ATOM     19  H11 <0> d          -4.037   1.611  -2.360  0.00  0.00     0.047 H 
BRANCH  17  20
ATOM     20  C7  <0> d          -5.749   0.380  -1.919  0.00  0.00    -0.068 C 
ATOM     21  H12 <0> d          -6.334   0.765  -2.755  0.00  0.00     0.028 H 
ATOM     22  H13 <0> d          -5.255  -0.544  -2.216  0.00  0.00     0.028 H 
ATOM     23  H14 <0> d          -6.409   0.184  -1.074  0.00  0.00     0.028 H 
ENDBRANCH  17  20
ENDBRANCH  15  17
ENDBRANCH  14  15
ENDBRANCH   1  14
TORSDOF 7
