REMARK  1 active torsions:
REMARK  status: ('A' for Active; 'I' for Inactive)
REMARK    1  A    between atoms: C1_1  and  C2_2 
ROOT
ATOM      1  C2  <0> d          -1.247   3.496   0.033  0.00  0.00    -0.019 A 
ATOM      2  C3  <0> d          -0.057   4.200   0.025  0.00  0.00    -0.037 A 
ATOM      3  C4  <0> d           1.154   3.527   0.010  0.00  0.00     0.118 A 
ATOM      4  C5  <0> d           1.180   2.146   0.002  0.00  0.00    -0.023 A 
ATOM      5  C6  <0> d          -0.017   1.428   0.010  0.00  0.00     0.086 A 
ATOM      6  C7  <0> d          -1.236   2.114   0.019  0.00  0.00     0.143 A 
ATOM      7  F1  <0> d          -2.400   1.428   0.021  0.00  0.00    -0.204 F 
ATOM      8  C8  <0> d           0.002  -0.004   0.002  0.00  0.00     0.102 C 
ATOM      9  N1  <0> d           0.018  -1.140  -0.004  0.00  0.00    -0.191 NA
ATOM     10  F2  <0> d           2.312   4.223   0.002  0.00  0.00    -0.206 F 
ATOM     11  H4  <0> d          -0.071   5.280   0.031  0.00  0.00     0.089 H 
ATOM     12  H5  <0> d           2.125   1.622  -0.009  0.00  0.00     0.090 H 
ENDROOT
BRANCH   1  13
ATOM     13  C1  <0> d          -2.559   4.238   0.050  0.00  0.00    -0.048 C 
ATOM     14  H1  <0> d          -2.368   5.321   0.060  0.00  0.00     0.033 H 
ATOM     15  H2  <0> d          -3.127   3.958   0.950  0.00  0.00     0.033 H 
ATOM     16  H3  <0> d          -3.140   3.975  -0.846  0.00  0.00     0.033 H 
ENDBRANCH   1  13
TORSDOF 1
