REMARK  3 active torsions:
REMARK  status: ('A' for Active; 'I' for Inactive)
REMARK    1  A    between atoms: C3_3  and  O2_10 
REMARK    2  A    between atoms: C6_6  and  C7_7 
REMARK    3  A    between atoms: C7_7  and  O1_8 
ROOT
ATOM      1  C1  <0> d          -1.218   1.751   0.017  0.00  0.00    -0.072 A 
ATOM      2  C2  <0> d          -0.013   1.076   0.008  0.00  0.00    -0.049 A 
ATOM      3  C3  <0> d           1.179   1.786   0.000  0.00  0.00     0.087 A 
ATOM      4  C4  <0> d           1.156   3.174   0.008  0.00  0.00     0.067 A 
ATOM      5  C5  <0> d          -0.052   3.844   0.023  0.00  0.00    -0.051 A 
ATOM      6  C6  <0> d          -1.238   3.133   0.030  0.00  0.00    -0.033 A 
ATOM      7 Cl1  <0> d           2.645   4.067  -0.002  0.00  0.00    -0.081 Cl
ATOM      8  H1  <0> d          -2.146   1.198   0.018  0.00  0.00     0.084 H 
ATOM      9  H2  <0> d           0.002  -0.004   0.002  0.00  0.00     0.087 H 
ATOM     10  H3  <0> d          -0.071   4.924   0.029  0.00  0.00     0.087 H 
ENDROOT
BRANCH   6  11
ATOM     11  C7  <0> d          -2.555   3.866   0.046  0.00  0.00     0.040 C 
ATOM     12  H4  <0> d          -3.301   3.263   0.563  0.00  0.00     0.081 H 
ATOM     13  H5  <0> d          -2.435   4.818   0.564  0.00  0.00     0.081 H 
BRANCH  11  14
ATOM     14  O1  <0> d          -2.983   4.105  -1.296  0.00  0.00    -0.396 OA
ATOM     15  H6  <0> d          -3.826   4.574  -1.363  0.00  0.00     0.209 HD
ENDBRANCH  11  14
ENDBRANCH   6  11
BRANCH   3  16
ATOM     16  O2  <0> d           2.366   1.124  -0.015  0.00  0.00    -0.359 OA
ATOM     17  H7  <0> d           2.700   0.938  -0.903  0.00  0.00     0.217 HD
ENDBRANCH   3  16
TORSDOF 3
