REMARK  3 active torsions:
REMARK  status: ('A' for Active; 'I' for Inactive)
REMARK    1  A    between atoms: C1_1  and  C2_2 
REMARK    2  A    between atoms: C3_3  and  C6_11 
REMARK    3  A    between atoms: C4_5  and  N3_10 
ROOT
ATOM      1  C2  <0> d          -1.196   1.641   0.017  0.00  0.00     0.033 A 
ATOM      2  C3  <0> d          -1.224   2.990   0.029  0.00  0.00     0.055 A 
ATOM      3  N1  <0> d          -0.106   3.715   0.022  0.00  0.00    -0.229 NA
ATOM      4  C4  <0> d           1.073   3.132   0.008  0.00  0.00     0.190 A 
ATOM      5  C5  <0> d           1.145   1.666   0.000  0.00  0.00     0.291 A 
ATOM      6  O1  <0> d           2.222   1.094  -0.013  0.00  0.00    -0.264 OA
ATOM      7  N2  <0> d          -0.011   0.966   0.007  0.00  0.00    -0.323 N 
ATOM      8  H1  <0> d          -0.005  -0.134   0.006  0.00  0.00     0.169 HD
ENDROOT
BRANCH   1   9
ATOM      9  C1  <0> d          -2.491   0.869   0.019  0.00  0.00    -0.035 C 
ATOM     10  H2  <0> d          -3.336   1.573   0.027  0.00  0.00     0.035 H 
ATOM     11  H3  <0> d          -2.536   0.232   0.914  0.00  0.00     0.035 H 
ATOM     12  H4  <0> d          -2.545   0.241  -0.882  0.00  0.00     0.035 H 
ENDBRANCH   1   9
BRANCH   2  13
ATOM     13  C6  <0> d          -2.556   3.695   0.045  0.00  0.00    -0.034 C 
ATOM     14  H7  <0> d          -2.394   4.783   0.054  0.00  0.00     0.035 H 
ATOM     15  H8  <0> d          -3.116   3.401   0.945  0.00  0.00     0.035 H 
ATOM     16  H9  <0> d          -3.130   3.417  -0.851  0.00  0.00     0.035 H 
ENDBRANCH   2  13
BRANCH   4  17
ATOM     17  N3  <0> d           2.235   3.893   0.002  0.00  0.00    -0.379 N 
ATOM     18  H5  <0> d           3.217   3.398  -0.010  0.00  0.00     0.158 HD
ATOM     19  H6  <0> d           2.172   4.992   0.008  0.00  0.00     0.158 HD
ENDBRANCH   4  17
TORSDOF 3
