REMARK  0 active torsions:
REMARK  status: ('A' for Active; 'I' for Inactive)
ROOT
ATOM      1  C1  <0> d           1.182   2.144   0.002  0.00  0.00    -0.062 A 
ATOM      2  C2  <0> d           1.166   3.521   0.010  0.00  0.00    -0.065 A 
ATOM      3  C3  <0> d          -0.052   4.205   0.025  0.00  0.00     0.048 A 
ATOM      4  C4  <0> d          -1.250   3.484   0.033  0.00  0.00    -0.016 A 
ATOM      5  C5  <0> d          -1.237   2.111   0.019  0.00  0.00    -0.054 A 
ATOM      6  C6  <0> d          -0.017   1.428   0.010  0.00  0.00     0.045 A 
ATOM      7  C7  <0> d           0.002  -0.004   0.002  0.00  0.00     0.099 C 
ATOM      8  N1  <0> d           0.018  -1.140  -0.004  0.00  0.00    -0.191 NA
ATOM      9  C8  <0> d          -2.359   4.506   0.049  0.00  0.00     0.054 A 
ATOM     10  O1  <0> d          -1.717   5.810   0.051  0.00  0.00    -0.313 OA
ATOM     11  C9  <0> d          -0.384   5.643   0.037  0.00  0.00     0.294 A 
ATOM     12  O2  <0> d           0.430   6.544   0.034  0.00  0.00    -0.259 OA
ATOM     13  H1  <0> d           2.124   1.616  -0.009  0.00  0.00     0.085 H 
ATOM     14  H2  <0> d           2.095   4.072   0.004  0.00  0.00     0.085 H 
ATOM     15  H3  <0> d          -2.166   1.561   0.021  0.00  0.00     0.086 H 
ATOM     16  H4  <0> d          -2.965   4.387   0.948  0.00  0.00     0.082 H 
ATOM     17  H5  <0> d          -2.983   4.397  -0.838  0.00  0.00     0.082 H 
ENDROOT
TORSDOF 0
