REMARK  0 active torsions:
REMARK  status: ('A' for Active; 'I' for Inactive)
ROOT
ATOM      1  C1  <0> d           2.391   0.109  -0.020  0.00  0.00     0.046 A 
ATOM      2  C2  <0> d           1.235  -0.648  -0.013  0.00  0.00     0.175 A 
ATOM      3  C3  <0> d           0.002  -0.004   0.002  0.00  0.00     0.199 A 
ATOM      4  C4  <0> d          -0.017   1.385   0.010  0.00  0.00     0.215 A 
ATOM      5  C5  <0> d           1.185   2.076   0.002  0.00  0.00     0.251 A 
ATOM      6  N1  <0> d           2.336   1.428  -0.012  0.00  0.00    -0.227 NA
ATOM      7  F1  <0> d           1.179   3.427   0.009  0.00  0.00    -0.181 F 
ATOM      8  F2  <0> d          -1.191   2.054   0.019  0.00  0.00    -0.198 F 
ATOM      9  F3  <0> d          -1.149  -0.712   0.009  0.00  0.00    -0.199 F 
ATOM     10  F4  <0> d           1.302  -1.998  -0.021  0.00  0.00    -0.201 F 
ATOM     11  H1  <0> d           3.352  -0.384  -0.032  0.00  0.00     0.119 H 
ENDROOT
TORSDOF 0
