REMARK  1 active torsions:
REMARK  status: ('A' for Active; 'I' for Inactive)
REMARK    1  A    between atoms: C5_8  and  N2_9 
ROOT
ATOM      1  C1  <0> d          -0.013   1.076   0.008  0.00  0.00    -0.051 A 
ATOM      2  C2  <0> d           1.155   1.781   0.001  0.00  0.00    -0.015 A 
ATOM      3  C3  <0> d           1.112   3.185   0.009  0.00  0.00     0.245 A 
ATOM      4  O1  <0> d           2.151   3.826   0.002  0.00  0.00    -0.268 OA
ATOM      5  N1  <0> d          -0.072   3.826   0.023  0.00  0.00    -0.332 N 
ATOM      6  H1  <0> d          -0.103   4.926   0.030  0.00  0.00     0.168 HD
ATOM      7  C4  <0> d          -1.241   3.129   0.030  0.00  0.00     0.005 A 
ATOM      8  C5  <0> d          -1.235   1.770   0.018  0.00  0.00     0.041 A 
ATOM      9  H2  <0> d           0.002  -0.004   0.002  0.00  0.00     0.087 H 
ATOM     10  H3  <0> d           2.103   1.265  -0.012  0.00  0.00     0.092 H 
ATOM     11  H4  <0> d          -2.181   3.660   0.042  0.00  0.00     0.115 H 
ENDROOT
BRANCH   8  12
ATOM     12  N2  <0> d          -2.446   1.062   0.019  0.00  0.00    -0.398 N 
ATOM     13  H5  <0> d          -3.402   1.607   0.027  0.00  0.00     0.156 HD
ATOM     14  H6  <0> d          -2.440  -0.038   0.013  0.00  0.00     0.156 HD
ENDBRANCH   8  12
TORSDOF 1
