REMARK  9 active torsions:
REMARK  status: ('A' for Active; 'I' for Inactive)
REMARK    1  A    between atoms: C1_1  and  C2_2 
REMARK    2  A    between atoms: C2_2  and  C3_3 
REMARK    3  A    between atoms: C3_3  and  C4_4 
REMARK    4  A    between atoms: C4_4  and  C5_5 
REMARK    5  A    between atoms: C5_5  and  C6_6 
REMARK    6  A    between atoms: C6_6  and  C7_7 
REMARK    7  A    between atoms: C7_7  and  C8_9 
REMARK    8  A    between atoms: C7_7  and  O2_11 
REMARK    9  A    between atoms: C8_9  and  O1_10 
ROOT
ATOM      1  C5  <0> d          -0.570   1.778   3.752  0.00  0.00    -0.063 C 
ATOM      2  H11 <0> d          -0.588   2.864   3.667  0.00  0.00     0.033 H 
ATOM      3  H12 <0> d          -1.590   1.404   3.847  0.00  0.00     0.033 H 
ENDROOT
BRANCH   1   4
ATOM      4  C4  <0> d           0.237   1.377   4.989  0.00  0.00    -0.065 C 
ATOM      5  H9  <0> d           0.255   0.291   5.074  0.00  0.00     0.033 H 
ATOM      6  H10 <0> d           1.257   1.751   4.894  0.00  0.00     0.033 H 
BRANCH   4   7
ATOM      7  C3  <0> d          -0.412   1.977   6.238  0.00  0.00    -0.065 C 
ATOM      8  H7  <0> d          -0.430   3.063   6.152  0.00  0.00     0.033 H 
ATOM      9  H8  <0> d          -1.431   1.603   6.333  0.00  0.00     0.033 H 
BRANCH   7  10
ATOM     10  C2  <0> d           0.396   1.576   7.474  0.00  0.00    -0.069 C 
ATOM     11  H5  <0> d           0.414   0.489   7.560  0.00  0.00     0.032 H 
ATOM     12  H6  <0> d           1.415   1.950   7.379  0.00  0.00     0.032 H 
BRANCH  10  13
ATOM     13  C1  <0> d          -0.253   2.175   8.723  0.00  0.00    -0.077 C 
ATOM     14  H2  <0> d          -0.271   3.262   8.638  0.00  0.00     0.027 H 
ATOM     15  H3  <0> d          -1.273   1.801   8.818  0.00  0.00     0.027 H 
ATOM     16  H4  <0> d           0.322   1.890   9.604  0.00  0.00     0.027 H 
ENDBRANCH  10  13
ENDBRANCH   7  10
ENDBRANCH   4   7
ENDBRANCH   1   4
BRANCH   1  17
ATOM     17  C6  <0> d           0.079   1.179   2.503  0.00  0.00    -0.039 C 
ATOM     18  H13 <0> d           0.097   0.092   2.589  0.00  0.00     0.036 H 
ATOM     19  H14 <0> d           1.098   1.553   2.408  0.00  0.00     0.036 H 
BRANCH  17  20
ATOM     20  C7  <0> d          -0.729   1.579   1.267  0.00  0.00     0.056 C 
ATOM     21  H1  <0> d          -0.822   2.665   1.230  0.00  0.00     0.086 H 
BRANCH  20  22
ATOM     22  C8  <0> d          -0.013   1.086   0.008  0.00  0.00     0.040 C 
ATOM     23  H15 <0> d           0.002  -0.004   0.002  0.00  0.00     0.077 H 
ATOM     24  H16 <0> d           1.010   1.463   0.000  0.00  0.00     0.077 H 
BRANCH  22  25
ATOM     25  O1  <0> d          -0.704   1.559  -1.150  0.00  0.00    -0.398 OA
ATOM     26  H17 <0> d          -0.304   1.284  -1.986  0.00  0.00     0.209 HD
ENDBRANCH  22  25
ENDBRANCH  20  22
BRANCH  20  27
ATOM     27  O2  <0> d          -2.030   0.991   1.336  0.00  0.00    -0.393 OA
ATOM     28  H18 <0> d          -2.023   0.025   1.372  0.00  0.00     0.210 HD
ENDBRANCH  20  27
ENDBRANCH  17  20
ENDBRANCH   1  17
TORSDOF 9
