REMARK  1 active torsions:
REMARK  status: ('A' for Active; 'I' for Inactive)
REMARK    1  A    between atoms: C5_6  and  C6_7 
ROOT
ATOM      1  C6  <0> d          -0.985   3.097  -1.081  0.00  0.00    -0.025 C 
ATOM      2  H1  <0> d          -0.044   3.595  -0.845  0.00  0.00     0.047 H 
ATOM      3  C7  <0> d          -0.747   1.590  -1.236  0.00  0.00    -0.055 C 
ATOM      4  C8  <0> d          -0.013   1.086   0.008  0.00  0.00    -0.049 C 
ATOM      5  C9  <0> d          -0.710   1.567   1.247  0.00  0.00    -0.106 C 
ATOM      6  C10 <0> d          -1.560   2.540   1.271  0.00  0.00    -0.106 C 
ATOM      7  C11 <0> d          -1.983   3.316   0.058  0.00  0.00    -0.043 C 
ATOM      8  H6  <0> d          -0.139   1.404  -2.121  0.00  0.00     0.034 H 
ATOM      9  H7  <0> d          -1.704   1.076  -1.330  0.00  0.00     0.034 H 
ATOM     10  H8  <0> d           0.002  -0.004   0.002  0.00  0.00     0.038 H 
ATOM     11  H9  <0> d           1.011   1.461   0.000  0.00  0.00     0.038 H 
ATOM     12  H10 <0> d          -0.485   1.071   2.179  0.00  0.00     0.076 H 
ATOM     13  H11 <0> d          -1.996   2.809   2.222  0.00  0.00     0.076 H 
ATOM     14  H12 <0> d          -2.025   4.377   0.304  0.00  0.00     0.039 H 
ATOM     15  H13 <0> d          -2.971   2.981  -0.259  0.00  0.00     0.039 H 
ENDROOT
BRANCH   1  16
ATOM     16  C5  <0> d          -1.544   3.656  -2.365  0.00  0.00    -0.051 A 
ATOM     17  C1  <0> d          -2.743   3.187  -2.880  0.00  0.00    -0.060 A 
ATOM     18  C2  <0> d          -3.227   3.727  -4.057  0.00  0.00     0.002 A 
ATOM     19  H2  <0> d          -3.293   2.412  -2.367  0.00  0.00     0.086 H 
ATOM     20  N1  <0> d          -2.558   4.669  -4.692  0.00  0.00    -0.273 NA
ATOM     21  H3  <0> d          -4.161   3.369  -4.463  0.00  0.00     0.114 H 
ATOM     22  C3  <0> d          -1.413   5.136  -4.234  0.00  0.00     0.002 A 
ATOM     23  C4  <0> d          -0.870   4.648  -3.060  0.00  0.00    -0.060 A 
ATOM     24  H4  <0> d          -0.894   5.908  -4.782  0.00  0.00     0.114 H 
ATOM     25  H5  <0> d           0.068   5.034  -2.690  0.00  0.00     0.086 H 
ENDBRANCH   1  16
TORSDOF 1
