REMARK  5 active torsions:
REMARK  status: ('A' for Active; 'I' for Inactive)
REMARK    1  A    between atoms: C1_1  and  C2_2 
REMARK    2  A    between atoms: C2_2  and  C3_4 
REMARK    3  A    between atoms: C2_2  and  N1_7 
REMARK    4  A    between atoms: C3_4  and  O1_5 
REMARK    5  A    between atoms: O1_5  and  C4_6 
ROOT
ATOM      1  C2  <0> d           0.613  -2.097  -1.041  0.00  0.00     0.033 C 
ATOM      2  H1  <0> d          -0.419  -2.427  -0.920  0.00  0.00     0.075 H 
ENDROOT
BRANCH   1   3
ATOM      3  C1  <0> d           1.439  -2.553   0.164  0.00  0.00    -0.055 C 
ATOM      4  H2  <0> d           2.471  -2.222   0.043  0.00  0.00     0.030 H 
ATOM      5  H3  <0> d           1.023  -2.120   1.074  0.00  0.00     0.030 H 
ATOM      6  H4  <0> d           1.411  -3.640   0.233  0.00  0.00     0.030 H 
ENDBRANCH   1   3
BRANCH   1   7
ATOM      7  C3  <0> d           0.652  -0.570  -1.138  0.00  0.00     0.038 C 
ATOM      8  H5  <0> d           0.139  -0.251  -2.045  0.00  0.00     0.077 H 
ATOM      9  H6  <0> d           1.688  -0.234  -1.169  0.00  0.00     0.077 H 
BRANCH   7  10
ATOM     10  O1  <0> d           0.002  -0.004   0.002  0.00  0.00    -0.394 OA
BRANCH  10  11
ATOM     11  C4  <0> d          -0.017   1.425   0.010  0.00  0.00     0.004 C 
ATOM     12  H7  <0> d           1.005   1.802   0.002  0.00  0.00     0.066 H 
ATOM     13  H8  <0> d          -0.544   1.786  -0.873  0.00  0.00     0.066 H 
ATOM     14  H9  <0> d          -0.527   1.776   0.907  0.00  0.00     0.066 H 
ENDBRANCH  10  11
ENDBRANCH   7  10
ENDBRANCH   1   7
BRANCH   1  15
ATOM     15  N1  <0> d           1.172  -2.678  -2.264  0.00  0.00    -0.360 N 
ATOM     16  C8  <0> d           0.512  -3.505  -3.124  0.00  0.00    -0.020 A 
ATOM     17  C7  <0> d           1.353  -3.829  -4.127  0.00  0.00    -0.067 A 
ATOM     18  H13 <0> d          -0.509  -3.841  -3.021  0.00  0.00     0.111 H 
ATOM     19  C6  <0> d           2.578  -3.178  -3.877  0.00  0.00    -0.067 A 
ATOM     20  H12 <0> d           1.130  -4.469  -4.967  0.00  0.00     0.085 H 
ATOM     21  C5  <0> d           2.436  -2.477  -2.734  0.00  0.00    -0.020 A 
ATOM     22  H11 <0> d           3.465  -3.228  -4.490  0.00  0.00     0.085 H 
ATOM     23  H10 <0> d           3.194  -1.863  -2.269  0.00  0.00     0.111 H 
ENDBRANCH   1  15
TORSDOF 5
