REMARK  1 active torsions:
REMARK  status: ('A' for Active; 'I' for Inactive)
REMARK    1  A    between atoms: C1_1  and  C2_2 
ROOT
ATOM      1  C2  <0> d          -0.718   1.572   1.248  0.00  0.00     0.027 A 
ATOM      2  C3  <0> d          -0.130   1.849   2.478  0.00  0.00     0.013 A 
ATOM      3  C4  <0> d           1.180   1.799   3.009  0.00  0.00    -0.048 A 
ATOM      4  C5  <0> d           1.366   2.158   4.296  0.00  0.00     0.019 A 
ATOM      5  O1  <0> d           0.348   2.554   5.069  0.00  0.00    -0.332 OA
ATOM      6  C6  <0> d          -0.917   2.624   4.633  0.00  0.00     0.052 A 
ATOM      7  C7  <0> d          -1.220   2.289   3.359  0.00  0.00     0.112 A 
ATOM      8  O2  <0> d          -2.354   2.249   2.626  0.00  0.00    -0.272 OA
ATOM      9  C8  <0> d          -2.077   1.834   1.375  0.00  0.00     0.295 A 
ATOM     10  O3  <0> d          -2.901   1.703   0.483  0.00  0.00    -0.259 OA
ATOM     11  H4  <0> d           2.012   1.482   2.398  0.00  0.00     0.087 H 
ATOM     12  H5  <0> d           2.362   2.124   4.713  0.00  0.00     0.123 H 
ATOM     13  H6  <0> d          -1.698   2.952   5.303  0.00  0.00     0.128 H 
ENDROOT
BRANCH   1  14
ATOM     14  C1  <0> d          -0.013   1.086   0.008  0.00  0.00    -0.045 C 
ATOM     15  H1  <0> d           0.002  -0.004   0.002  0.00  0.00     0.033 H 
ATOM     16  H2  <0> d           1.010   1.463   0.000  0.00  0.00     0.033 H 
ATOM     17  H3  <0> d          -0.540   1.447  -0.875  0.00  0.00     0.033 H 
ENDBRANCH   1  14
TORSDOF 1
