REMARK  5 active torsions:
REMARK  status: ('A' for Active; 'I' for Inactive)
REMARK    1  A    between atoms: C1_1  and  O1_2 
REMARK    2  A    between atoms: O1_2  and  C2_3 
REMARK    3  A    between atoms: C2_3  and  C3_5 
REMARK    4  A    between atoms: C3_5  and  N1_6 
REMARK    5  A    between atoms: C5_8  and  N3_11 
ROOT
ATOM      1  N1  <0> d           1.073   1.894   0.002  0.00  0.00    -0.270 N 
ATOM      2  C4  <0> d          -0.013   1.076   0.008  0.00  0.00     0.025 A 
ATOM      3  C5  <0> d          -1.118   1.863   0.017  0.00  0.00     0.062 A 
ATOM      4  C6  <0> d          -0.695   3.200   0.026  0.00  0.00     0.048 A 
ATOM      5  N2  <0> d           0.614   3.217   0.013  0.00  0.00    -0.182 NA
ATOM      6  H6  <0> d           0.002  -0.004   0.002  0.00  0.00     0.117 H 
ATOM      7  H7  <0> d          -1.338   4.066   0.036  0.00  0.00     0.121 H 
ENDROOT
BRANCH   1   8
ATOM      8  C3  <0> d           2.475   1.468  -0.013  0.00  0.00     0.096 C 
ATOM      9  H4  <0> d           2.524   0.373  -0.110  0.00  0.00     0.082 H 
ATOM     10  H5  <0> d           2.962   1.775   0.924  0.00  0.00     0.082 H 
BRANCH   8  11
ATOM     11  C2  <0> d           3.182   2.107  -1.181  0.00  0.00     0.278 C 
ATOM     12  O2  <0> d           2.577   2.843  -1.923  0.00  0.00    -0.263 OA
BRANCH  11  13
ATOM     13  O1  <0> d           4.483   1.858  -1.395  0.00  0.00    -0.325 OA
BRANCH  13  14
ATOM     14  C1  <0> d           5.099   2.508  -2.538  0.00  0.00     0.013 C 
ATOM     15  H1  <0> d           6.159   2.220  -2.596  0.00  0.00     0.067 H 
ATOM     16  H2  <0> d           5.021   3.600  -2.425  0.00  0.00     0.067 H 
ATOM     17  H3  <0> d           4.583   2.197  -3.458  0.00  0.00     0.067 H 
ENDBRANCH  13  14
ENDBRANCH  11  13
ENDBRANCH   8  11
ENDBRANCH   1   8
BRANCH   3  18
ATOM     18  N3  <0> d          -2.453   1.416   0.019  0.00  0.00    -0.397 N 
ATOM     19  H8  <0> d          -3.277   2.146   0.027  0.00  0.00     0.156 HD
ATOM     20  H9  <0> d          -2.673   0.339   0.014  0.00  0.00     0.156 HD
ENDBRANCH   3  18
TORSDOF 5
