REMARK  1 active torsions:
REMARK  status: ('A' for Active; 'I' for Inactive)
REMARK    1  A    between atoms: C1_1  and  C2_2 
ROOT
ATOM      1  C2  <0> d          -2.966   3.860   0.034  0.00  0.00    -0.059 A 
ATOM      2  C3  <0> d          -3.413   2.550   0.029  0.00  0.00    -0.075 A 
ATOM      3  C4  <0> d          -2.507   1.507   0.020  0.00  0.00    -0.054 A 
ATOM      4  C5  <0> d          -1.147   1.775   0.017  0.00  0.00     0.071 A 
ATOM      5  C6  <0> d          -0.696   3.095   0.025  0.00  0.00     0.108 A 
ATOM      6  C7  <0> d          -1.612   4.135   0.040  0.00  0.00    -0.042 A 
ATOM      7  O1  <0> d           0.659   3.057   0.012  0.00  0.00    -0.259 OA
ATOM      8  C8  <0> d           1.065   1.778   0.001  0.00  0.00     0.370 A 
ATOM      9  O2  <0> d           2.223   1.408  -0.012  0.00  0.00    -0.238 OA
ATOM     10  N1  <0> d          -0.011   0.966   0.007  0.00  0.00    -0.300 N 
ATOM     11  H1  <0> d           0.002  -0.004   0.002  0.00  0.00     0.171 HD
ATOM     12  H5  <0> d          -4.472   2.342   0.032  0.00  0.00     0.084 H 
ATOM     13  H6  <0> d          -2.857   0.485   0.016  0.00  0.00     0.087 H 
ATOM     14  H7  <0> d          -1.268   5.158   0.042  0.00  0.00     0.088 H 
ENDROOT
BRANCH   1  15
ATOM     15  C1  <0> d          -3.961   4.991   0.044  0.00  0.00    -0.051 C 
ATOM     16  H2  <0> d          -4.197   5.259   1.074  0.00  0.00     0.033 H 
ATOM     17  H3  <0> d          -3.535   5.854  -0.467  0.00  0.00     0.033 H 
ATOM     18  H4  <0> d          -4.871   4.679  -0.468  0.00  0.00     0.033 H 
ENDBRANCH   1  15
TORSDOF 1
