REMARK  9 active torsions:
REMARK  status: ('A' for Active; 'I' for Inactive)
REMARK    1  A    between atoms: C1_1  and  C2_2 
REMARK    2  A    between atoms: C2_2  and  C3_4 
REMARK    3  A    between atoms: C2_2  and  C9_10 
REMARK    4  A    between atoms: C3_4  and  C4_5 
REMARK    5  A    between atoms: C4_5  and  C5_6 
REMARK    6  A    between atoms: C6_7  and  C7_8 
REMARK    7  A    between atoms: C6_7  and  C8_9 
REMARK    8  A    between atoms: C9_10  and  C10_12 
REMARK    9  A    between atoms: C9_10  and  O1_13 
ROOT
ATOM      1  C3  <0> d          -0.358   0.747   1.020  0.00  0.00    -0.057 C 
ATOM      2  H6  <0> d          -0.267   1.792   1.314  0.00  0.00     0.034 H 
ATOM      3  H7  <0> d          -1.403   0.442   1.084  0.00  0.00     0.034 H 
ENDROOT
BRANCH   1   4
ATOM      4  C2  <0> d           0.486  -0.122   1.954  0.00  0.00    -0.033 C 
ATOM      5  H1  <0> d           1.540   0.123   1.823  0.00  0.00     0.043 H 
BRANCH   4   6
ATOM      6  C1  <0> d           0.261  -1.598   1.620  0.00  0.00    -0.071 C 
ATOM      7  H3  <0> d          -0.793  -1.843   1.750  0.00  0.00     0.028 H 
ATOM      8  H4  <0> d           0.552  -1.785   0.586  0.00  0.00     0.028 H 
ATOM      9  H5  <0> d           0.862  -2.217   2.285  0.00  0.00     0.028 H 
ENDBRANCH   4   6
BRANCH   4  10
ATOM     10  C9  <0> d           0.077   0.141   3.404  0.00  0.00     0.035 C 
ATOM     11  H2  <0> d          -0.978  -0.104   3.534  0.00  0.00     0.082 H 
BRANCH  10  12
ATOM     12  C10 <0> d           0.302   1.617   3.738  0.00  0.00    -0.052 C 
ATOM     13  H17 <0> d           1.356   1.862   3.608  0.00  0.00     0.030 H 
ATOM     14  H18 <0> d          -0.299   2.236   3.073  0.00  0.00     0.030 H 
ATOM     15  H19 <0> d           0.011   1.804   4.771  0.00  0.00     0.030 H 
ENDBRANCH  10  12
BRANCH  10  16
ATOM     16  O1  <0> d           0.865  -0.671   4.276  0.00  0.00    -0.396 OA
ATOM     17  H20 <0> d           0.659  -0.555   5.214  0.00  0.00     0.210 HD
ENDBRANCH  10  16
ENDBRANCH   4  10
ENDBRANCH   1   4
BRANCH   1  18
ATOM     18  C4  <0> d           0.134   0.578  -0.419  0.00  0.00    -0.049 C 
ATOM     19  H8  <0> d           0.043  -0.468  -0.714  0.00  0.00     0.038 H 
ATOM     20  H9  <0> d           1.179   0.883  -0.484  0.00  0.00     0.038 H 
BRANCH  18  21
ATOM     21  C5  <0> d          -0.697   1.434  -1.339  0.00  0.00    -0.101 C 
ATOM     22  C6  <0> d          -0.123   2.351  -2.077  0.00  0.00    -0.091 C 
ATOM     23  H10 <0> d          -1.767   1.291  -1.390  0.00  0.00     0.077 H 
BRANCH  22  24
ATOM     24  C7  <0> d           1.346   2.642  -1.911  0.00  0.00    -0.055 C 
ATOM     25  H11 <0> d           1.925   1.941  -2.511  0.00  0.00     0.033 H 
ATOM     26  H12 <0> d           1.554   3.660  -2.239  0.00  0.00     0.033 H 
ATOM     27  H13 <0> d           1.621   2.535  -0.861  0.00  0.00     0.033 H 
ENDBRANCH  22  24
BRANCH  22  28
ATOM     28  C8  <0> d          -0.933   3.116  -3.092  0.00  0.00    -0.055 C 
ATOM     29  H14 <0> d          -1.738   3.650  -2.588  0.00  0.00     0.033 H 
ATOM     30  H15 <0> d          -0.289   3.831  -3.606  0.00  0.00     0.033 H 
ATOM     31  H16 <0> d          -1.356   2.422  -3.818  0.00  0.00     0.033 H 
ENDBRANCH  22  28
ENDBRANCH  18  21
ENDBRANCH   1  18
TORSDOF 9
