REMARK  5 active torsions:
REMARK  status: ('A' for Active; 'I' for Inactive)
REMARK    1  A    between atoms: C1_1  and  C2_2 
REMARK    2  A    between atoms: C2_2  and  C3_3 
REMARK    3  A    between atoms: C2_2  and  C4_4 
REMARK    4  A    between atoms: C4_4  and  C5_5 
REMARK    5  A    between atoms: C8_8  and  O1_11 
ROOT
ATOM      1  C4  <0> d          -0.735   2.019   1.269  0.00  0.00    -0.038 C 
ATOM      2  H8  <0> d          -0.261   1.586   2.150  0.00  0.00     0.040 H 
ATOM      3  H9  <0> d          -0.672   3.106   1.320  0.00  0.00     0.040 H 
ENDROOT
BRANCH   1   4
ATOM      4  C2  <0> d          -0.019   1.526   0.010  0.00  0.00    -0.057 C 
ATOM      5  H4  <0> d          -0.546   1.887  -0.873  0.00  0.00     0.039 H 
BRANCH   4   6
ATOM      6  C1  <0> d           0.002  -0.004   0.002  0.00  0.00    -0.073 C 
ATOM      7  H1  <0> d           0.512  -0.356  -0.895  0.00  0.00     0.028 H 
ATOM      8  H2  <0> d           0.529  -0.365   0.885  0.00  0.00     0.028 H 
ATOM      9  H3  <0> d          -1.020  -0.381   0.010  0.00  0.00     0.028 H 
ENDBRANCH   4   6
BRANCH   4  10
ATOM     10  C3  <0> d           1.417   2.055  -0.000  0.00  0.00    -0.073 C 
ATOM     11  H5  <0> d           1.927   1.704  -0.897  0.00  0.00     0.028 H 
ATOM     12  H6  <0> d           1.402   3.145   0.006  0.00  0.00     0.028 H 
ATOM     13  H7  <0> d           1.944   1.694   0.883  0.00  0.00     0.028 H 
ENDBRANCH   4  10
ENDBRANCH   1   4
BRANCH   1  14
ATOM     14  C5  <0> d          -2.182   1.601   1.220  0.00  0.00    -0.058 A 
ATOM     15  C10 <0> d          -2.568   0.387   1.757  0.00  0.00    -0.074 A 
ATOM     16  C9  <0> d          -3.894   0.001   1.713  0.00  0.00    -0.051 A 
ATOM     17  H13 <0> d          -1.832  -0.262   2.209  0.00  0.00     0.084 H 
ATOM     18  C8  <0> d          -4.838   0.834   1.131  0.00  0.00     0.065 A 
ATOM     19  H12 <0> d          -4.195  -0.948   2.132  0.00  0.00     0.087 H 
ATOM     20  C7  <0> d          -4.448   2.052   0.594  0.00  0.00    -0.051 A 
ATOM     21  C6  <0> d          -3.122   2.435   0.645  0.00  0.00    -0.074 A 
ATOM     22  H11 <0> d          -5.182   2.702   0.140  0.00  0.00     0.087 H 
ATOM     23  H10 <0> d          -2.819   3.385   0.231  0.00  0.00     0.084 H 
BRANCH  18  24
ATOM     24  O1  <0> d          -6.143   0.456   1.087  0.00  0.00    -0.361 OA
ATOM     25  H14 <0> d          -6.660   0.736   1.855  0.00  0.00     0.217 HD
ENDBRANCH  18  24
ENDBRANCH   1  14
TORSDOF 5
