REMARK  3 active torsions:
REMARK  status: ('A' for Active; 'I' for Inactive)
REMARK    1  A    between atoms: C1_1  and  C2_2 
REMARK    2  A    between atoms: C4_4  and  O3_9 
REMARK    3  A    between atoms: O3_9  and  C7_10 
ROOT
ATOM      1  C2  <0> d          -3.985   1.185   2.627  0.00  0.00     0.056 A 
ATOM      2  C3  <0> d          -2.704   1.576   2.482  0.00  0.00    -0.022 A 
ATOM      3  C4  <0> d          -1.970   1.165   1.348  0.00  0.00     0.076 A 
ATOM      4  C5  <0> d          -2.595   0.368   0.405  0.00  0.00     0.022 A 
ATOM      5  C6  <0> d          -3.927  -0.009   0.615  0.00  0.00     0.290 A 
ATOM      6  O1  <0> d          -4.495  -0.715  -0.202  0.00  0.00    -0.260 OA
ATOM      7  O2  <0> d          -4.582   0.409   1.711  0.00  0.00    -0.280 OA
ATOM      8  H4  <0> d          -2.241   2.202   3.230  0.00  0.00     0.091 H 
ATOM      9  H5  <0> d          -2.063   0.040  -0.476  0.00  0.00     0.097 H 
ENDROOT
BRANCH   3  10
ATOM     10  O3  <0> d          -0.682   1.547   1.184  0.00  0.00    -0.356 OA
BRANCH  10  11
ATOM     11  C7  <0> d          -0.013   1.086   0.008  0.00  0.00     0.010 C 
ATOM     12  H6  <0> d           0.002  -0.004   0.002  0.00  0.00     0.066 H 
ATOM     13  H7  <0> d           1.010   1.463   0.000  0.00  0.00     0.066 H 
ATOM     14  H8  <0> d          -0.540   1.447  -0.875  0.00  0.00     0.066 H 
ENDBRANCH  10  11
ENDBRANCH   3  10
BRANCH   1  15
ATOM     15  C1  <0> d          -4.761   1.629   3.841  0.00  0.00    -0.031 C 
ATOM     16  H1  <0> d          -5.261   2.574   3.627  0.00  0.00     0.036 H 
ATOM     17  H2  <0> d          -5.505   0.873   4.093  0.00  0.00     0.036 H 
ATOM     18  H3  <0> d          -4.078   1.761   4.680  0.00  0.00     0.036 H 
ENDBRANCH   1  15
TORSDOF 3
