REMARK  5 active torsions:
REMARK  status: ('A' for Active; 'I' for Inactive)
REMARK    1  A    between atoms: C3_3  and  N1_11 
REMARK    2  A    between atoms: C5_5  and  O1_7 
REMARK    3  A    between atoms: O1_7  and  C7_8 
REMARK    4  A    between atoms: C7_8  and  C8_9 
REMARK    5  A    between atoms: C8_9  and  O2_10 
ROOT
ATOM      1  C1  <0> d          -0.545  -4.051  -0.067  0.00  0.00    -0.078 A 
ATOM      2  C2  <0> d          -1.809  -4.600  -0.169  0.00  0.00    -0.058 A 
ATOM      3  C3  <0> d          -2.922  -3.773  -0.250  0.00  0.00     0.028 A 
ATOM      4  C4  <0> d          -2.763  -2.394  -0.229  0.00  0.00    -0.026 A 
ATOM      5  C5  <0> d          -1.494  -1.847  -0.127  0.00  0.00     0.070 A 
ATOM      6  C6  <0> d          -0.385  -2.679  -0.051  0.00  0.00    -0.051 A 
ATOM      7  H1  <0> d           0.319  -4.696  -0.004  0.00  0.00     0.083 H 
ATOM      8  H2  <0> d          -1.931  -5.673  -0.185  0.00  0.00     0.086 H 
ATOM      9  H3  <0> d          -3.627  -1.749  -0.292  0.00  0.00     0.091 H 
ATOM     10  H4  <0> d           0.605  -2.252   0.024  0.00  0.00     0.087 H 
ENDROOT
BRANCH   5  11
ATOM     11  O1  <0> d          -1.335  -0.498  -0.105  0.00  0.00    -0.349 OA
BRANCH  11  12
ATOM     12  C7  <0> d           0.002  -0.004   0.002  0.00  0.00     0.045 C 
ATOM     13  H5  <0> d           0.588  -0.355  -0.847  0.00  0.00     0.078 H 
ATOM     14  H6  <0> d           0.450  -0.366   0.927  0.00  0.00     0.078 H 
BRANCH  12  15
ATOM     15  C8  <0> d          -0.019   1.526   0.010  0.00  0.00     0.037 C 
ATOM     16  H7  <0> d           1.004   1.903   0.003  0.00  0.00     0.077 H 
ATOM     17  H8  <0> d          -0.546   1.887  -0.873  0.00  0.00     0.077 H 
BRANCH  15  18
ATOM     18  O2  <0> d          -0.688   1.987   1.186  0.00  0.00    -0.399 OA
ATOM     19  H9  <0> d          -0.738   2.950   1.258  0.00  0.00     0.209 HD
ENDBRANCH  15  18
ENDBRANCH  12  15
ENDBRANCH  11  12
ENDBRANCH   5  11
BRANCH   3  20
ATOM     20  N1  <0> d          -4.200  -4.328  -0.354  0.00  0.00    -0.399 N 
ATOM     21  H10 <0> d          -4.976  -3.750  -0.411  0.00  0.00     0.156 HD
ATOM     22  H11 <0> d          -4.310  -5.292  -0.369  0.00  0.00     0.156 HD
ENDBRANCH   3  20
TORSDOF 5
