REMARK  3 active torsions:
REMARK  status: ('A' for Active; 'I' for Inactive)
REMARK    1  A    between atoms: C1_1  and  N1_2 
REMARK    2  A    between atoms: C5_6  and  C6_7 
REMARK    3  A    between atoms: C6_7  and  O1_8 
ROOT
ATOM      1  N1  <0> d          -1.128   1.860   0.017  0.00  0.00    -0.363 N 
ATOM      2  C2  <0> d          -0.013   1.076   0.008  0.00  0.00    -0.021 A 
ATOM      3  C3  <0> d           1.069   1.881   0.002  0.00  0.00    -0.066 A 
ATOM      4  C4  <0> d           0.605   3.211   0.013  0.00  0.00    -0.058 A 
ATOM      5  C5  <0> d          -0.743   3.168   0.026  0.00  0.00     0.034 A 
ATOM      6  H4  <0> d           0.002  -0.004   0.002  0.00  0.00     0.111 H 
ATOM      7  H5  <0> d           2.102   1.565  -0.009  0.00  0.00     0.085 H 
ATOM      8  H6  <0> d           1.216   4.102   0.012  0.00  0.00     0.086 H 
ENDROOT
BRANCH   5   9
ATOM      9  C6  <0> d          -1.665   4.360   0.042  0.00  0.00     0.054 C 
ATOM     10  H7  <0> d          -2.303   4.338  -0.842  0.00  0.00     0.083 H 
ATOM     11  H8  <0> d          -2.285   4.328   0.938  0.00  0.00     0.083 H 
BRANCH   9  12
ATOM     12  O1  <0> d          -0.891   5.561   0.041  0.00  0.00    -0.395 OA
ATOM     13  H9  <0> d          -1.421   6.370   0.050  0.00  0.00     0.209 HD
ENDBRANCH   9  12
ENDBRANCH   5   9
BRANCH   1  14
ATOM     14  C1  <0> d          -2.511   1.377   0.020  0.00  0.00    -0.015 C 
ATOM     15  H1  <0> d          -2.850   1.252   1.048  0.00  0.00     0.057 H 
ATOM     16  H2  <0> d          -3.149   2.100  -0.488  0.00  0.00     0.057 H 
ATOM     17  H3  <0> d          -2.563   0.420  -0.498  0.00  0.00     0.057 H 
ENDBRANCH   1  14
TORSDOF 3
