REMARK  1 active torsions:
REMARK  status: ('A' for Active; 'I' for Inactive)
REMARK    1  A    between atoms: C1_1  and  C2_2 
ROOT
ATOM      1  C2  <0> d           0.002  -0.004   0.002  0.00  0.00    -0.046 A 
ATOM      2  C3  <0> d           0.022  -0.690   1.177  0.00  0.00    -0.056 A 
ATOM      3  C4  <0> d           0.041  -2.093   1.183  0.00  0.00     0.047 A 
ATOM      4  C5  <0> d           0.038  -2.800  -0.016  0.00  0.00    -0.035 A 
ATOM      5  C6  <0> d           0.018  -2.108  -1.220  0.00  0.00     0.063 A 
ATOM      6  C7  <0> d          -0.006  -0.698  -1.217  0.00  0.00     0.017 A 
ATOM      7  C8  <0> d          -0.018  -0.285  -2.570  0.00  0.00     0.034 A 
ATOM      8  N1  <0> d          -0.012  -1.343  -3.329  0.00  0.00    -0.186 NA
ATOM      9  N2  <0> d           0.011  -2.496  -2.536  0.00  0.00    -0.278 N 
ATOM     10  H1  <0> d           0.020  -3.439  -2.871  0.00  0.00     0.189 HD
ATOM     11  C9  <0> d           0.061  -2.801   2.428  0.00  0.00     0.099 C 
ATOM     12  N3  <0> d           0.077  -3.362   3.415  0.00  0.00    -0.191 NA
ATOM     13  H5  <0> d           0.024  -0.150   2.112  0.00  0.00     0.086 H 
ATOM     14  H6  <0> d           0.053  -3.879  -0.010  0.00  0.00     0.089 H 
ATOM     15  H7  <0> d          -0.035   0.738  -2.916  0.00  0.00     0.118 H 
ENDROOT
BRANCH   1  16
ATOM     16  C1  <0> d          -0.018   1.503   0.010  0.00  0.00    -0.050 C 
ATOM     17  H2  <0> d           1.004   1.880   0.003  0.00  0.00     0.033 H 
ATOM     18  H3  <0> d          -0.545   1.864  -0.873  0.00  0.00     0.033 H 
ATOM     19  H4  <0> d          -0.529   1.854   0.907  0.00  0.00     0.033 H 
ENDBRANCH   1  16
TORSDOF 1
