REMARK  0 active torsions:
REMARK  status: ('A' for Active; 'I' for Inactive)
ROOT
ATOM      1  C1  <0> d           2.278   1.432  -0.012  0.00  0.00     0.042 A 
ATOM      2  C2  <0> d           2.339   0.045  -0.020  0.00  0.00     0.151 A 
ATOM      3  C3  <0> d           1.147  -0.667  -0.013  0.00  0.00     0.042 A 
ATOM      4  N1  <0> d           0.002  -0.004   0.002  0.00  0.00    -0.251 NA
ATOM      5  C4  <0> d          -0.016   1.314   0.009  0.00  0.00     0.086 A 
ATOM      6  N2  <0> d           1.095   2.024   0.003  0.00  0.00    -0.251 NA
ATOM      7  F1  <0> d           3.528  -0.596  -0.035  0.00  0.00    -0.203 F 
ATOM      8  H1  <0> d           3.184   2.020  -0.018  0.00  0.00     0.119 H 
ATOM      9  H2  <0> d           1.155  -1.747  -0.019  0.00  0.00     0.119 H 
ATOM     10  H3  <0> d          -0.967   1.826   0.017  0.00  0.00     0.146 H 
ENDROOT
TORSDOF 0
