REMARK  2 active torsions:
REMARK  status: ('A' for Active; 'I' for Inactive)
REMARK    1  A    between atoms: C1_1  and  C2_2 
REMARK    2  A    between atoms: C3_4  and  N5_12 
ROOT
ATOM      1  C2  <0> d           1.142  -0.660  -0.012  0.00  0.00     0.127 A 
ATOM      2  N1  <0> d           2.314  -0.051  -0.020  0.00  0.00    -0.216 NA
ATOM      3  C3  <0> d           2.401   1.275  -0.014  0.00  0.00     0.139 A 
ATOM      4  C4  <0> d           1.208   2.024   0.001  0.00  0.00     0.076 A 
ATOM      5  C5  <0> d           0.901   3.402   0.011  0.00  0.00     0.039 A 
ATOM      6  N2  <0> d          -0.394   3.535   0.024  0.00  0.00    -0.184 NA
ATOM      7  N3  <0> d          -0.999   2.272   0.018  0.00  0.00    -0.261 N 
ATOM      8  H1  <0> d          -1.983   2.094   0.021  0.00  0.00     0.191 HD
ATOM      9  C6  <0> d          -0.016   1.328   0.009  0.00  0.00     0.161 A 
ATOM     10  N4  <0> d           0.002  -0.004   0.002  0.00  0.00    -0.214 NA
ATOM     11  H5  <0> d           1.619   4.208   0.009  0.00  0.00     0.119 H 
ENDROOT
BRANCH   1  12
ATOM     12  C1  <0> d           1.109  -2.166  -0.021  0.00  0.00    -0.019 C 
ATOM     13  H2  <0> d           1.092  -2.524  -1.050  0.00  0.00     0.037 H 
ATOM     14  H3  <0> d           1.996  -2.552   0.483  0.00  0.00     0.037 H 
ATOM     15  H4  <0> d           0.216  -2.513   0.499  0.00  0.00     0.037 H 
ENDBRANCH   1  12
BRANCH   3  16
ATOM     16  N5  <0> d           3.631   1.903  -0.022  0.00  0.00    -0.383 N 
ATOM     17  H6  <0> d           4.445   1.376  -0.033  0.00  0.00     0.157 HD
ATOM     18  H7  <0> d           3.681   2.872  -0.018  0.00  0.00     0.157 HD
ENDBRANCH   3  16
TORSDOF 2
