REMARK  1 active torsions:
REMARK  status: ('A' for Active; 'I' for Inactive)
REMARK    1  A    between atoms: C3_4  and  C4_7 
ROOT
ATOM      1  C1  <0> d          -0.017   1.364   0.009  0.00  0.00    -0.004 A 
ATOM      2  C2  <0> d           1.268   1.778  -0.001  0.00  0.00     0.019 A 
ATOM      3  N1  <0> d           2.059   0.700  -0.014  0.00  0.00    -0.239 NA
ATOM      4  C3  <0> d           1.314  -0.385  -0.013  0.00  0.00     0.163 A 
ATOM      5  N2  <0> d           0.002  -0.004   0.002  0.00  0.00    -0.347 N 
ATOM      6  H1  <0> d          -0.770  -0.592   0.007  0.00  0.00     0.167 HD
ATOM      7  H2  <0> d          -0.893   1.994   0.025  0.00  0.00     0.113 H 
ATOM      8  H3  <0> d           1.601   2.805   0.002  0.00  0.00     0.117 H 
ENDROOT
BRANCH   4   9
ATOM      9  C4  <0> d           1.809  -1.772  -0.025  0.00  0.00     0.143 A 
ATOM     10  S1  <0> d           3.492  -2.376  -0.044  0.00  0.00    -0.077 SA
ATOM     11  C6  <0> d           3.098  -4.120  -0.050  0.00  0.00    -0.026 A 
ATOM     12  C5  <0> d           1.738  -4.070  -0.043  0.00  0.00     0.010 A 
ATOM     13  H5  <0> d           3.756  -4.976  -0.059  0.00  0.00     0.097 H 
ATOM     14  N3  <0> d           1.127  -2.911  -0.031  0.00  0.00    -0.249 NA
ATOM     15  H4  <0> d           1.163  -4.985  -0.048  0.00  0.00     0.115 H 
ENDBRANCH   4   9
TORSDOF 1
