REMARK  3 active torsions:
REMARK  status: ('A' for Active; 'I' for Inactive)
REMARK    1  A    between atoms: C1_1  and  C2_2 
REMARK    2  A    between atoms: C2_2  and  C3_3 
REMARK       I    between atoms: C3_3  and  N1_5 
REMARK    3  A    between atoms: N1_5  and  C4_6 
ROOT
ATOM      1  C3  <0> d          -0.014   1.209   0.009  0.00  0.00     0.223 C 
ATOM      2  O1  <0> d           0.002  -0.004   0.002  0.00  0.00    -0.273 OA
ATOM      3  N1  <0> d          -1.191   1.867   0.018  0.00  0.00    -0.306 N 
ATOM      4  H6  <0> d          -1.204   2.837   0.023  0.00  0.00     0.171 HD
ENDROOT
BRANCH   1   5
ATOM      5  C2  <0> d           1.280   1.980   0.001  0.00  0.00     0.006 C 
ATOM      6  H4  <0> d           1.321   2.612  -0.887  0.00  0.00     0.046 H 
ATOM      7  H5  <0> d           1.338   2.602   0.893  0.00  0.00     0.046 H 
BRANCH   5   8
ATOM      8  C1  <0> d           2.457   1.002  -0.016  0.00  0.00    -0.068 C 
ATOM      9  H1  <0> d           3.393   1.559  -0.022  0.00  0.00     0.028 H 
ATOM     10  H2  <0> d           2.416   0.369   0.871  0.00  0.00     0.028 H 
ATOM     11  H3  <0> d           2.399   0.379  -0.909  0.00  0.00     0.028 H 
ENDBRANCH   5   8
ENDBRANCH   1   5
BRANCH   3  12
ATOM     12  C4  <0> d          -2.385   1.155   0.020  0.00  0.00     0.172 A 
ATOM     13  S1  <0> d          -4.013   1.758   0.031  0.00  0.00    -0.062 SA
ATOM     14  C6  <0> d          -4.846   0.177   0.026  0.00  0.00    -0.025 A 
ATOM     15  C5  <0> d          -3.785  -0.667   0.016  0.00  0.00     0.011 A 
ATOM     16  H8  <0> d          -5.903  -0.046   0.029  0.00  0.00     0.097 H 
ATOM     17  N2  <0> d          -2.572  -0.150   0.008  0.00  0.00    -0.236 NA
ATOM     18  H7  <0> d          -3.930  -1.737   0.011  0.00  0.00     0.115 H 
ENDBRANCH   3  12
TORSDOF 3
