REMARK  2 active torsions:
REMARK  status: ('A' for Active; 'I' for Inactive)
REMARK    1  A    between atoms: C1_1  and  C2_2 
REMARK    2  A    between atoms: C5_5  and  N2_9 
ROOT
ATOM      1  C2  <0> d          -0.718   1.572   1.248  0.00  0.00     0.034 A 
ATOM      2  C3  <0> d           0.010   1.802   2.399  0.00  0.00    -0.057 A 
ATOM      3  C4  <0> d          -0.644   2.250   3.537  0.00  0.00    -0.051 A 
ATOM      4  C5  <0> d          -2.019   2.451   3.474  0.00  0.00     0.084 A 
ATOM      5  C6  <0> d          -2.684   2.197   2.277  0.00  0.00     0.236 A 
ATOM      6  N1  <0> d          -2.021   1.776   1.217  0.00  0.00    -0.224 NA
ATOM      7  F1  <0> d          -4.019   2.388   2.200  0.00  0.00    -0.182 F 
ATOM      8  H4  <0> d           1.077   1.636   2.413  0.00  0.00     0.086 H 
ATOM      9  H5  <0> d          -0.099   2.438   4.450  0.00  0.00     0.087 H 
ENDROOT
BRANCH   1  10
ATOM     10  C1  <0> d          -0.013   1.086   0.008  0.00  0.00    -0.035 C 
ATOM     11  H1  <0> d           0.002  -0.004   0.002  0.00  0.00     0.035 H 
ATOM     12  H2  <0> d           1.010   1.463   0.000  0.00  0.00     0.035 H 
ATOM     13  H3  <0> d          -0.540   1.447  -0.875  0.00  0.00     0.035 H 
ENDBRANCH   1  10
BRANCH   4  14
ATOM     14  N2  <0> d          -2.723   2.902   4.595  0.00  0.00    -0.395 N 
ATOM     15  H6  <0> d          -2.252   3.077   5.425  0.00  0.00     0.156 HD
ATOM     16  H7  <0> d          -3.682   3.039   4.543  0.00  0.00     0.156 HD
ENDBRANCH   4  14
TORSDOF 2
