REMARK  5 active torsions:
REMARK  status: ('A' for Active; 'I' for Inactive)
REMARK    1  A    between atoms: C1_1  and  C2_2 
REMARK    2  A    between atoms: C2_2  and  C3_3 
REMARK    3  A    between atoms: C4_4  and  C5_5 
REMARK    4  A    between atoms: C5_5  and  C6_6 
REMARK    5  A    between atoms: C6_6  and  O1_7 
ROOT
ATOM      1  C3  <0> d           3.547   4.194  -0.009  0.00  0.00    -0.107 C 
ATOM      2  C4  <0> d           2.481   3.702  -0.002  0.00  0.00    -0.104 C 
ENDROOT
BRANCH   2   3
ATOM      3  C5  <0> d           1.145   3.085   0.008  0.00  0.00     0.010 C 
ATOM      4  H6  <0> d           0.591   3.404  -0.875  0.00  0.00     0.055 H 
ATOM      5  H7  <0> d           0.608   3.395   0.904  0.00  0.00     0.055 H 
BRANCH   3   6
ATOM      6  C6  <0> d           1.286   1.562  -0.002  0.00  0.00     0.026 C 
ATOM      7  H8  <0> d           1.840   1.243   0.881  0.00  0.00     0.075 H 
ATOM      8  H9  <0> d           1.823   1.252  -0.899  0.00  0.00     0.075 H 
BRANCH   6   9
ATOM      9  O1  <0> d          -0.011   0.963   0.007  0.00  0.00    -0.400 OA
ATOM     10  H10 <0> d           0.002  -0.004   0.002  0.00  0.00     0.209 HD
ENDBRANCH   6   9
ENDBRANCH   3   6
ENDBRANCH   2   3
BRANCH   1  11
ATOM     11  C2  <0> d           4.884   4.811  -0.019  0.00  0.00    -0.013 C 
ATOM     12  H4  <0> d           4.783   5.896  -0.012  0.00  0.00     0.051 H 
ATOM     13  H5  <0> d           5.437   4.492   0.864  0.00  0.00     0.051 H 
BRANCH  11  14
ATOM     14  C1  <0> d           5.637   4.377  -1.278  0.00  0.00    -0.067 C 
ATOM     15  H1  <0> d           5.738   3.292  -1.284  0.00  0.00     0.028 H 
ATOM     16  H2  <0> d           5.083   4.696  -2.161  0.00  0.00     0.028 H 
ATOM     17  H3  <0> d           6.627   4.834  -1.285  0.00  0.00     0.028 H 
ENDBRANCH  11  14
ENDBRANCH   1  11
TORSDOF 5
