REMARK  2 active torsions:
REMARK  status: ('A' for Active; 'I' for Inactive)
REMARK    1  A    between atoms: C1_1  and  C2_2 
REMARK    2  A    between atoms: C2_2  and  C3_3 
ROOT
ATOM      1  C3  <0> d           0.731  -0.503   1.223  0.00  0.00     0.009 A 
ATOM      2  C4  <0> d           2.072  -0.652   1.334  0.00  0.00    -0.058 A 
ATOM      3  C5  <0> d           2.345  -1.137   2.618  0.00  0.00    -0.045 A 
ATOM      4  C6  <0> d           1.136  -1.272   3.266  0.00  0.00     0.114 A 
ATOM      5  N1  <0> d           0.151  -0.872   2.394  0.00  0.00    -0.351 N 
ATOM      6  H1  <0> d          -0.801  -0.857   2.583  0.00  0.00     0.166 HD
ATOM      7  C7  <0> d           0.942  -1.739   4.606  0.00  0.00     0.117 C 
ATOM      8  N2  <0> d           0.788  -2.109   5.669  0.00  0.00    -0.190 NA
ATOM      9  H7  <0> d           2.801  -0.436   0.567  0.00  0.00     0.086 H 
ATOM     10  H8  <0> d           3.320  -1.363   3.024  0.00  0.00     0.088 H 
ENDROOT
BRANCH   1  11
ATOM     11  C2  <0> d           0.002  -0.004   0.002  0.00  0.00    -0.030 C 
ATOM     12  H5  <0> d          -1.020  -0.381   0.010  0.00  0.00     0.041 H 
ATOM     13  H6  <0> d           0.512  -0.356  -0.895  0.00  0.00     0.041 H 
BRANCH  11  14
ATOM     14  C1  <0> d          -0.019   1.526   0.010  0.00  0.00    -0.071 C 
ATOM     15  H2  <0> d           1.004   1.903   0.003  0.00  0.00     0.028 H 
ATOM     16  H3  <0> d          -0.546   1.887  -0.873  0.00  0.00     0.028 H 
ATOM     17  H4  <0> d          -0.529   1.877   0.907  0.00  0.00     0.028 H 
ENDBRANCH  11  14
ENDBRANCH   1  11
TORSDOF 2
