REMARK  0 active torsions:
REMARK  status: ('A' for Active; 'I' for Inactive)
ROOT
ATOM      1  C1  <0> d          -1.202   1.720   0.017  0.00  0.00    -0.064 A 
ATOM      2  C2  <0> d          -1.266   3.116   0.030  0.00  0.00    -0.058 A 
ATOM      3  C3  <0> d          -0.086   3.851   0.023  0.00  0.00     0.094 A 
ATOM      4  C4  <0> d           1.182   3.123   0.008  0.00  0.00     0.196 A 
ATOM      5  N1  <0> d           2.450   3.489  -0.003  0.00  0.00    -0.107 NA
ATOM      6  N2  <0> d           3.212   2.453  -0.015  0.00  0.00    -0.022 NA
ATOM      7  N3  <0> d           2.511   1.370  -0.015  0.00  0.00    -0.040 NA
ATOM      8  N4  <0> d           1.163   1.754   0.000  0.00  0.00    -0.204 N 
ATOM      9  C5  <0> d          -0.013   1.076   0.008  0.00  0.00     0.008 A 
ATOM     10  C6  <0> d          -0.112   5.283   0.031  0.00  0.00     0.103 C 
ATOM     11  N5  <0> d          -0.133   6.418   0.036  0.00  0.00    -0.191 NA
ATOM     12  H1  <0> d          -2.116   1.146   0.018  0.00  0.00     0.085 H 
ATOM     13  H2  <0> d          -2.222   3.618   0.042  0.00  0.00     0.086 H 
ATOM     14  H3  <0> d           0.002  -0.004   0.002  0.00  0.00     0.115 H 
ENDROOT
TORSDOF 0
