REMARK  4 active torsions:
REMARK  status: ('A' for Active; 'I' for Inactive)
REMARK    1  A    between atoms: C1_1  and  C2_2 
REMARK    2  A    between atoms: C2_2  and  C3_3 
REMARK    3  A    between atoms: C2_2  and  C4_4 
REMARK    4  A    between atoms: C2_2  and  C5_6 
ROOT
ATOM      1  C2  <0> d          -0.733   1.888   1.268  0.00  0.00     0.138 C 
ENDROOT
BRANCH   1   2
ATOM      2  C1  <0> d          -0.754   3.418   1.277  0.00  0.00    -0.052 C 
ATOM      3  H1  <0> d          -1.281   3.779   0.394  0.00  0.00     0.029 H 
ATOM      4  H2  <0> d          -1.264   3.770   2.174  0.00  0.00     0.029 H 
ATOM      5  H3  <0> d           0.269   3.795   1.269  0.00  0.00     0.029 H 
ENDBRANCH   1   2
BRANCH   1   6
ATOM      6  C3  <0> d          -2.168   1.359   1.279  0.00  0.00    -0.052 C 
ATOM      7  H4  <0> d          -2.154   0.269   1.273  0.00  0.00     0.029 H 
ATOM      8  H5  <0> d          -2.679   1.710   2.176  0.00  0.00     0.029 H 
ATOM      9  H6  <0> d          -2.696   1.720   0.396  0.00  0.00     0.029 H 
ENDBRANCH   1   6
BRANCH   1  10
ATOM     10  C4  <0> d          -0.004   1.389   2.489  0.00  0.00     0.190 C 
ATOM     11  O1  <0> d           0.986   0.708   2.365  0.00  0.00    -0.647 OA
ATOM     12  O2  <0> d          -0.456   1.700   3.715  0.00  0.00    -0.647 OA
ENDBRANCH   1  10
BRANCH   1  13
ATOM     13  C5  <0> d          -0.017   1.395   0.010  0.00  0.00     0.404 C 
ATOM     14  F1  <0> d           0.002  -0.004   0.002  0.00  0.00    -0.170 F 
ATOM     15  F2  <0> d           1.296   1.879  -0.000  0.00  0.00    -0.170 F 
ATOM     16  F3  <0> d          -0.694   1.858  -1.124  0.00  0.00    -0.170 F 
ENDBRANCH   1  13
TORSDOF 4
