REMARK  1 active torsions:
REMARK  status: ('A' for Active; 'I' for Inactive)
REMARK    1  A    between atoms: C4_4  and  N1_8 
ROOT
ATOM      1  C1  <0> d          -1.215   1.749   0.017  0.00  0.00    -0.060 A 
ATOM      2  C2  <0> d          -0.013   1.076   0.008  0.00  0.00    -0.059 A 
ATOM      3  C3  <0> d           1.187   1.792   0.000  0.00  0.00     0.070 A 
ATOM      4  C4  <0> d           1.158   3.196   0.008  0.00  0.00     0.048 A 
ATOM      5  C5  <0> d          -0.062   3.857   0.024  0.00  0.00    -0.035 A 
ATOM      6  C6  <0> d          -1.241   3.136   0.031  0.00  0.00     0.036 A 
ATOM      7 Cl1  <0> d          -2.763   3.970   0.050  0.00  0.00    -0.084 Cl
ATOM      8  C7  <0> d           2.440   1.097  -0.016  0.00  0.00     0.101 C 
ATOM      9  N2  <0> d           3.433   0.547  -0.029  0.00  0.00    -0.191 NA
ATOM     10  H1  <0> d          -2.141   1.194   0.018  0.00  0.00     0.086 H 
ATOM     11  H2  <0> d           0.002  -0.004   0.002  0.00  0.00     0.086 H 
ATOM     12  H3  <0> d          -0.090   4.937   0.029  0.00  0.00     0.089 H 
ENDROOT
BRANCH   4  13
ATOM     13  N1  <0> d           2.345   3.919   0.001  0.00  0.00    -0.398 N 
ATOM     14  H4  <0> d           3.196   3.454  -0.009  0.00  0.00     0.156 HD
ATOM     15  H5  <0> d           2.322   4.889   0.007  0.00  0.00     0.156 HD
ENDBRANCH   4  13
TORSDOF 1
