REMARK  2 active torsions:
REMARK  status: ('A' for Active; 'I' for Inactive)
REMARK    1  A    between atoms: C1_1  and  C2_2 
REMARK    2  A    between atoms: C5_7  and  O3_9 
ROOT
ATOM      1  C2  <0> d          -0.718   1.572   1.248  0.00  0.00    -0.023 A 
ATOM      2  C3  <0> d          -2.019   1.823   1.372  0.00  0.00    -0.004 A 
ATOM      3  C4  <0> d          -2.302   2.274   2.737  0.00  0.00     0.285 A 
ATOM      4  O1  <0> d          -3.402   2.577   3.158  0.00  0.00    -0.260 OA
ATOM      5  O2  <0> d          -1.164   2.308   3.455  0.00  0.00    -0.282 OA
ATOM      6  C5  <0> d          -0.082   1.873   2.585  0.00  0.00     0.160 A 
ATOM      7  H1  <0> d           0.657   2.667   2.479  0.00  0.00     0.137 H 
ATOM      8  H5  <0> d          -2.753   1.710   0.588  0.00  0.00     0.093 H 
ENDROOT
BRANCH   1   9
ATOM      9  C1  <0> d          -0.013   1.086   0.008  0.00  0.00    -0.050 C 
ATOM     10  H2  <0> d           0.002  -0.004   0.002  0.00  0.00     0.033 H 
ATOM     11  H3  <0> d           1.010   1.463   0.000  0.00  0.00     0.033 H 
ATOM     12  H4  <0> d          -0.540   1.447  -0.875  0.00  0.00     0.033 H 
ENDBRANCH   1   9
BRANCH   6  13
ATOM     13  O3  <0> d           0.533   0.696   3.113  0.00  0.00    -0.367 OA
ATOM     14  H6  <0> d           0.959   0.827   3.971  0.00  0.00     0.213 HD
ENDBRANCH   6  13
TORSDOF 2
