REMARK  1 active torsions:
REMARK  status: ('A' for Active; 'I' for Inactive)
REMARK    1  A    between atoms: C9_10  and  O1_11 
ROOT
ATOM      1  C1  <0> d          -1.237   3.147   0.032  0.00  0.00    -0.050 A 
ATOM      2  C2  <0> d          -0.088   3.877   0.024  0.00  0.00    -0.068 A 
ATOM      3  C3  <0> d           1.151   3.218   0.009  0.00  0.00    -0.008 A 
ATOM      4  C4  <0> d           2.367   3.920  -0.000  0.00  0.00     0.013 A 
ATOM      5  N1  <0> d           3.502   3.261  -0.015  0.00  0.00    -0.272 NA
ATOM      6  C5  <0> d           3.565   1.937  -0.022  0.00  0.00     0.003 A 
ATOM      7  C6  <0> d           2.444   1.164  -0.016  0.00  0.00    -0.055 A 
ATOM      8  C7  <0> d           1.187   1.798   0.000  0.00  0.00    -0.021 A 
ATOM      9  C8  <0> d          -0.013   1.076   0.008  0.00  0.00    -0.040 A 
ATOM     10  C9  <0> d          -1.203   1.749   0.017  0.00  0.00     0.066 A 
ATOM     11  H1  <0> d          -2.190   3.656   0.044  0.00  0.00     0.087 H 
ATOM     12  H2  <0> d          -0.130   4.956   0.030  0.00  0.00     0.085 H 
ATOM     13  H3  <0> d           2.368   5.000   0.005  0.00  0.00     0.116 H 
ATOM     14  H4  <0> d           4.532   1.457  -0.035  0.00  0.00     0.114 H 
ATOM     15  H5  <0> d           2.517   0.087  -0.022  0.00  0.00     0.087 H 
ATOM     16  H6  <0> d           0.002  -0.004   0.002  0.00  0.00     0.089 H 
ENDROOT
BRANCH  10  17
ATOM     17  O1  <0> d          -2.368   1.051   0.018  0.00  0.00    -0.361 OA
ATOM     18  H7  <0> d          -2.350  -0.049   0.007  0.00  0.00     0.217 HD
ENDBRANCH  10  17
TORSDOF 1
