REMARK  0 active torsions:
REMARK  status: ('A' for Active; 'I' for Inactive)
ROOT
ATOM      1  C1  <0> d          -0.013   1.086   0.008  0.00  0.00    -0.061 C 
ATOM      2  C2  <0> d          -0.740   1.584   1.255  0.00  0.00    -0.058 C 
ATOM      3  C3  <0> d          -1.941   2.423   0.904  0.00  0.00    -0.016 C 
ATOM      4  H1  <0> d          -2.429   2.770   1.815  0.00  0.00     0.045 H 
ATOM      5  C4  <0> d          -2.957   1.695  -0.005  0.00  0.00     0.036 C 
ATOM      6  H2  <0> d          -3.589   0.989   0.534  0.00  0.00     0.056 H 
ATOM      7  C5  <0> d          -2.199   1.070  -1.186  0.00  0.00    -0.049 C 
ATOM      8  C6  <0> d          -0.765   1.599  -1.222  0.00  0.00    -0.051 C 
ATOM      9  H3  <0> d          -0.265   1.252  -2.126  0.00  0.00     0.040 H 
ATOM     10  C7  <0> d          -0.778   3.128  -1.197  0.00  0.00    -0.036 C 
ATOM     11  C8  <0> d          -1.611   3.625  -0.006  0.00  0.00     0.052 C 
ATOM     12  H4  <0> d          -1.130   4.443   0.531  0.00  0.00     0.084 H 
ATOM     13  O1  <0> d          -2.934   3.973  -0.549  0.00  0.00    -0.315 OA
ATOM     14  C9  <0> d          -3.727   2.886  -0.578  0.00  0.00     0.263 C 
ATOM     15  O2  <0> d          -4.863   2.856  -0.990  0.00  0.00    -0.265 OA
ATOM     16  H5  <0> d           0.002  -0.004   0.002  0.00  0.00     0.033 H 
ATOM     17  H6  <0> d           1.008   1.468   0.000  0.00  0.00     0.033 H 
ATOM     18  H7  <0> d          -1.065   0.726   1.843  0.00  0.00     0.033 H 
ATOM     19  H8  <0> d          -0.051   2.182   1.852  0.00  0.00     0.033 H 
ATOM     20  H9  <0> d          -2.704   1.329  -2.117  0.00  0.00     0.034 H 
ATOM     21  H10 <0> d          -2.183  -0.014  -1.074  0.00  0.00     0.034 H 
ATOM     22  H11 <0> d           0.244   3.497  -1.104  0.00  0.00     0.037 H 
ATOM     23  H12 <0> d          -1.213   3.501  -2.124  0.00  0.00     0.037 H 
ENDROOT
TORSDOF 0
