REMARK  8 active torsions:
REMARK  status: ('A' for Active; 'I' for Inactive)
REMARK    1  A    between atoms: C1_1  and  C2_2 
REMARK    2  A    between atoms: C2_2  and  C3_3 
REMARK    3  A    between atoms: C3_3  and  O1_4 
REMARK    4  A    between atoms: C3_3  and  O2_7 
REMARK    5  A    between atoms: O1_4  and  C4_5 
REMARK    6  A    between atoms: C4_5  and  C5_6 
REMARK    7  A    between atoms: O2_7  and  C6_8 
REMARK    8  A    between atoms: C6_8  and  C7_9 
ROOT
ATOM      1  C3  <0> d           0.067   1.035   0.157  0.00  0.00     0.130 C 
ATOM      2  H6  <0> d           0.163  -0.003   0.474  0.00  0.00     0.128 H 
ENDROOT
BRANCH   1   3
ATOM      3  C2  <0> d          -0.913   1.762   1.080  0.00  0.00    -0.022 C 
ATOM      4  H4  <0> d          -1.887   1.275   1.032  0.00  0.00     0.039 H 
ATOM      5  H5  <0> d          -0.540   1.728   2.104  0.00  0.00     0.039 H 
BRANCH   3   6
ATOM      6  C1  <0> d          -1.049   3.219   0.635  0.00  0.00    -0.072 C 
ATOM      7  H1  <0> d          -1.746   3.737   1.293  0.00  0.00     0.027 H 
ATOM      8  H2  <0> d          -0.075   3.706   0.683  0.00  0.00     0.027 H 
ATOM      9  H3  <0> d          -1.422   3.253  -0.389  0.00  0.00     0.027 H 
ENDBRANCH   3   6
ENDBRANCH   1   3
BRANCH   1  10
ATOM     10  O1  <0> d           1.343   1.673   0.220  0.00  0.00    -0.362 OA
BRANCH  10  11
ATOM     11  C4  <0> d           2.439   0.815  -0.105  0.00  0.00     0.019 C 
ATOM     12  H7  <0> d           2.396  -0.079   0.516  0.00  0.00     0.073 H 
ATOM     13  H8  <0> d           2.378   0.531  -1.156  0.00  0.00     0.073 H 
BRANCH  11  14
ATOM     14  C5  <0> d           3.756   1.551   0.149  0.00  0.00    -0.056 C 
ATOM     15  H9  <0> d           3.799   2.445  -0.472  0.00  0.00     0.030 H 
ATOM     16  H10 <0> d           3.816   1.835   1.200  0.00  0.00     0.030 H 
ATOM     17  H11 <0> d           4.592   0.896  -0.099  0.00  0.00     0.030 H 
ENDBRANCH  11  14
ENDBRANCH  10  11
ENDBRANCH   1  10
BRANCH   1  18
ATOM     18  O2  <0> d          -0.422   1.079  -1.185  0.00  0.00    -0.362 OA
BRANCH  18  19
ATOM     19  C6  <0> d           0.220   0.158  -2.069  0.00  0.00     0.019 C 
ATOM     20  H12 <0> d           1.262   0.448  -2.201  0.00  0.00     0.073 H 
ATOM     21  H13 <0> d           0.173  -0.845  -1.645  0.00  0.00     0.073 H 
BRANCH  19  22
ATOM     22  C7  <0> d          -0.489   0.172  -3.424  0.00  0.00    -0.056 C 
ATOM     23  H14 <0> d          -1.532  -0.118  -3.292  0.00  0.00     0.030 H 
ATOM     24  H15 <0> d          -0.442   1.175  -3.849  0.00  0.00     0.030 H 
ATOM     25  H16 <0> d           0.001  -0.531  -4.098  0.00  0.00     0.030 H 
ENDBRANCH  19  22
ENDBRANCH  18  19
ENDBRANCH   1  18
TORSDOF 8
