REMARK  1 active torsions:
REMARK  status: ('A' for Active; 'I' for Inactive)
REMARK    1  A    between atoms: C3_3  and  C6_8 
ROOT
ATOM      1  C6  <0> d           3.696   2.051  -0.023  0.00  0.00     0.041 C 
ATOM      2  C7  <0> d           4.256   2.062   1.339  0.00  0.00     0.063 C 
ATOM      3  N2  <0> d           4.688   2.070   2.389  0.00  0.00    -0.197 NA
ATOM      4  H4  <0> d           4.380   1.530  -0.693  0.00  0.00     0.062 H 
ATOM      5  H5  <0> d           3.560   3.077  -0.368  0.00  0.00     0.062 H 
ENDROOT
BRANCH   1   6
ATOM      6  C3  <0> d           2.365   1.344  -0.013  0.00  0.00    -0.005 A 
ATOM      7  C2  <0> d           1.185   2.070   0.002  0.00  0.00    -0.071 A 
ATOM      8  C1  <0> d          -0.017   1.377   0.010  0.00  0.00    -0.065 A 
ATOM      9  H2  <0> d           1.200   3.150   0.007  0.00  0.00     0.084 H 
ATOM     10  C5  <0> d           0.002  -0.004   0.002  0.00  0.00     0.004 A 
ATOM     11  H1  <0> d          -0.955   1.911   0.026  0.00  0.00     0.085 H 
ATOM     12  N1  <0> d           1.144  -0.664  -0.012  0.00  0.00    -0.248 NA
ATOM     13  H3  <0> d          -0.929  -0.550   0.008  0.00  0.00     0.114 H 
ATOM     14  C4  <0> d           2.306  -0.038  -0.020  0.00  0.00     0.132 A 
ATOM     15 Cl1  <0> d           3.777  -0.960  -0.040  0.00  0.00    -0.062 Cl
ENDBRANCH   1   6
TORSDOF 1
