REMARK  4 active torsions:
REMARK  status: ('A' for Active; 'I' for Inactive)
REMARK    1  A    between atoms: C1_1  and  C2_2 
REMARK    2  A    between atoms: C2_2  and  C3_3 
REMARK    3  A    between atoms: C3_3  and  C4_4 
REMARK    4  A    between atoms: C4_4  and  N1_5 
ROOT
ATOM      1  C3  <0> d          -0.753   1.593  -1.232  0.00  0.00    -0.049 C 
ATOM      2  H6  <0> d          -1.775   1.215  -1.224  0.00  0.00     0.035 H 
ATOM      3  H7  <0> d          -0.767   2.683  -1.226  0.00  0.00     0.035 H 
ENDROOT
BRANCH   1   4
ATOM      4  C2  <0> d          -0.037   1.099  -2.490  0.00  0.00    -0.067 C 
ATOM      5  H4  <0> d           0.986   1.476  -2.498  0.00  0.00     0.032 H 
ATOM      6  H5  <0> d          -0.022   0.009  -2.496  0.00  0.00     0.032 H 
BRANCH   4   7
ATOM      7  C1  <0> d          -0.777   1.606  -3.730  0.00  0.00    -0.076 C 
ATOM      8  H1  <0> d          -0.266   1.254  -4.627  0.00  0.00     0.027 H 
ATOM      9  H2  <0> d          -1.799   1.229  -3.722  0.00  0.00     0.027 H 
ATOM     10  H3  <0> d          -0.791   2.696  -3.724  0.00  0.00     0.027 H 
ENDBRANCH   4   7
ENDBRANCH   1   4
BRANCH   1  11
ATOM     11  C4  <0> d          -0.013   1.086   0.008  0.00  0.00     0.018 C 
ATOM     12  H8  <0> d           0.002  -0.004   0.002  0.00  0.00     0.067 H 
ATOM     13  H9  <0> d           1.010   1.463   0.000  0.00  0.00     0.067 H 
BRANCH  11  14
ATOM     14  N1  <0> d          -0.698   1.558   1.213  0.00  0.00    -0.262 N 
ATOM     15  N3  <0> d          -1.003   2.889   1.541  0.00  0.00    -0.165 NA
ATOM     16  C6  <0> d          -1.616   2.863   2.696  0.00  0.00     0.107 A 
ATOM     17  N2  <0> d          -1.704   1.600   3.110  0.00  0.00    -0.234 NA
ATOM     18  H11 <0> d          -1.986   3.726   3.229  0.00  0.00     0.149 H 
ATOM     19  C5  <0> d          -1.156   0.804   2.228  0.00  0.00     0.084 A 
ATOM     20  H10 <0> d          -1.084  -0.271   2.302  0.00  0.00     0.146 H 
ENDBRANCH  11  14
ENDBRANCH   1  11
TORSDOF 4
