REMARK  1 active torsions:
REMARK  status: ('A' for Active; 'I' for Inactive)
REMARK    1  A    between atoms: N1_4  and  N4_10 
ROOT
ATOM      1  C1  <0> d           0.037   3.951   0.023  0.00  0.00     0.088 A 
ATOM      2  C2  <0> d          -1.226   3.207   0.031  0.00  0.00     0.285 A 
ATOM      3  O1  <0> d          -2.289   3.800   0.044  0.00  0.00    -0.265 OA
ATOM      4  N1  <0> d          -1.195   1.859   0.018  0.00  0.00    -0.191 N 
ATOM      5  C3  <0> d          -0.014   1.212   0.009  0.00  0.00     0.360 A 
ATOM      6  O2  <0> d           0.002  -0.004   0.002  0.00  0.00    -0.243 OA
ATOM      7  N2  <0> d           1.147   1.890   0.001  0.00  0.00    -0.227 N 
ATOM      8  H1  <0> d           1.986   1.403  -0.009  0.00  0.00     0.194 HD
ATOM      9  N3  <0> d           1.161   3.290   0.009  0.00  0.00    -0.177 NA
ATOM     10  H2  <0> d           0.037   5.031   0.029  0.00  0.00     0.126 H 
ENDROOT
BRANCH   4  11
ATOM     11  N4  <0> d          -2.362   1.149   0.019  0.00  0.00    -0.236 NA
ATOM     12  H3  <0> d          -3.160   1.766   0.026  0.00  0.00     0.144 HD
ATOM     13  H4  <0> d          -2.402   0.516  -0.766  0.00  0.00     0.144 HD
ENDBRANCH   4  11
TORSDOF 1
