REMARK  1 active torsions:
REMARK  status: ('A' for Active; 'I' for Inactive)
REMARK    1  A    between atoms: C5_5  and  C7_7 
ROOT
ATOM      1  C7  <0> d          -0.018   1.468   0.010  0.00  0.00     0.040 C 
ATOM      2  C8  <0> d           0.002  -0.004   0.002  0.00  0.00     0.063 C 
ATOM      3  N1  <0> d           0.018  -1.140  -0.004  0.00  0.00    -0.197 NA
ATOM      4  H5  <0> d          -0.545   1.829  -0.873  0.00  0.00     0.062 H 
ATOM      5  H6  <0> d          -0.528   1.819   0.907  0.00  0.00     0.062 H 
ENDROOT
BRANCH   1   6
ATOM      6  C5  <0> d           1.396   1.989  -0.001  0.00  0.00    -0.023 A 
ATOM      7  C4  <0> d           2.070   2.137  -1.200  0.00  0.00     0.041 A 
ATOM      8  C3  <0> d           3.368   2.617  -1.209  0.00  0.00    -0.061 A 
ATOM      9 Cl1  <0> d           1.287   1.722  -2.692  0.00  0.00    -0.084 Cl
ATOM     10  C2  <0> d           3.990   2.947  -0.020  0.00  0.00    -0.081 A 
ATOM     11  H3  <0> d           3.894   2.733  -2.145  0.00  0.00     0.086 H 
ATOM     12  C1  <0> d           3.316   2.800   1.178  0.00  0.00    -0.082 A 
ATOM     13  H2  <0> d           5.003   3.322  -0.027  0.00  0.00     0.083 H 
ATOM     14  C6  <0> d           2.018   2.326   1.187  0.00  0.00    -0.074 A 
ATOM     15  H1  <0> d           3.803   3.059   2.107  0.00  0.00     0.083 H 
ATOM     16  H4  <0> d           1.490   2.214   2.123  0.00  0.00     0.084 H 
ENDBRANCH   1   6
TORSDOF 1
