REMARK  0 active torsions:
REMARK  status: ('A' for Active; 'I' for Inactive)
ROOT
ATOM      1  C1  <0> d          -0.018   1.460   0.010  0.00  0.00    -0.038 A 
ATOM      2  C2  <0> d           1.261   1.872   0.000  0.00  0.00    -0.020 A 
ATOM      3  N1  <0> d           2.098   0.793  -0.014  0.00  0.00    -0.363 N 
ATOM      4  H1  <0> d           3.067   0.839  -0.022  0.00  0.00     0.165 HD
ATOM      5  C3  <0> d           1.361  -0.370  -0.013  0.00  0.00     0.083 A 
ATOM      6  C4  <0> d           0.002  -0.004   0.002  0.00  0.00     0.086 A 
ATOM      7  N2  <0> d          -0.946  -0.937   0.005  0.00  0.00    -0.259 NA
ATOM      8  C5  <0> d          -0.648  -2.218  -0.005  0.00  0.00     0.005 A 
ATOM      9  C6  <0> d           0.668  -2.651  -0.019  0.00  0.00    -0.043 A 
ATOM     10  C7  <0> d           1.695  -1.722  -0.023  0.00  0.00     0.064 A 
ATOM     11 Cl1  <0> d           3.355  -2.229  -0.042  0.00  0.00    -0.082 Cl
ATOM     12  H2  <0> d          -0.895   2.090   0.026  0.00  0.00     0.089 H 
ATOM     13  H3  <0> d           1.580   2.904   0.002  0.00  0.00     0.111 H 
ATOM     14  H4  <0> d          -1.445  -2.947  -0.002  0.00  0.00     0.114 H 
ATOM     15  H5  <0> d           0.892  -3.708  -0.027  0.00  0.00     0.088 H 
ENDROOT
TORSDOF 0
