REMARK  5 active torsions:
REMARK  status: ('A' for Active; 'I' for Inactive)
REMARK    1  A    between atoms: C1_1  and  C2_2 
REMARK       I    between atoms: C2_2  and  N1_4 
REMARK    2  A    between atoms: N1_4  and  C3_5 
REMARK    3  A    between atoms: C3_5  and  C4_6 
REMARK    4  A    between atoms: C4_6  and  C5_7 
REMARK    5  A    between atoms: C5_7  and  O2_8 
ROOT
ATOM      1  C3  <0> d           2.422   1.183  -0.015  0.00  0.00    -0.003 C 
ATOM      2  H5  <0> d           2.497   0.553   0.871  0.00  0.00     0.064 H 
ATOM      3  H6  <0> d           2.480   0.562  -0.909  0.00  0.00     0.064 H 
ENDROOT
BRANCH   1   4
ATOM      4  N1  <0> d           1.143   1.898   0.001  0.00  0.00    -0.361 N 
ATOM      5  C2  <0> d          -0.014   1.209   0.009  0.00  0.00     0.213 C 
ATOM      6  O1  <0> d           0.002  -0.004   0.002  0.00  0.00    -0.274 OA
ATOM      7  H4  <0> d           1.130   2.868   0.007  0.00  0.00     0.162 HD
BRANCH   5   8
ATOM      8  C1  <0> d          -1.330   1.944   0.019  0.00  0.00    -0.003 C 
ATOM      9  H1  <0> d          -1.642   2.116   1.049  0.00  0.00     0.040 H 
ATOM     10  H2  <0> d          -1.215   2.901  -0.490  0.00  0.00     0.040 H 
ATOM     11  H3  <0> d          -2.084   1.348  -0.495  0.00  0.00     0.040 H 
ENDBRANCH   5   8
ENDBRANCH   1   4
BRANCH   1  12
ATOM     12  C4  <0> d           3.571   2.193  -0.020  0.00  0.00    -0.031 C 
ATOM     13  H7  <0> d           3.497   2.824  -0.906  0.00  0.00     0.038 H 
ATOM     14  H8  <0> d           3.514   2.814   0.874  0.00  0.00     0.038 H 
BRANCH  12  15
ATOM     15  C5  <0> d           4.907   1.446  -0.037  0.00  0.00     0.018 C 
ATOM     16  H9  <0> d           4.981   0.816   0.849  0.00  0.00     0.074 H 
ATOM     17  H10 <0> d           4.964   0.825  -0.931  0.00  0.00     0.074 H 
BRANCH  15  18
ATOM     18  O2  <0> d           5.980   2.389  -0.042  0.00  0.00    -0.401 OA
ATOM     19  H11 <0> d           6.858   1.986  -0.053  0.00  0.00     0.209 HD
ENDBRANCH  15  18
ENDBRANCH  12  15
ENDBRANCH   1  12
TORSDOF 5
