REMARK  1 active torsions:
REMARK  status: ('A' for Active; 'I' for Inactive)
REMARK    1  A    between atoms: C1_1  and  C2_2 
ROOT
ATOM      1  C2  <0> d          -0.423  -2.211  -0.007  0.00  0.00     0.006 A 
ATOM      2  C3  <0> d           0.915  -2.109  -0.019  0.00  0.00    -0.049 A 
ATOM      3  C4  <0> d           1.236  -0.679  -0.013  0.00  0.00    -0.005 A 
ATOM      4  C5  <0> d           2.429   0.047  -0.020  0.00  0.00    -0.034 A 
ATOM      5  C6  <0> d           2.387   1.425  -0.012  0.00  0.00     0.117 A 
ATOM      6  C7  <0> d           1.167   2.091   0.002  0.00  0.00    -0.043 A 
ATOM      7  C8  <0> d          -0.017   1.387   0.010  0.00  0.00    -0.053 A 
ATOM      8  C9  <0> d           0.002  -0.004   0.002  0.00  0.00     0.043 A 
ATOM      9  N1  <0> d          -0.986  -0.964   0.006  0.00  0.00    -0.359 N 
ATOM     10  H1  <0> d          -1.939  -0.783   0.015  0.00  0.00     0.166 HD
ATOM     11  F1  <0> d           3.539   2.131  -0.019  0.00  0.00    -0.206 F 
ATOM     12  H5  <0> d           1.622  -2.925  -0.031  0.00  0.00     0.087 H 
ATOM     13  H6  <0> d           3.378  -0.468  -0.032  0.00  0.00     0.089 H 
ATOM     14  H7  <0> d           1.147   3.170   0.008  0.00  0.00     0.088 H 
ATOM     15  H8  <0> d          -0.959   1.914   0.017  0.00  0.00     0.087 H 
ENDROOT
BRANCH   1  16
ATOM     16  C1  <0> d          -1.192  -3.508  -0.008  0.00  0.00    -0.037 C 
ATOM     17  H2  <0> d          -1.367  -3.826   1.019  0.00  0.00     0.035 H 
ATOM     18  H3  <0> d          -2.147  -3.363  -0.512  0.00  0.00     0.035 H 
ATOM     19  H4  <0> d          -0.616  -4.271  -0.532  0.00  0.00     0.035 H 
ENDBRANCH   1  16
TORSDOF 1
