REMARK  4 active torsions:
REMARK  status: ('A' for Active; 'I' for Inactive)
REMARK    1  A    between atoms: C1_1  and  C2_2 
REMARK    2  A    between atoms: C2_2  and  C3_3 
REMARK    3  A    between atoms: C2_2  and  C4_4 
REMARK    4  A    between atoms: C4_4  and  C5_5 
REMARK       I    between atoms: C5_5  and  N1_7 
ROOT
ATOM      1  C2  <0> d          -2.479   0.934   0.019  0.00  0.00    -0.053 C 
ATOM      2  H4  <0> d          -2.359   0.247   0.856  0.00  0.00     0.039 H 
ENDROOT
BRANCH   1   3
ATOM      3  C1  <0> d          -3.810   1.677   0.155  0.00  0.00    -0.073 C 
ATOM      4  H1  <0> d          -3.930   2.364  -0.683  0.00  0.00     0.028 H 
ATOM      5  H2  <0> d          -4.629   0.957   0.155  0.00  0.00     0.028 H 
ATOM      6  H3  <0> d          -3.819   2.237   1.089  0.00  0.00     0.028 H 
ENDBRANCH   1   3
BRANCH   1   7
ATOM      7  C3  <0> d          -2.466   0.147  -1.293  0.00  0.00    -0.073 C 
ATOM      8  H5  <0> d          -2.586   0.834  -2.130  0.00  0.00     0.028 H 
ATOM      9  H6  <0> d          -1.518  -0.382  -1.390  0.00  0.00     0.028 H 
ATOM     10  H7  <0> d          -3.285  -0.573  -1.293  0.00  0.00     0.028 H 
ENDBRANCH   1   7
BRANCH   1  11
ATOM     11  C4  <0> d          -1.330   1.944   0.019  0.00  0.00     0.012 C 
ATOM     12  H8  <0> d          -1.392   2.565   0.913  0.00  0.00     0.047 H 
ATOM     13  H9  <0> d          -1.400   2.575  -0.867  0.00  0.00     0.047 H 
BRANCH  11  14
ATOM     14  C5  <0> d          -0.014   1.209   0.009  0.00  0.00     0.215 C 
ATOM     15  O1  <0> d           0.002  -0.004   0.002  0.00  0.00    -0.274 OA
ATOM     16  N1  <0> d           1.143   1.898   0.001  0.00  0.00    -0.370 N 
ATOM     17  H10 <0> d           1.990   1.425  -0.009  0.00  0.00     0.159 HD
ATOM     18  H11 <0> d           1.130   2.868   0.007  0.00  0.00     0.159 HD
ENDBRANCH  11  14
ENDBRANCH   1  11
TORSDOF 4
