REMARK  0 active torsions:
REMARK  status: ('A' for Active; 'I' for Inactive)
ROOT
ATOM      1  C1  <0> d          -0.017   1.389   0.010  0.00  0.00    -0.065 A 
ATOM      2  C2  <0> d           1.157   2.087   0.002  0.00  0.00    -0.069 A 
ATOM      3  C3  <0> d           2.363   1.361  -0.013  0.00  0.00    -0.007 A 
ATOM      4  C4  <0> d           3.607   2.017  -0.021  0.00  0.00    -0.069 A 
ATOM      5  C5  <0> d           4.755   1.293  -0.035  0.00  0.00    -0.062 A 
ATOM      6  C6  <0> d           4.719  -0.113  -0.043  0.00  0.00     0.046 A 
ATOM      7  C7  <0> d           3.509  -0.787  -0.035  0.00  0.00    -0.034 A 
ATOM      8  C8  <0> d           2.310  -0.056  -0.020  0.00  0.00     0.068 A 
ATOM      9  N1  <0> d           1.126  -0.678  -0.012  0.00  0.00    -0.260 NA
ATOM     10  C9  <0> d           0.002  -0.004   0.002  0.00  0.00     0.003 A 
ATOM     11  C10 <0> d           5.944  -0.855  -0.059  0.00  0.00     0.099 C 
ATOM     12  N2  <0> d           6.915  -1.444  -0.071  0.00  0.00    -0.191 NA
ATOM     13  H1  <0> d          -0.959   1.917   0.026  0.00  0.00     0.085 H 
ATOM     14  H2  <0> d           1.161   3.167   0.008  0.00  0.00     0.085 H 
ATOM     15  H3  <0> d           3.648   3.096  -0.016  0.00  0.00     0.085 H 
ATOM     16  H4  <0> d           5.707   1.802  -0.042  0.00  0.00     0.085 H 
ATOM     17  H5  <0> d           3.487  -1.866  -0.041  0.00  0.00     0.089 H 
ATOM     18  H6  <0> d          -0.934  -0.543   0.008  0.00  0.00     0.114 H 
ENDROOT
TORSDOF 0
