REMARK  3 active torsions:
REMARK  status: ('A' for Active; 'I' for Inactive)
REMARK    1  A    between atoms: C1_1  and  O1_2 
REMARK    2  A    between atoms: O1_2  and  C2_3 
REMARK    3  A    between atoms: C5_7  and  N3_9 
ROOT
ATOM      1  C2  <0> d           1.182   2.056   0.002  0.00  0.00     0.184 A 
ATOM      2  C3  <0> d           1.247   3.449   0.009  0.00  0.00    -0.014 A 
ATOM      3  C4  <0> d           2.491   4.051  -0.000  0.00  0.00     0.025 A 
ATOM      4  N1  <0> d           3.577   3.293  -0.015  0.00  0.00    -0.075 NA
ATOM      5  C5  <0> d           3.484   1.972  -0.021  0.00  0.00     0.722 A 
ATOM      6  N2  <0> d           2.310   1.358  -0.007  0.00  0.00    -0.039 NA
ATOM      7  H4  <0> d           0.346   4.044   0.021  0.00  0.00     0.092 H 
ATOM      8  H5  <0> d           2.577   5.128   0.005  0.00  0.00     0.115 H 
ENDROOT
BRANCH   1   9
ATOM      9  O1  <0> d          -0.017   1.425   0.010  0.00  0.00    -0.339 OA
BRANCH   9  10
ATOM     10  C1  <0> d           0.002  -0.004   0.002  0.00  0.00     0.012 C 
ATOM     11  H1  <0> d          -1.020  -0.381   0.010  0.00  0.00     0.067 H 
ATOM     12  H2  <0> d           0.512  -0.356  -0.895  0.00  0.00     0.067 H 
ATOM     13  H3  <0> d           0.529  -0.365   0.885  0.00  0.00     0.067 H 
ENDBRANCH   9  10
ENDBRANCH   1   9
BRANCH   5  14
ATOM     14  N3  <0> d           4.642   1.214  -0.036  0.00  0.00    -0.231 N 
ATOM     15  H6  <0> d           5.508   1.651  -0.042  0.00  0.00     0.174 HD
ATOM     16  H7  <0> d           4.588   0.245  -0.041  0.00  0.00     0.174 HD
ENDBRANCH   5  14
TORSDOF 3
