REMARK  4 active torsions:
REMARK  status: ('A' for Active; 'I' for Inactive)
REMARK    1  A    between atoms: C1_1  and  O1_2 
REMARK    2  A    between atoms: O1_2  and  C2_3 
REMARK    3  A    between atoms: C5_7  and  O2_9 
REMARK    4  A    between atoms: O2_9  and  C7_10 
ROOT
ATOM      1  C2  <0> d           2.393   0.016  -0.021  0.00  0.00     0.073 A 
ATOM      2  C3  <0> d           1.194  -0.696  -0.013  0.00  0.00    -0.034 A 
ATOM      3  C4  <0> d           0.002  -0.004   0.002  0.00  0.00     0.008 A 
ATOM      4  N1  <0> d          -0.016   1.316   0.009  0.00  0.00    -0.237 NA
ATOM      5  C5  <0> d           1.099   2.029   0.003  0.00  0.00     0.166 A 
ATOM      6  C6  <0> d           2.338   1.405  -0.013  0.00  0.00     0.000 A 
ATOM      7  H4  <0> d           1.199  -1.776  -0.019  0.00  0.00     0.089 H 
ATOM      8  H5  <0> d          -0.930  -0.549   0.008  0.00  0.00     0.115 H 
ATOM      9  H6  <0> d           3.246   1.989  -0.019  0.00  0.00     0.094 H 
ENDROOT
BRANCH   1  10
ATOM     10  O1  <0> d           3.586  -0.632  -0.036  0.00  0.00    -0.356 OA
BRANCH  10  11
ATOM     11  C1  <0> d           3.548  -2.061  -0.044  0.00  0.00     0.010 C 
ATOM     12  H1  <0> d           3.034  -2.415   0.849  0.00  0.00     0.066 H 
ATOM     13  H2  <0> d           3.016  -2.405  -0.931  0.00  0.00     0.066 H 
ATOM     14  H3  <0> d           4.566  -2.451  -0.056  0.00  0.00     0.066 H 
ENDBRANCH  10  11
ENDBRANCH   1  10
BRANCH   5  15
ATOM     15  O2  <0> d           1.031   3.384   0.010  0.00  0.00    -0.339 OA
BRANCH  15  16
ATOM     16  C7  <0> d          -0.274   3.967   0.025  0.00  0.00     0.012 C 
ATOM     17  H7  <0> d          -0.824   3.651  -0.861  0.00  0.00     0.067 H 
ATOM     18  H8  <0> d          -0.807   3.642   0.918  0.00  0.00     0.067 H 
ATOM     19  H9  <0> d          -0.186   5.053   0.030  0.00  0.00     0.067 H 
ENDBRANCH  15  16
ENDBRANCH   5  15
TORSDOF 4
