REMARK  4 active torsions:
REMARK  status: ('A' for Active; 'I' for Inactive)
REMARK    1  A    between atoms: C1_1  and  O1_2 
REMARK    2  A    between atoms: O1_2  and  C2_3 
REMARK    3  A    between atoms: C2_3  and  C3_5 
REMARK    4  A    between atoms: C4_6  and  N1_10 
ROOT
ATOM      1  C3  <0> d          -1.247  -2.045   0.003  0.00  0.00     0.176 A 
ATOM      2  C4  <0> d          -2.397  -2.820   0.004  0.00  0.00     0.068 A 
ATOM      3  C5  <0> d          -1.968  -4.164  -0.005  0.00  0.00    -0.033 A 
ATOM      4  C6  <0> d          -0.620  -4.153  -0.011  0.00  0.00     0.022 A 
ATOM      5  O3  <0> d          -0.187  -2.885  -0.012  0.00  0.00    -0.314 OA
ATOM      6  H4  <0> d          -2.602  -5.039  -0.006  0.00  0.00     0.090 H 
ATOM      7  H5  <0> d           0.012  -5.029  -0.018  0.00  0.00     0.123 H 
ENDROOT
BRANCH   1   8
ATOM      8  C2  <0> d          -1.192  -0.633   0.010  0.00  0.00     0.319 C 
ATOM      9  O2  <0> d          -2.222   0.016   0.023  0.00  0.00    -0.257 OA
BRANCH   8  10
ATOM     10  O1  <0> d           0.002  -0.004   0.002  0.00  0.00    -0.321 OA
BRANCH  10  11
ATOM     11  C1  <0> d          -0.017   1.425   0.010  0.00  0.00     0.013 C 
ATOM     12  H1  <0> d           1.005   1.802   0.002  0.00  0.00     0.067 H 
ATOM     13  H2  <0> d          -0.544   1.786  -0.873  0.00  0.00     0.067 H 
ATOM     14  H3  <0> d          -0.527   1.776   0.907  0.00  0.00     0.067 H 
ENDBRANCH  10  11
ENDBRANCH   8  10
ENDBRANCH   1   8
BRANCH   2  15
ATOM     15  N1  <0> d          -3.709  -2.364   0.013  0.00  0.00    -0.397 N 
ATOM     16  H6  <0> d          -3.891  -1.411   0.019  0.00  0.00     0.156 HD
ATOM     17  H7  <0> d          -4.442  -2.998   0.013  0.00  0.00     0.156 HD
ENDBRANCH   2  15
TORSDOF 4
