REMARK  0 active torsions:
REMARK  status: ('A' for Active; 'I' for Inactive)
ROOT
ATOM      1  C1  <0> d           1.340  -0.257  -0.012  0.00  0.00     0.011 A 
ATOM      2  C2  <0> d           0.002  -0.004   0.002  0.00  0.00    -0.025 A 
ATOM      3  S1  <0> d          -0.021   1.733   0.012  0.00  0.00    -0.070 SA
ATOM      4  C3  <0> d           1.747   1.988  -0.004  0.00  0.00     0.177 A 
ATOM      5  N1  <0> d           2.191   0.737  -0.015  0.00  0.00    -0.242 NA
ATOM      6  C4  <0> d           2.487   3.214  -0.004  0.00  0.00     0.127 C 
ATOM      7  N2  <0> d           3.074   4.186  -0.005  0.00  0.00    -0.189 NA
ATOM      8  H1  <0> d           1.698  -1.276  -0.021  0.00  0.00     0.115 H 
ATOM      9  H2  <0> d          -0.825  -0.699   0.006  0.00  0.00     0.097 H 
ENDROOT
TORSDOF 0
