REMARK  4 active torsions:
REMARK  status: ('A' for Active; 'I' for Inactive)
REMARK    1  A    between atoms: C1_1  and  C2_2 
REMARK    2  A    between atoms: C2_2  and  C3_3 
REMARK    3  A    between atoms: C3_3  and  S1_4 
REMARK    4  A    between atoms: S1_4  and  O2_6 
ROOT
ATOM      1  C2  <0> d           2.352   1.737   1.339  0.00  0.00    -0.056 C 
ATOM      2  H4  <0> d           2.364   0.649   1.502  0.00  0.00     0.033 H 
ATOM      3  H5  <0> d           1.788   2.222   2.149  0.00  0.00     0.033 H 
ENDROOT
BRANCH   1   4
ATOM      4  C1  <0> d           3.787   2.266   1.328  0.00  0.00    -0.076 C 
ATOM      5  H1  <0> d           4.267   2.045   2.293  0.00  0.00     0.027 H 
ATOM      6  H2  <0> d           3.776   3.354   1.165  0.00  0.00     0.027 H 
ATOM      7  H3  <0> d           4.351   1.781   0.518  0.00  0.00     0.027 H 
ENDBRANCH   1   4
BRANCH   1   8
ATOM      8  C3  <0> d           1.685   2.045  -0.003  0.00  0.00     0.028 C 
ATOM      9  H6  <0> d           1.673   3.132  -0.166  0.00  0.00     0.056 H 
ATOM     10  H7  <0> d           2.248   1.559  -0.813  0.00  0.00     0.056 H 
BRANCH   8  11
ATOM     11  S1  <0> d          -0.017   1.417   0.010  0.00  0.00     0.150 S 
ATOM     12  O1  <0> d           0.002  -0.004   0.002  0.00  0.00    -0.229 OA
BRANCH  11  13
ATOM     13  O2  <0> d          -0.556   1.785  -1.365  0.00  0.00    -0.306 OA
ATOM     14  H8  <0> d          -1.588   1.521  -1.640  0.00  0.00     0.230 HD
ENDBRANCH  11  13
ENDBRANCH   8  11
ENDBRANCH   1   8
TORSDOF 4
