REMARK  3 active torsions:
REMARK  status: ('A' for Active; 'I' for Inactive)
REMARK    1  A    between atoms: C1_1  and  C2_2 
REMARK    2  A    between atoms: C2_2  and  C3_3 
REMARK    3  A    between atoms: C3_3  and  C4_5 
ROOT
ATOM      1  C4  <0> d          -1.329   1.939   0.019  0.00  0.00     0.004 C 
ATOM      2  C5  <0> d          -1.706   2.290   1.460  0.00  0.00    -0.055 C 
ATOM      3  C6  <0> d          -3.042   3.037   1.470  0.00  0.00    -0.064 C 
ATOM      4  C7  <0> d          -4.128   2.148   0.861  0.00  0.00    -0.065 C 
ATOM      5  C8  <0> d          -3.751   1.797  -0.580  0.00  0.00    -0.064 C 
ATOM      6  C9  <0> d          -2.416   1.050  -0.590  0.00  0.00    -0.055 C 
ATOM      7  H6  <0> d          -1.223   2.859  -0.574  0.00  0.00     0.051 H 
ATOM      8  H7  <0> d          -1.798   1.366   2.050  0.00  0.00     0.034 H 
ATOM      9  H8  <0> d          -0.925   2.929   1.898  0.00  0.00     0.034 H 
ATOM     10  H9  <0> d          -3.312   3.289   2.506  0.00  0.00     0.033 H 
ATOM     11  H10 <0> d          -2.950   3.961   0.880  0.00  0.00     0.033 H 
ATOM     12  H11 <0> d          -4.220   1.225   1.451  0.00  0.00     0.033 H 
ATOM     13  H12 <0> d          -5.088   2.685   0.868  0.00  0.00     0.033 H 
ATOM     14  H13 <0> d          -4.532   1.158  -1.018  0.00  0.00     0.033 H 
ATOM     15  H14 <0> d          -3.659   2.721  -1.170  0.00  0.00     0.033 H 
ATOM     16  H15 <0> d          -2.145   0.798  -1.626  0.00  0.00     0.034 H 
ATOM     17  H16 <0> d          -2.508   0.127  -0.000  0.00  0.00     0.034 H 
ENDROOT
BRANCH   1  18
ATOM     18  C3  <0> d          -0.014   1.203   0.009  0.00  0.00     0.130 C 
ATOM     19  O1  <0> d           0.002  -0.004   0.002  0.00  0.00    -0.298 OA
BRANCH  18  20
ATOM     20  C2  <0> d           1.280   1.975   0.000  0.00  0.00    -0.013 C 
ATOM     21  H4  <0> d           1.339   2.603   0.901  0.00  0.00     0.043 H 
ATOM     22  H5  <0> d           1.321   2.612  -0.895  0.00  0.00     0.043 H 
BRANCH  20  23
ATOM     23  C1  <0> d           2.457   0.996  -0.016  0.00  0.00    -0.070 C 
ATOM     24  H1  <0> d           3.402   1.559  -0.022  0.00  0.00     0.028 H 
ATOM     25  H2  <0> d           2.398   0.368  -0.917  0.00  0.00     0.028 H 
ATOM     26  H3  <0> d           2.416   0.358   0.879  0.00  0.00     0.028 H 
ENDBRANCH  20  23
ENDBRANCH  18  20
ENDBRANCH   1  18
TORSDOF 3
