REMARK  2 active torsions:
REMARK  status: ('A' for Active; 'I' for Inactive)
REMARK    1  A    between atoms: C3_3  and  C5_6 
REMARK    2  A    between atoms: C5_6  and  C6_8 
ROOT
ATOM      1  C6  <0> d          -2.531   2.098   0.027  0.00  0.00     0.074 C 
ATOM      2  C7  <0> d          -3.499   3.206   0.037  0.00  0.00     0.067 C 
ATOM      3  N1  <0> d          -4.247   4.061   0.046  0.00  0.00    -0.197 NA
ATOM      4  H4  <0> d          -2.670   1.541  -0.792  0.00  0.00     0.067 H 
ATOM      5  H5  <0> d          -2.674   1.482   0.914  0.00  0.00     0.067 H 
ENDROOT
BRANCH   1   6
ATOM      6  C5  <0> d          -1.130   2.655   0.022  0.00  0.00     0.179 C 
ATOM      7  O1  <0> d          -0.955   3.857   0.027  0.00  0.00    -0.291 OA
BRANCH   6   8
ATOM      8  C3  <0> d          -0.022   1.780   0.012  0.00  0.00     0.051 A 
ATOM      9  C2  <0> d           1.336   2.084   0.001  0.00  0.00    -0.062 A 
ATOM     10  C1  <0> d           2.209   1.029  -0.013  0.00  0.00    -0.075 A 
ATOM     11  H2  <0> d           1.685   3.106   0.002  0.00  0.00     0.085 H 
ATOM     12  C4  <0> d           1.719  -0.241  -0.016  0.00  0.00    -0.044 A 
ATOM     13  H1  <0> d           3.275   1.202  -0.022  0.00  0.00     0.084 H 
ATOM     14  S1  <0> d           0.002  -0.004   0.002  0.00  0.00    -0.098 SA
ATOM     15  H3  <0> d           2.268  -1.171  -0.026  0.00  0.00     0.095 H 
ENDBRANCH   6   8
ENDBRANCH   1   6
TORSDOF 2
