REMARK  1 active torsions:
REMARK  status: ('A' for Active; 'I' for Inactive)
REMARK    1  A    between atoms: C2_2  and  C4_9 
ROOT
ATOM      1  C1  <0> d          -0.013   1.086   0.008  0.00  0.00     0.059 A 
ATOM      2  C2  <0> d          -0.799   1.614  -1.174  0.00  0.00     0.139 A 
ATOM      3  N1  <0> d          -1.800   2.287  -0.691  0.00  0.00    -0.169 NA
ATOM      4  H1  <0> d           1.003   1.482   0.000  0.00  0.00     0.057 H 
ATOM      5  N2  <0> d          -1.817   2.298   0.701  0.00  0.00    -0.246 N 
ATOM      6  H2  <0> d          -2.488   2.750   1.236  0.00  0.00     0.192 HD
ATOM      7  C3  <0> d          -0.777   1.602   1.211  0.00  0.00     0.243 A 
ATOM      8  O1  <0> d          -0.511   1.425   2.381  0.00  0.00    -0.271 OA
ATOM      9  H3  <0> d           0.002  -0.004   0.002  0.00  0.00     0.057 H 
ENDROOT
BRANCH   2  10
ATOM     10  C4  <0> d          -0.490   1.407  -2.588  0.00  0.00     0.226 C 
ATOM     11  O2  <0> d          -1.212   1.892  -3.450  0.00  0.00    -0.643 OA
ATOM     12  O3  <0> d           0.491   0.748  -2.911  0.00  0.00    -0.643 OA
ENDBRANCH   2  10
TORSDOF 1
