REMARK  2 active torsions:
REMARK  status: ('A' for Active; 'I' for Inactive)
REMARK    1  A    between atoms: C2_2  and  C4_8 
REMARK    2  A    between atoms: C3_6  and  N3_7 
REMARK       I    between atoms: C4_8  and  N4_10 
ROOT
ATOM      1  C1  <0> d          -0.016   1.354   0.009  0.00  0.00    -0.005 A 
ATOM      2  C2  <0> d           1.321   1.803  -0.001  0.00  0.00     0.147 A 
ATOM      3  N1  <0> d           2.107   0.745  -0.014  0.00  0.00    -0.168 NA
ATOM      4  N2  <0> d           1.302  -0.402  -0.013  0.00  0.00    -0.262 N 
ATOM      5  H1  <0> d           1.617  -1.319  -0.021  0.00  0.00     0.191 HD
ATOM      6  C3  <0> d           0.002  -0.004   0.002  0.00  0.00     0.117 A 
ATOM      7  H2  <0> d          -0.897   1.978   0.025  0.00  0.00     0.093 H 
ENDROOT
BRANCH   2   8
ATOM      8  C4  <0> d           1.763   3.212   0.002  0.00  0.00     0.269 C 
ATOM      9  O1  <0> d           0.940   4.107   0.014  0.00  0.00    -0.266 OA
ATOM     10  N4  <0> d           3.078   3.506  -0.009  0.00  0.00    -0.365 N 
ATOM     11  H5  <0> d           3.734   2.792  -0.019  0.00  0.00     0.159 HD
ATOM     12  H6  <0> d           3.368   4.432  -0.007  0.00  0.00     0.159 HD
ENDBRANCH   2   8
BRANCH   6  13
ATOM     13  N3  <0> d          -1.112  -0.840   0.008  0.00  0.00    -0.384 N 
ATOM     14  H3  <0> d          -2.004  -0.459   0.019  0.00  0.00     0.157 HD
ATOM     15  H4  <0> d          -0.995  -1.803   0.002  0.00  0.00     0.157 HD
ENDBRANCH   6  13
TORSDOF 2
