REMARK  3 active torsions:
REMARK  status: ('A' for Active; 'I' for Inactive)
REMARK    1  A    between atoms: C2_2  and  N5_9 
REMARK    2  A    between atoms: C3_3  and  N4_8 
REMARK    3  A    between atoms: C4_5  and  N3_7 
ROOT
ATOM      1  C1  <0> d           1.202  -0.698  -0.013  0.00  0.00     0.050 A 
ATOM      2  C2  <0> d           0.002  -0.004   0.002  0.00  0.00     0.090 A 
ATOM      3  C3  <0> d          -1.192  -0.738   0.015  0.00  0.00     0.168 A 
ATOM      4  N1  <0> d          -1.131  -2.065   0.003  0.00  0.00    -0.043 NA
ATOM      5  C4  <0> d           0.038  -2.688  -0.012  0.00  0.00     0.722 A 
ATOM      6  N2  <0> d           1.182  -2.023  -0.020  0.00  0.00    -0.073 NA
ATOM      7  H1  <0> d           2.141  -0.165  -0.019  0.00  0.00     0.119 H 
ENDROOT
BRANCH   2   8
ATOM      8  N5  <0> d          -0.017   1.400   0.010  0.00  0.00    -0.395 N 
ATOM      9  H6  <0> d           0.816   1.896   0.004  0.00  0.00     0.156 HD
ATOM     10  H7  <0> d          -0.864   1.873   0.016  0.00  0.00     0.156 HD
ENDBRANCH   2   8
BRANCH   3  11
ATOM     11  N4  <0> d          -2.418  -0.089   0.036  0.00  0.00    -0.382 N 
ATOM     12  H4  <0> d          -2.454   0.880   0.042  0.00  0.00     0.157 HD
ATOM     13  H5  <0> d          -3.240  -0.605   0.046  0.00  0.00     0.157 HD
ENDBRANCH   3  11
BRANCH   5  14
ATOM     14  N3  <0> d           0.063  -4.075  -0.019  0.00  0.00    -0.231 N 
ATOM     15  H2  <0> d           0.912  -4.545  -0.029  0.00  0.00     0.174 HD
ATOM     16  H3  <0> d          -0.768  -4.575  -0.013  0.00  0.00     0.174 HD
ENDBRANCH   5  14
TORSDOF 3
