REMARK  2 active torsions:
REMARK  status: ('A' for Active; 'I' for Inactive)
REMARK    1  A    between atoms: C1_1  and  C2_2 
REMARK    2  A    between atoms: C2_2  and  N1_3 
ROOT
ATOM      1  N1  <0> d           0.002  -0.004   0.002  0.00  0.00    -0.188 N 
ATOM      2  N2  <0> d          -0.015   1.283   0.009  0.00  0.00    -0.153 NA
ATOM      3  C3  <0> d           1.231   1.728  -0.000  0.00  0.00     0.109 A 
ATOM      4  C4  <0> d           1.865   2.983  -0.000  0.00  0.00    -0.051 A 
ATOM      5  C5  <0> d           3.223   3.046  -0.014  0.00  0.00    -0.081 A 
ATOM      6  C6  <0> d           4.011   1.894  -0.027  0.00  0.00    -0.081 A 
ATOM      7  C7  <0> d           3.461   0.652  -0.028  0.00  0.00    -0.051 A 
ATOM      8  C8  <0> d           2.062   0.515  -0.015  0.00  0.00     0.109 A 
ATOM      9  N3  <0> d           1.196  -0.486  -0.012  0.00  0.00    -0.153 NA
ATOM     10  H6  <0> d           1.279   3.889   0.010  0.00  0.00     0.087 H 
ATOM     11  H7  <0> d           3.704   4.013  -0.014  0.00  0.00     0.083 H 
ATOM     12  H8  <0> d           5.086   1.993  -0.037  0.00  0.00     0.083 H 
ATOM     13  H9  <0> d           4.093  -0.223  -0.039  0.00  0.00     0.087 H 
ENDROOT
BRANCH   1  14
ATOM     14  C2  <0> d          -1.207  -0.832   0.010  0.00  0.00     0.032 C 
ATOM     15  H4  <0> d          -0.999  -1.774   0.517  0.00  0.00     0.069 H 
ATOM     16  H5  <0> d          -2.004  -0.305   0.535  0.00  0.00     0.069 H 
BRANCH  14  17
ATOM     17  C1  <0> d          -1.642  -1.112  -1.430  0.00  0.00    -0.058 C 
ATOM     18  H1  <0> d          -2.542  -1.728  -1.424  0.00  0.00     0.029 H 
ATOM     19  H2  <0> d          -1.850  -0.170  -1.937  0.00  0.00     0.029 H 
ATOM     20  H3  <0> d          -0.845  -1.638  -1.955  0.00  0.00     0.029 H 
ENDBRANCH  14  17
ENDBRANCH   1  14
TORSDOF 2
