REMARK  5 active torsions:
REMARK  status: ('A' for Active; 'I' for Inactive)
REMARK    1  A    between atoms: C1_1  and  C2_2 
REMARK    2  A    between atoms: C1_1  and  O5_14 
REMARK    3  A    between atoms: C3_4  and  O4_13 
REMARK    4  A    between atoms: C4_6  and  O3_12 
REMARK    5  A    between atoms: C5_8  and  O2_11 
ROOT
ATOM      1  C2  <0> d           2.544   3.423   0.823  0.00  0.00     0.089 C 
ATOM      2  H1  <0> d           3.330   3.490   0.072  0.00  0.00     0.090 H 
ATOM      3  C3  <0> d           1.184   3.104   0.152  0.00  0.00     0.092 C 
ATOM      4  H2  <0> d           0.352   3.380   0.799  0.00  0.00     0.091 H 
ATOM      5  C4  <0> d           1.286   1.562  -0.002  0.00  0.00     0.110 C 
ATOM      6  H3  <0> d           1.829   1.294  -0.909  0.00  0.00     0.094 H 
ATOM      7  C5  <0> d           2.086   1.159   1.256  0.00  0.00     0.156 C 
ATOM      8  H4  <0> d           1.404   0.813   2.033  0.00  0.00     0.133 H 
ATOM      9  O1  <0> d           2.793   2.320   1.709  0.00  0.00    -0.349 OA
ENDROOT
BRANCH   1  10
ATOM     10  C1  <0> d           2.451   4.729   1.615  0.00  0.00     0.043 C 
ATOM     11  H5  <0> d           2.150   5.537   0.949  0.00  0.00     0.078 H 
ATOM     12  H6  <0> d           1.715   4.620   2.411  0.00  0.00     0.078 H 
BRANCH  10  13
ATOM     13  O5  <0> d           3.727   5.032   2.184  0.00  0.00    -0.398 OA
ATOM     14  H10 <0> d           3.742   5.849   2.701  0.00  0.00     0.209 HD
ENDBRANCH  10  13
ENDBRANCH   1  10
BRANCH   3  15
ATOM     15  O4  <0> d           1.077   3.742  -1.122  0.00  0.00    -0.390 OA
ATOM     16  H9  <0> d           0.291   3.487  -1.625  0.00  0.00     0.210 HD
ENDBRANCH   3  15
BRANCH   7  17
ATOM     17  O2  <0> d           3.015   0.123   0.929  0.00  0.00    -0.369 OA
ATOM     18  H7  <0> d           3.550  -0.176   1.677  0.00  0.00     0.212 HD
ENDBRANCH   7  17
BRANCH   5  19
ATOM     19  O3  <0> d          -0.011   0.963   0.007  0.00  0.00    -0.388 OA
ATOM     20  H8  <0> d           0.002  -0.004   0.002  0.00  0.00     0.210 HD
ENDBRANCH   5  19
TORSDOF 5
