REMARK  2 active torsions:
REMARK  status: ('A' for Active; 'I' for Inactive)
REMARK    1  A    between atoms: C1_1  and  C2_2 
REMARK    2  A    between atoms: C3_3  and  C5_7 
ROOT
ATOM      1  C2  <0> d          -1.254   2.297   0.013  0.00  0.00     0.056 A 
ATOM      2  C3  <0> d          -0.143   1.493   0.253  0.00  0.00     0.073 A 
ATOM      3  C4  <0> d           1.083   2.144   0.228  0.00  0.00    -0.008 A 
ATOM      4  S1  <0> d           0.617   3.778  -0.110  0.00  0.00     0.000 SA
ATOM      5  N1  <0> d          -1.075   3.571  -0.202  0.00  0.00    -0.216 NA
ATOM      6  H4  <0> d           2.071   1.736   0.379  0.00  0.00     0.099 H 
ENDROOT
BRANCH   1   7
ATOM      7  C1  <0> d          -2.640   1.706   0.009  0.00  0.00    -0.034 C 
ATOM      8  H1  <0> d          -2.579   0.626   0.208  0.00  0.00     0.035 H 
ATOM      9  H2  <0> d          -3.106   1.871  -0.974  0.00  0.00     0.035 H 
ATOM     10  H3  <0> d          -3.248   2.189   0.788  0.00  0.00     0.035 H 
ENDBRANCH   1   7
BRANCH   2  11
ATOM     11  C5  <0> d          -0.260   0.048   0.511  0.00  0.00     0.212 C 
ATOM     12  O1  <0> d          -1.357  -0.461   0.631  0.00  0.00    -0.644 OA
ATOM     13  O2  <0> d           0.849  -0.710   0.613  0.00  0.00    -0.644 OA
ENDBRANCH   2  11
TORSDOF 2
