REMARK  2 active torsions:
REMARK  status: ('A' for Active; 'I' for Inactive)
REMARK    1  A    between atoms: C2_2  and  C6_8 
REMARK    2  A    between atoms: C6_8  and  O1_9 
ROOT
ATOM      1  C1  <0> d           1.165   2.451   0.004  0.00  0.00    -0.051 A 
ATOM      2  C2  <0> d           1.097   3.836   0.012  0.00  0.00    -0.016 A 
ATOM      3  C3  <0> d          -0.141   4.449   0.026  0.00  0.00     0.010 A 
ATOM      4  N1  <0> d          -1.249   3.734   0.033  0.00  0.00    -0.271 NA
ATOM      5  C4  <0> d          -1.224   2.416   0.021  0.00  0.00     0.023 A 
ATOM      6  C5  <0> d          -0.021   1.732   0.012  0.00  0.00     0.052 A 
ATOM      7 Cl1  <0> d           0.002  -0.004   0.002  0.00  0.00    -0.083 Cl
ATOM      8  H1  <0> d           2.119   1.944  -0.007  0.00  0.00     0.087 H 
ATOM      9  H2  <0> d          -0.201   5.528   0.032  0.00  0.00     0.115 H 
ATOM     10  H3  <0> d          -2.152   1.865   0.022  0.00  0.00     0.117 H 
ENDROOT
BRANCH   2  11
ATOM     11  C6  <0> d           2.358   4.661   0.004  0.00  0.00     0.042 C 
ATOM     12  H4  <0> d           2.178   5.611   0.529  0.00  0.00     0.081 H 
ATOM     13  H5  <0> d           3.162   4.108   0.512  0.00  0.00     0.081 H 
BRANCH  11  14
ATOM     14  O1  <0> d           2.744   4.929  -1.346  0.00  0.00    -0.396 OA
ATOM     15  H6  <0> d           3.646   5.522  -1.553  0.00  0.00     0.209 HD
ENDBRANCH  11  14
ENDBRANCH   2  11
TORSDOF 2
