REMARK  6 active torsions:
REMARK  status: ('A' for Active; 'I' for Inactive)
REMARK    1  A    between atoms: C1_1  and  C2_2 
REMARK    2  A    between atoms: C2_2  and  C3_3 
REMARK    3  A    between atoms: C3_3  and  C7_7 
REMARK    4  A    between atoms: C7_7  and  O2_9 
REMARK    5  A    between atoms: O2_9  and  C8_10 
REMARK    6  A    between atoms: C8_10  and  C9_11 
ROOT
ATOM      1  C3  <0> d           1.545   1.396  -0.009  0.00  0.00     0.048 C 
ATOM      2  C4  <0> d           0.043   1.276   0.296  0.00  0.00    -0.049 C 
ATOM      3  C5  <0> d           0.299  -0.215   0.575  0.00  0.00    -0.063 C 
ATOM      4  C6  <0> d           1.749   0.177   0.906  0.00  0.00    -0.049 C 
ATOM      5  H6  <0> d          -0.215   1.941   1.133  0.00  0.00     0.034 H 
ATOM      6  H7  <0> d          -0.536   1.563  -0.593  0.00  0.00     0.034 H 
ATOM      7  H8  <0> d          -0.363  -0.556   1.384  0.00  0.00     0.033 H 
ATOM      8  H9  <0> d           0.096  -0.798  -0.336  0.00  0.00     0.033 H 
ATOM      9  H10 <0> d           2.573  -0.440   0.517  0.00  0.00     0.034 H 
ATOM     10  H11 <0> d           1.994   0.518   1.922  0.00  0.00     0.034 H 
ENDROOT
BRANCH   1  11
ATOM     11  C2  <0> d           2.179   2.680   0.530  0.00  0.00    -0.052 C 
ATOM     12  H4  <0> d           3.266   2.651   0.361  0.00  0.00     0.034 H 
ATOM     13  H5  <0> d           1.978   2.763   1.608  0.00  0.00     0.034 H 
BRANCH  11  14
ATOM     14  C1  <0> d           1.582   3.887  -0.195  0.00  0.00    -0.075 C 
ATOM     15  H1  <0> d           2.038   4.810   0.193  0.00  0.00     0.027 H 
ATOM     16  H2  <0> d           0.496   3.916  -0.026  0.00  0.00     0.027 H 
ATOM     17  H3  <0> d           1.784   3.804  -1.273  0.00  0.00     0.027 H 
ENDBRANCH  11  14
ENDBRANCH   1  11
BRANCH   1  18
ATOM     18  C7  <0> d           1.891   1.132  -1.452  0.00  0.00     0.267 C 
ATOM     19  O1  <0> d           1.015   0.891  -2.249  0.00  0.00    -0.264 OA
BRANCH  18  20
ATOM     20  O2  <0> d           3.172   1.165  -1.852  0.00  0.00    -0.321 OA
BRANCH  20  21
ATOM     21  C8  <0> d           3.431   0.902  -3.257  0.00  0.00     0.025 C 
ATOM     22  H12 <0> d           3.066  -0.103  -3.514  0.00  0.00     0.074 H 
ATOM     23  H13 <0> d           2.909   1.650  -3.872  0.00  0.00     0.074 H 
BRANCH  21  24
ATOM     24  C9  <0> d           4.935   0.983  -3.522  0.00  0.00    -0.056 C 
ATOM     25  H14 <0> d           5.131   0.783  -4.585  0.00  0.00     0.030 H 
ATOM     26  H15 <0> d           5.457   0.235  -2.906  0.00  0.00     0.030 H 
ATOM     27  H16 <0> d           5.300   1.988  -3.264  0.00  0.00     0.030 H 
ENDBRANCH  21  24
ENDBRANCH  20  21
ENDBRANCH  18  20
ENDBRANCH   1  18
TORSDOF 6
