REMARK  2 active torsions:
REMARK  status: ('A' for Active; 'I' for Inactive)
REMARK    1  A    between atoms: C1_1  and  C2_2 
REMARK    2  A    between atoms: N3_8  and  C4_9 
ROOT
ATOM      1  C2  <0> d           2.082   0.662  -0.014  0.00  0.00     0.126 A 
ATOM      2  N1  <0> d           1.346  -0.403  -0.013  0.00  0.00    -0.157 NA
ATOM      3  N2  <0> d           0.002  -0.004   0.002  0.00  0.00    -0.227 N 
ATOM      4  H1  <0> d          -0.771  -0.590   0.006  0.00  0.00     0.194 HD
ATOM      5  C3  <0> d          -0.016   1.345   0.009  0.00  0.00     0.343 A 
ATOM      6  O1  <0> d          -1.008   2.053   0.018  0.00  0.00    -0.245 OA
ATOM      7  N3  <0> d           1.265   1.766  -0.001  0.00  0.00    -0.289 N 
ENDROOT
BRANCH   1   8
ATOM      8  C1  <0> d           3.588   0.686  -0.028  0.00  0.00    -0.019 C 
ATOM      9  H2  <0> d           3.968  -0.336  -0.036  0.00  0.00     0.037 H 
ATOM     10  H3  <0> d           3.936   1.210  -0.918  0.00  0.00     0.037 H 
ATOM     11  H4  <0> d           3.951   1.201   0.862  0.00  0.00     0.037 H 
ENDBRANCH   1   8
BRANCH   7  12
ATOM     12  C4  <0> d           1.709   3.162   0.002  0.00  0.00    -0.008 C 
ATOM     13  H5  <0> d           0.840   3.820   0.013  0.00  0.00     0.057 H 
ATOM     14  H6  <0> d           2.317   3.348   0.887  0.00  0.00     0.057 H 
ATOM     15  H7  <0> d           2.300   3.356  -0.893  0.00  0.00     0.057 H 
ENDBRANCH   7  12
TORSDOF 2
