REMARK  3 active torsions:
REMARK  status: ('A' for Active; 'I' for Inactive)
REMARK    1  A    between atoms: C1_1  and  C2_2 
REMARK    2  A    between atoms: C2_2  and  C3_3 
REMARK    3  A    between atoms: C2_2  and  C4_4 
ROOT
ATOM      1  C2  <0> d           1.756  -1.813  -0.025  0.00  0.00     0.002 C 
ATOM      2  H4  <0> d           1.003  -2.468   0.413  0.00  0.00     0.051 H 
ENDROOT
BRANCH   1   3
ATOM      3  C1  <0> d           2.030  -2.244  -1.468  0.00  0.00    -0.066 C 
ATOM      4  H1  <0> d           2.783  -1.588  -1.905  0.00  0.00     0.028 H 
ATOM      5  H2  <0> d           2.393  -3.271  -1.477  0.00  0.00     0.028 H 
ATOM      6  H3  <0> d           1.109  -2.178  -2.048  0.00  0.00     0.028 H 
ENDBRANCH   1   3
BRANCH   1   7
ATOM      7  C3  <0> d           3.048  -1.905   0.789  0.00  0.00    -0.066 C 
ATOM      8  H5  <0> d           2.852  -1.598   1.817  0.00  0.00     0.028 H 
ATOM      9  H6  <0> d           3.411  -2.933   0.780  0.00  0.00     0.028 H 
ATOM     10  H7  <0> d           3.801  -1.250   0.351  0.00  0.00     0.028 H 
ENDBRANCH   1   7
BRANCH   1  11
ATOM     11  C4  <0> d           1.254  -0.392  -0.012  0.00  0.00     0.177 A 
ATOM     12  N3  <0> d           0.002  -0.004   0.002  0.00  0.00    -0.111 NA
ATOM     13  N2  <0> d          -0.015   1.284   0.009  0.00  0.00    -0.021 NA
ATOM     14  N1  <0> d           1.193   1.728  -0.000  0.00  0.00    -0.021 NA
ATOM     15  N4  <0> d           1.990   0.725  -0.013  0.00  0.00    -0.111 NA
ENDBRANCH   1  11
TORSDOF 3
