REMARK  2 active torsions:
REMARK  status: ('A' for Active; 'I' for Inactive)
REMARK    1  A    between atoms: C1_1  and  C2_2 
REMARK    2  A    between atoms: C9_11  and  N3_12 
ROOT
ATOM      1  C2  <0> d          -1.190   3.403   0.033  0.00  0.00    -0.014 A 
ATOM      2  C3  <0> d          -1.235   2.042   0.031  0.00  0.00    -0.043 A 
ATOM      3  C4  <0> d          -0.016   1.331   0.009  0.00  0.00     0.085 A 
ATOM      4  C5  <0> d           1.199   2.057   0.002  0.00  0.00     0.087 A 
ATOM      5  C6  <0> d           2.414   1.345  -0.014  0.00  0.00    -0.051 A 
ATOM      6  C7  <0> d           2.363  -0.019  -0.021  0.00  0.00    -0.064 A 
ATOM      7  C8  <0> d           1.131  -0.670  -0.012  0.00  0.00     0.003 A 
ATOM      8  N1  <0> d           0.002  -0.004   0.002  0.00  0.00    -0.259 NA
ATOM      9  N2  <0> d           1.183   3.393   0.009  0.00  0.00    -0.229 NA
ATOM     10  C9  <0> d           0.048   4.063   0.024  0.00  0.00     0.128 A 
ATOM     11  H4  <0> d          -2.180   1.520   0.041  0.00  0.00     0.088 H 
ATOM     12  H5  <0> d           3.361   1.865  -0.020  0.00  0.00     0.087 H 
ATOM     13  H6  <0> d           3.277  -0.594  -0.032  0.00  0.00     0.085 H 
ATOM     14  H7  <0> d           1.106  -1.750  -0.018  0.00  0.00     0.114 H 
ENDROOT
BRANCH   1  15
ATOM     15  C1  <0> d          -2.469   4.200   0.050  0.00  0.00    -0.048 C 
ATOM     16  H1  <0> d          -3.328   3.513   0.055  0.00  0.00     0.033 H 
ATOM     17  H2  <0> d          -2.515   4.839  -0.844  0.00  0.00     0.033 H 
ATOM     18  H3  <0> d          -2.497   4.828   0.953  0.00  0.00     0.033 H 
ENDBRANCH   1  15
BRANCH  10  19
ATOM     19  N3  <0> d           0.078   5.449   0.031  0.00  0.00    -0.384 N 
ATOM     20  H8  <0> d           1.042   5.979   0.025  0.00  0.00     0.157 HD
ATOM     21  H9  <0> d          -0.862   6.020   0.043  0.00  0.00     0.157 HD
ENDBRANCH  10  19
TORSDOF 2
