REMARK  0 active torsions:
REMARK  status: ('A' for Active; 'I' for Inactive)
ROOT
ATOM      1  C1  <0> d           1.202   2.054   0.002  0.00  0.00     0.037 A 
ATOM      2  C2  <0> d          -0.016   1.344   0.009  0.00  0.00     0.253 A 
ATOM      3  O1  <0> d          -1.077   1.944   0.018  0.00  0.00    -0.268 OA
ATOM      4  N1  <0> d           0.002  -0.004   0.002  0.00  0.00    -0.275 N 
ATOM      5  H1  <0> d          -0.859  -0.513   0.007  0.00  0.00     0.173 HD
ATOM      6  C3  <0> d           1.172  -0.669  -0.012  0.00  0.00     0.329 A 
ATOM      7  O2  <0> d           1.171  -1.885  -0.019  0.00  0.00    -0.247 OA
ATOM      8  N2  <0> d           2.344  -0.007  -0.020  0.00  0.00    -0.285 N 
ATOM      9  H2  <0> d           3.203  -0.519  -0.030  0.00  0.00     0.172 HD
ATOM     10  C4  <0> d           2.369   1.363  -0.013  0.00  0.00     0.197 A 
ATOM     11  F1  <0> d           3.550   2.020  -0.021  0.00  0.00    -0.186 F 
ATOM     12  H3  <0> d           1.206   3.134   0.007  0.00  0.00     0.099 H 
ENDROOT
TORSDOF 0
