REMARK  1 active torsions:
REMARK  status: ('A' for Active; 'I' for Inactive)
REMARK    1  A    between atoms: C1_1  and  N1_2 
ROOT
ATOM      1  N1  <0> d           3.413   0.720  -0.026  0.00  0.00    -0.327 N 
ATOM      2  C2  <0> d           3.954   1.951  -0.024  0.00  0.00     0.071 A 
ATOM      3  N2  <0> d           3.247   3.047  -0.012  0.00  0.00    -0.203 NA
ATOM      4  C3  <0> d           1.900   3.026   0.000  0.00  0.00     0.302 A 
ATOM      5  O1  <0> d           1.258   4.061   0.011  0.00  0.00    -0.263 OA
ATOM      6  C4  <0> d           1.226   1.718  -0.000  0.00  0.00     0.195 A 
ATOM      7  C5  <0> d           2.041   0.556  -0.014  0.00  0.00     0.188 A 
ATOM      8  N3  <0> d           1.209  -0.457  -0.012  0.00  0.00    -0.136 NA
ATOM      9  N4  <0> d           0.002  -0.004   0.002  0.00  0.00    -0.194 N 
ATOM     10  H1  <0> d          -0.816  -0.579   0.007  0.00  0.00     0.213 HD
ATOM     11  N5  <0> d          -0.015   1.285   0.009  0.00  0.00    -0.148 NA
ATOM     12  H5  <0> d           5.030   2.037  -0.033  0.00  0.00     0.144 H 
ENDROOT
BRANCH   1  13
ATOM     13  C1  <0> d           4.285  -0.457  -0.041  0.00  0.00    -0.012 C 
ATOM     14  H2  <0> d           4.492  -0.743  -1.072  0.00  0.00     0.057 H 
ATOM     15  H3  <0> d           5.222  -0.222   0.466  0.00  0.00     0.057 H 
ATOM     16  H4  <0> d           3.792  -1.282   0.473  0.00  0.00     0.057 H 
ENDBRANCH   1  13
TORSDOF 1
