REMARK  0 active torsions:
REMARK  status: ('A' for Active; 'I' for Inactive)
ROOT
ATOM      1  C1  <0> d           1.081   3.180   0.572  0.00  0.00    -0.039 C 
ATOM      2  C2  <0> d           1.386   1.773  -0.002  0.00  0.00    -0.039 C 
ATOM      3  C3  <0> d          -0.013   1.086   0.008  0.00  0.00     0.039 C 
ATOM      4  C4  <0> d          -0.806   1.750  -1.157  0.00  0.00    -0.039 C 
ATOM      5  C5  <0> d          -1.118   3.189  -0.570  0.00  0.00    -0.039 C 
ATOM      6  C6  <0> d          -0.454   3.119   0.838  0.00  0.00     0.039 C 
ATOM      7  O1  <0> d          -0.628   1.706   1.185  0.00  0.00    -0.381 OA
ATOM      8  H1  <0> d           1.627   3.345   1.501  0.00  0.00     0.036 H 
ATOM      9  H2  <0> d           1.319   3.954  -0.157  0.00  0.00     0.036 H 
ATOM     10  H3  <0> d           2.084   1.237   0.641  0.00  0.00     0.036 H 
ATOM     11  H4  <0> d           1.774   1.843  -1.018  0.00  0.00     0.036 H 
ATOM     12  H5  <0> d           0.002  -0.004   0.002  0.00  0.00     0.083 H 
ATOM     13  H6  <0> d          -0.187   1.825  -2.052  0.00  0.00     0.036 H 
ATOM     14  H7  <0> d          -1.722   1.196  -1.366  0.00  0.00     0.036 H 
ATOM     15  H8  <0> d          -2.193   3.348  -0.483  0.00  0.00     0.036 H 
ATOM     16  H9  <0> d          -0.661   3.973  -1.174  0.00  0.00     0.036 H 
ATOM     17  H10 <0> d          -0.831   3.835   1.568  0.00  0.00     0.083 H 
ENDROOT
TORSDOF 0
