REMARK  1 active torsions:
REMARK  status: ('A' for Active; 'I' for Inactive)
REMARK    1  A    between atoms: C3_3  and  N4_11 
ROOT
ATOM      1  C1  <0> d          -0.017   1.403   0.010  0.00  0.00    -0.064 A 
ATOM      2  C2  <0> d           1.177   2.062   0.002  0.00  0.00    -0.038 A 
ATOM      3  C3  <0> d           2.375   1.334  -0.013  0.00  0.00     0.123 A 
ATOM      4  N1  <0> d           2.384   0.015  -0.021  0.00  0.00    -0.211 NA
ATOM      5  C4  <0> d           1.248  -0.683  -0.013  0.00  0.00     0.164 A 
ATOM      6  C5  <0> d           0.002  -0.004   0.002  0.00  0.00     0.029 A 
ATOM      7  C6  <0> d          -1.176  -0.766   0.009  0.00  0.00     0.017 A 
ATOM      8  N2  <0> d          -1.071  -2.082   0.000  0.00  0.00    -0.253 NA
ATOM      9  C7  <0> d           0.109  -2.682  -0.014  0.00  0.00     0.088 A 
ATOM     10  N3  <0> d           1.244  -2.022  -0.020  0.00  0.00    -0.222 NA
ATOM     11  H1  <0> d          -0.951   1.946   0.026  0.00  0.00     0.085 H 
ATOM     12  H2  <0> d           1.199   3.142   0.007  0.00  0.00     0.089 H 
ATOM     13  H3  <0> d          -2.144  -0.288   0.021  0.00  0.00     0.116 H 
ATOM     14  H4  <0> d           0.139  -3.761  -0.021  0.00  0.00     0.146 H 
ENDROOT
BRANCH   3  15
ATOM     15  N4  <0> d           3.579   2.017  -0.022  0.00  0.00    -0.384 N 
ATOM     16  H5  <0> d           3.587   2.987  -0.017  0.00  0.00     0.157 HD
ATOM     17  H6  <0> d           4.415   1.526  -0.032  0.00  0.00     0.157 HD
ENDBRANCH   3  15
TORSDOF 1
