REMARK  4 active torsions:
REMARK  status: ('A' for Active; 'I' for Inactive)
REMARK    1  A    between atoms: C1_1  and  C2_2 
REMARK    2  A    between atoms: C2_2  and  N1_3 
REMARK    3  A    between atoms: C3_4  and  N3_11 
REMARK    4  A    between atoms: C5_6  and  C6_8 
ROOT
ATOM      1  N1  <0> d           3.398   2.325  -0.513  0.00  0.00    -0.255 N 
ATOM      2  C3  <0> d           3.037   3.093   0.540  0.00  0.00     0.119 A 
ATOM      3  C4  <0> d           1.759   2.761   0.872  0.00  0.00    -0.014 A 
ATOM      4  C5  <0> d           1.338   1.754  -0.001  0.00  0.00     0.062 A 
ATOM      5  N2  <0> d           2.315   1.495  -0.832  0.00  0.00    -0.175 NA
ATOM      6  H6  <0> d           1.175   3.196   1.670  0.00  0.00     0.092 H 
ENDROOT
BRANCH   4   7
ATOM      7  C6  <0> d          -0.013   1.086   0.008  0.00  0.00    -0.010 A 
ATOM      8  C8  <0> d          -1.150   1.781  -0.743  0.00  0.00    -0.056 A 
ATOM      9  C7  <0> d          -1.136   1.773   0.788  0.00  0.00    -0.056 A 
ATOM     10  H10 <0> d          -0.922   2.722  -1.243  0.00  0.00     0.034 H 
ATOM     11  H11 <0> d          -1.883   1.149  -1.243  0.00  0.00     0.034 H 
ATOM     12  H8  <0> d          -1.859   1.135   1.295  0.00  0.00     0.034 H 
ATOM     13  H9  <0> d          -0.897   2.708   1.294  0.00  0.00     0.034 H 
ATOM     14  H7  <0> d           0.002  -0.004   0.002  0.00  0.00     0.049 H 
ENDBRANCH   4   7
BRANCH   2  15
ATOM     15  N3  <0> d           3.826   4.054   1.166  0.00  0.00    -0.384 N 
ATOM     16  H12 <0> d           4.728   4.221   0.851  0.00  0.00     0.157 HD
ATOM     17  H13 <0> d           3.475   4.556   1.918  0.00  0.00     0.157 HD
ENDBRANCH   2  15
BRANCH   1  18
ATOM     18  C2  <0> d           4.692   2.355  -1.199  0.00  0.00     0.015 C 
ATOM     19  H4  <0> d           5.471   2.643  -0.492  0.00  0.00     0.066 H 
ATOM     20  H5  <0> d           4.913   1.366  -1.600  0.00  0.00     0.066 H 
BRANCH  18  21
ATOM     21  C1  <0> d           4.640   3.369  -2.342  0.00  0.00    -0.059 C 
ATOM     22  H1  <0> d           5.603   3.392  -2.853  0.00  0.00     0.029 H 
ATOM     23  H2  <0> d           3.861   3.081  -3.049  0.00  0.00     0.029 H 
ATOM     24  H3  <0> d           4.418   4.358  -1.941  0.00  0.00     0.029 H 
ENDBRANCH  18  21
ENDBRANCH   1  18
TORSDOF 4
