REMARK  4 active torsions:
REMARK  status: ('A' for Active; 'I' for Inactive)
REMARK    1  A    between atoms: C1_1  and  C2_2 
REMARK    2  A    between atoms: C2_2  and  C3_3 
REMARK    3  A    between atoms: C2_2  and  C4_4 
REMARK    4  A    between atoms: C2_2  and  N1_6 
ROOT
ATOM      1  C2  <0> d           0.002  -0.004   0.002  0.00  0.00     0.139 C 
ENDROOT
BRANCH   1   2
ATOM      2  C1  <0> d          -0.019   1.526   0.010  0.00  0.00    -0.042 C 
ATOM      3  H1  <0> d           1.004   1.903   0.003  0.00  0.00     0.031 H 
ATOM      4  H2  <0> d          -0.546   1.887  -0.873  0.00  0.00     0.031 H 
ATOM      5  H3  <0> d          -0.529   1.877   0.907  0.00  0.00     0.031 H 
ENDBRANCH   1   2
BRANCH   1   6
ATOM      6  C3  <0> d           0.742  -0.511   1.242  0.00  0.00    -0.042 C 
ATOM      7  H4  <0> d           0.232  -0.159   2.138  0.00  0.00     0.031 H 
ATOM      8  H5  <0> d           0.757  -1.601   1.236  0.00  0.00     0.031 H 
ATOM      9  H6  <0> d           1.765  -0.134   1.234  0.00  0.00     0.031 H 
ENDBRANCH   1   6
BRANCH   1  10
ATOM     10  C4  <0> d          -1.412  -0.526   0.013  0.00  0.00     0.204 C 
ATOM     11  O1  <0> d          -1.806  -1.221  -0.893  0.00  0.00    -0.646 OA
ATOM     12  O2  <0> d          -2.233  -0.218   1.029  0.00  0.00    -0.646 OA
ENDBRANCH   1  10
BRANCH   1  13
ATOM     13  N1  <0> d           0.688  -0.476  -1.203  0.00  0.00    -0.222 N 
ATOM     14  N4  <0> d           0.965   0.223  -2.252  0.00  0.00    -0.043 NA
ATOM     15  N3  <0> d           1.570  -0.528  -3.104  0.00  0.00    -0.024 NA
ATOM     16  N2  <0> d           1.691  -1.715  -2.618  0.00  0.00    -0.122 NA
ATOM     17  C5  <0> d           1.153  -1.720  -1.423  0.00  0.00     0.109 A 
ATOM     18  H7  <0> d           1.092  -2.560  -0.747  0.00  0.00     0.149 H 
ENDBRANCH   1  13
TORSDOF 4
