REMARK  4 active torsions:
REMARK  status: ('A' for Active; 'I' for Inactive)
REMARK    1  A    between atoms: C1_1  and  C2_2 
REMARK    2  A    between atoms: C3_4  and  O4_13 
REMARK    3  A    between atoms: C4_6  and  O3_12 
REMARK    4  A    between atoms: C5_8  and  O2_11 
ROOT
ATOM      1  C2  <0> d          -0.019   1.541   0.011  0.00  0.00     0.065 C 
ATOM      2  H1  <0> d          -0.525   1.987  -0.858  0.00  0.00     0.086 H 
ATOM      3  C3  <0> d           0.002  -0.004   0.002  0.00  0.00     0.089 C 
ATOM      4  H2  <0> d          -0.863  -0.473  -0.490  0.00  0.00     0.091 H 
ATOM      5  C4  <0> d           1.371  -0.357  -0.622  0.00  0.00     0.110 C 
ATOM      6  H3  <0> d           1.320  -1.036  -1.486  0.00  0.00     0.094 H 
ATOM      7  C5  <0> d           2.015   1.015  -0.917  0.00  0.00     0.156 C 
ATOM      8  H4  <0> d           1.929   1.376  -1.952  0.00  0.00     0.133 H 
ATOM      9  O1  <0> d           1.372   1.929  -0.001  0.00  0.00    -0.351 OA
ENDROOT
BRANCH   1  10
ATOM     10  C1  <0> d          -0.706   2.057   1.276  0.00  0.00    -0.050 C 
ATOM     11  H5  <0> d          -1.763   1.754   1.270  0.00  0.00     0.031 H 
ATOM     12  H6  <0> d          -0.639   3.155   1.308  0.00  0.00     0.031 H 
ATOM     13  H7  <0> d          -0.208   1.634   2.162  0.00  0.00     0.031 H 
ENDBRANCH   1  10
BRANCH   3  14
ATOM     14  O4  <0> d          -0.087  -0.513   1.334  0.00  0.00    -0.390 OA
ATOM     15  H10 <0> d          -0.086  -1.599   1.509  0.00  0.00     0.210 HD
ENDBRANCH   3  14
BRANCH   7  16
ATOM     16  O2  <0> d           3.421   0.968  -0.671  0.00  0.00    -0.369 OA
ATOM     17  H8  <0> d           4.038   1.865  -0.831  0.00  0.00     0.212 HD
ENDBRANCH   7  16
BRANCH   5  18
ATOM     18  O3  <0> d           2.168  -1.096   0.306  0.00  0.00    -0.388 OA
ATOM     19  H9  <0> d           3.177  -1.429   0.021  0.00  0.00     0.210 HD
ENDBRANCH   5  18
TORSDOF 4
