REMARK  1 active torsions:
REMARK  status: ('A' for Active; 'I' for Inactive)
REMARK    1  A    between atoms: C1_1  and  N1_2 
ROOT
ATOM      1  N1  <0> d           0.002  -0.004   0.002  0.00  0.00    -0.328 N 
ATOM      2  C2  <0> d           0.005  -0.663  -1.185  0.00  0.00    -0.015 A 
ATOM      3  C3  <0> d           0.024  -2.014  -1.238  0.00  0.00    -0.031 A 
ATOM      4  C4  <0> d           0.039  -2.765  -0.051  0.00  0.00     0.134 A 
ATOM      5  C5  <0> d           0.035  -2.086   1.176  0.00  0.00     0.148 A 
ATOM      6  C6  <0> d           0.022  -0.671   1.171  0.00  0.00     0.270 A 
ATOM      7  O1  <0> d           0.024  -0.056   2.225  0.00  0.00    -0.266 OA
ATOM      8  C7  <0> d           0.050  -2.812   2.411  0.00  0.00     0.108 C 
ATOM      9  N2  <0> d           0.062  -3.387   3.390  0.00  0.00    -0.191 NA
ATOM     10  O2  <0> d           0.056  -4.116  -0.090  0.00  0.00    -0.190 OA
ATOM     11  H4  <0> d          -0.007  -0.098  -2.104  0.00  0.00     0.111 H 
ATOM     12  H5  <0> d           0.026  -2.517  -2.194  0.00  0.00     0.090 H 
ENDROOT
BRANCH   1  13
ATOM     13  C1  <0> d          -0.018   1.461   0.010  0.00  0.00    -0.011 C 
ATOM     14  H1  <0> d           1.005   1.838   0.002  0.00  0.00     0.057 H 
ATOM     15  H2  <0> d          -0.545   1.822  -0.873  0.00  0.00     0.057 H 
ATOM     16  H3  <0> d          -0.528   1.812   0.907  0.00  0.00     0.057 H 
ENDBRANCH   1  13
TORSDOF 1
