REMARK  5 active torsions:
REMARK  status: ('A' for Active; 'I' for Inactive)
REMARK    1  A    between atoms: C1_1  and  C2_2 
REMARK    2  A    between atoms: C2_2  and  C3_4 
REMARK    3  A    between atoms: C2_2  and  O2_7 
REMARK    4  A    between atoms: C3_4  and  C4_5 
REMARK    5  A    between atoms: C4_5  and  O1_6 
ROOT
ATOM      1  C2  <0> d          -1.413  -2.063   0.004  0.00  0.00     0.034 C 
ATOM      2  H1  <0> d          -0.826  -2.414  -0.845  0.00  0.00     0.082 H 
ENDROOT
BRANCH   1   3
ATOM      3  C1  <0> d          -2.844  -2.592  -0.110  0.00  0.00    -0.052 C 
ATOM      4  H2  <0> d          -3.292  -2.230  -1.036  0.00  0.00     0.030 H 
ATOM      5  H3  <0> d          -2.829  -3.682  -0.116  0.00  0.00     0.030 H 
ATOM      6  H4  <0> d          -3.430  -2.242   0.739  0.00  0.00     0.030 H 
ENDBRANCH   1   3
BRANCH   1   7
ATOM      7  C3  <0> d          -1.433  -0.534   0.013  0.00  0.00    -0.022 C 
ATOM      8  H5  <0> d          -1.944  -0.182   0.910  0.00  0.00     0.039 H 
ATOM      9  H6  <0> d          -1.960  -0.173  -0.870  0.00  0.00     0.039 H 
BRANCH   7  10
ATOM     10  C4  <0> d           0.002  -0.004   0.002  0.00  0.00     0.019 C 
ATOM     11  H7  <0> d           0.512  -0.356  -0.895  0.00  0.00     0.074 H 
ATOM     12  H8  <0> d           0.529  -0.365   0.885  0.00  0.00     0.074 H 
BRANCH  10  13
ATOM     13  O1  <0> d          -0.017   1.425   0.010  0.00  0.00    -0.401 OA
ATOM     14  H9  <0> d           0.861   1.830   0.004  0.00  0.00     0.209 HD
ENDBRANCH  10  13
ENDBRANCH   7  10
ENDBRANCH   1   7
BRANCH   1  15
ATOM     15  O2  <0> d          -0.825  -2.539   1.217  0.00  0.00    -0.396 OA
ATOM     16  H10 <0> d          -1.296  -2.264   2.016  0.00  0.00     0.210 HD
ENDBRANCH   1  15
TORSDOF 5
