REMARK  4 active torsions:
REMARK  status: ('A' for Active; 'I' for Inactive)
REMARK    1  A    between atoms: C1_1  and  C2_2 
REMARK    2  A    between atoms: C2_2  and  C3_3 
REMARK    3  A    between atoms: C2_2  and  C4_4 
REMARK    4  A    between atoms: C4_4  and  C6_8 
REMARK       I    between atoms: C6_8  and  N2_10 
ROOT
ATOM      1  C4  <0> d          -0.729   1.579   1.267  0.00  0.00     0.110 C 
ATOM      2  H1  <0> d          -0.744   2.669   1.273  0.00  0.00     0.078 H 
ATOM      3  C5  <0> d          -0.017   1.092   2.459  0.00  0.00     0.073 C 
ATOM      4  N1  <0> d           0.532   0.715   3.380  0.00  0.00    -0.196 NA
ENDROOT
BRANCH   1   5
ATOM      5  C2  <0> d          -0.013   1.086   0.008  0.00  0.00    -0.037 C 
ATOM      6  H5  <0> d           0.002  -0.004   0.002  0.00  0.00     0.041 H 
BRANCH   5   7
ATOM      7  C1  <0> d           1.423   1.615  -0.003  0.00  0.00    -0.072 C 
ATOM      8  H2  <0> d           1.408   2.705   0.003  0.00  0.00     0.028 H 
ATOM      9  H3  <0> d           1.950   1.254   0.880  0.00  0.00     0.028 H 
ATOM     10  H4  <0> d           1.933   1.264  -0.900  0.00  0.00     0.028 H 
ENDBRANCH   5   7
BRANCH   5  11
ATOM     11  C3  <0> d          -0.753   1.593  -1.232  0.00  0.00    -0.072 C 
ATOM     12  H6  <0> d          -0.767   2.683  -1.226  0.00  0.00     0.028 H 
ATOM     13  H7  <0> d          -0.242   1.241  -2.128  0.00  0.00     0.028 H 
ATOM     14  H8  <0> d          -1.775   1.215  -1.224  0.00  0.00     0.028 H 
ENDBRANCH   5  11
ENDBRANCH   1   5
BRANCH   1  15
ATOM     15  C6  <0> d          -2.143   1.058   1.278  0.00  0.00     0.233 C 
ATOM     16  O1  <0> d          -2.538   0.360   0.368  0.00  0.00    -0.272 OA
ATOM     17  N2  <0> d          -2.967   1.366   2.298  0.00  0.00    -0.369 N 
ATOM     18  H9  <0> d          -2.651   1.925   3.025  0.00  0.00     0.159 HD
ATOM     19  H10 <0> d          -3.877   1.031   2.305  0.00  0.00     0.159 HD
ENDBRANCH   1  15
TORSDOF 4
