REMARK  5 active torsions:
REMARK  status: ('A' for Active; 'I' for Inactive)
REMARK    1  A    between atoms: C1_1  and  C2_2 
REMARK    2  A    between atoms: C3_3  and  C7_9 
REMARK    3  A    between atoms: C4_4  and  C6_8 
REMARK    4  A    between atoms: N1_5  and  C5_7 
REMARK    5  A    between atoms: C7_9  and  O1_10 
ROOT
ATOM      1  C2  <0> d           2.096   0.748  -0.014  0.00  0.00     0.061 A 
ATOM      2  C3  <0> d           1.296  -0.399  -0.013  0.00  0.00     0.015 A 
ATOM      3  C4  <0> d           0.002  -0.004   0.002  0.00  0.00     0.036 A 
ATOM      4  N1  <0> d          -0.016   1.345   0.009  0.00  0.00    -0.278 N 
ATOM      5  N2  <0> d           1.311   1.794  -0.001  0.00  0.00    -0.177 NA
ENDROOT
BRANCH   2   6
ATOM      6  C7  <0> d           1.789  -1.823  -0.025  0.00  0.00     0.044 C 
ATOM      7  H10 <0> d           2.753  -1.879   0.479  0.00  0.00     0.081 H 
ATOM      8  H11 <0> d           1.071  -2.460   0.492  0.00  0.00     0.081 H 
BRANCH   6   9
ATOM      9  O1  <0> d           1.931  -2.266  -1.376  0.00  0.00    -0.396 OA
ATOM     10  H12 <0> d           2.246  -3.177  -1.460  0.00  0.00     0.209 HD
ENDBRANCH   6   9
ENDBRANCH   2   6
BRANCH   1  11
ATOM     11  C1  <0> d           3.603   0.775  -0.028  0.00  0.00    -0.033 C 
ATOM     12  H1  <0> d           3.957   0.787  -1.059  0.00  0.00     0.035 H 
ATOM     13  H2  <0> d           3.955   1.669   0.487  0.00  0.00     0.035 H 
ATOM     14  H3  <0> d           3.987  -0.111   0.478  0.00  0.00     0.035 H 
ENDBRANCH   1  11
BRANCH   3  15
ATOM     15  C6  <0> d          -1.203  -0.909   0.009  0.00  0.00    -0.035 C 
ATOM     16  H7  <0> d          -1.503  -1.122  -1.017  0.00  0.00     0.035 H 
ATOM     17  H8  <0> d          -0.954  -1.841   0.516  0.00  0.00     0.035 H 
ATOM     18  H9  <0> d          -2.023  -0.418   0.533  0.00  0.00     0.035 H 
ENDBRANCH   3  15
BRANCH   4  19
ATOM     19  C5  <0> d          -1.212   2.191   0.020  0.00  0.00     0.003 C 
ATOM     20  H4  <0> d          -1.504   2.395   1.050  0.00  0.00     0.059 H 
ATOM     21  H5  <0> d          -0.998   3.130  -0.490  0.00  0.00     0.059 H 
ATOM     22  H6  <0> d          -2.025   1.677  -0.493  0.00  0.00     0.059 H 
ENDBRANCH   4  19
TORSDOF 5
