REMARK  0 active torsions:
REMARK  status: ('A' for Active; 'I' for Inactive)
ROOT
ATOM      1  C1  <0> d          -0.018   1.462   0.010  0.00  0.00    -0.031 A 
ATOM      2  C2  <0> d           1.265   1.856  -0.000  0.00  0.00     0.022 A 
ATOM      3  O1  <0> d           2.078   0.787  -0.014  0.00  0.00    -0.320 OA
ATOM      4  C3  <0> d           1.365  -0.356  -0.013  0.00  0.00     0.105 A 
ATOM      5  C4  <0> d           0.002  -0.004   0.002  0.00  0.00     0.092 A 
ATOM      6  N1  <0> d          -0.944  -0.938   0.006  0.00  0.00    -0.257 NA
ATOM      7  C5  <0> d          -0.648  -2.217  -0.004  0.00  0.00     0.023 A 
ATOM      8  C6  <0> d           0.684  -2.648  -0.019  0.00  0.00     0.064 A 
ATOM      9  C7  <0> d           1.712  -1.698  -0.024  0.00  0.00    -0.026 A 
ATOM     10  C8  <0> d           0.992  -4.046  -0.028  0.00  0.00     0.101 C 
ATOM     11  N2  <0> d           1.236  -5.156  -0.036  0.00  0.00    -0.191 NA
ATOM     12  H1  <0> d          -0.891   2.098   0.026  0.00  0.00     0.090 H 
ATOM     13  H2  <0> d           1.596   2.884   0.002  0.00  0.00     0.123 H 
ATOM     14  H3  <0> d          -1.443  -2.948   0.000  0.00  0.00     0.117 H 
ATOM     15  H4  <0> d           2.748  -2.003  -0.036  0.00  0.00     0.090 H 
ENDROOT
TORSDOF 0
