REMARK  7 active torsions:
REMARK  status: ('A' for Active; 'I' for Inactive)
REMARK    1  A    between atoms: C1_1  and  C2_2 
REMARK    2  A    between atoms: C2_2  and  C3_3 
REMARK    3  A    between atoms: C2_2  and  C4_4 
REMARK    4  A    between atoms: C2_2  and  O1_6 
REMARK    5  A    between atoms: O1_6  and  C6_7 
REMARK    6  A    between atoms: C6_7  and  O2_8 
REMARK    7  A    between atoms: O2_8  and  C7_9 
ROOT
ATOM      1  C4  <0> d           0.002  -0.004   0.002  0.00  0.00    -0.080 C 
ATOM      2  C5  <0> d           0.018  -1.178  -0.004  0.00  0.00    -0.151 C 
ATOM      3  H7  <0> d           0.033  -2.278  -0.010  0.00  0.00     0.166 H 
ENDROOT
BRANCH   1   4
ATOM      4  C2  <0> d          -0.018   1.468   0.010  0.00  0.00     0.118 C 
BRANCH   4   5
ATOM      5  C1  <0> d          -0.758   1.975  -1.229  0.00  0.00    -0.038 C 
ATOM      6  H1  <0> d          -0.243   1.620  -2.134  0.00  0.00     0.033 H 
ATOM      7  H2  <0> d          -0.773   3.075  -1.223  0.00  0.00     0.033 H 
ATOM      8  H3  <0> d          -1.790   1.594  -1.222  0.00  0.00     0.033 H 
ENDBRANCH   4   5
BRANCH   4   9
ATOM      9  C3  <0> d          -0.734   1.961   1.269  0.00  0.00    -0.038 C 
ATOM     10  H4  <0> d          -0.202   1.597   2.160  0.00  0.00     0.033 H 
ATOM     11  H5  <0> d          -1.766   1.580   1.277  0.00  0.00     0.033 H 
ATOM     12  H6  <0> d          -0.749   3.061   1.275  0.00  0.00     0.033 H 
ENDBRANCH   4   9
BRANCH   4  13
ATOM     13  O1  <0> d           1.323   1.962  -0.000  0.00  0.00    -0.344 OA
BRANCH  13  14
ATOM     14  C6  <0> d           1.416   3.388   0.007  0.00  0.00     0.104 C 
ATOM     15  H8  <0> d           2.437   3.690  -0.270  0.00  0.00     0.117 H 
ATOM     16  H9  <0> d           0.702   3.806  -0.718  0.00  0.00     0.117 H 
BRANCH  14  17
ATOM     17  O2  <0> d           1.112   3.879   1.314  0.00  0.00    -0.372 OA
BRANCH  17  18
ATOM     18  C7  <0> d           2.158   3.681   2.267  0.00  0.00     0.006 C 
ATOM     19  H10 <0> d           1.846   4.085   3.242  0.00  0.00     0.066 H 
ATOM     20  H11 <0> d           3.066   4.201   1.929  0.00  0.00     0.066 H 
ATOM     21  H12 <0> d           2.366   2.606   2.365  0.00  0.00     0.066 H 
ENDBRANCH  17  18
ENDBRANCH  14  17
ENDBRANCH  13  14
ENDBRANCH   4  13
ENDBRANCH   1   4
TORSDOF 7
