REMARK  8 active torsions:
REMARK  status: ('A' for Active; 'I' for Inactive)
REMARK    1  A    between atoms: C1_1  and  N1_2 
REMARK    2  A    between atoms: N1_2  and  C2_3 
REMARK    3  A    between atoms: N1_2  and  C3_4 
REMARK    4  A    between atoms: C3_4  and  N2_5 
REMARK    5  A    between atoms: C3_4  and  O1_8 
REMARK    6  A    between atoms: N2_5  and  C4_6 
REMARK    7  A    between atoms: N2_5  and  C5_7 
REMARK    8  A    between atoms: O1_8  and  C6_9 
ROOT
ATOM      1  C3  <0> d          -0.005   1.078   0.005  0.00  0.00     0.409 C 
ATOM      2  H7  <0> d          -0.025  -0.021   0.037  0.00  0.00     0.187 H 
ENDROOT
BRANCH   1   3
ATOM      3  N1  <0> d          -0.782   1.567  -1.141  0.00  0.00     0.139 N 
BRANCH   3   4
ATOM      4  C1  <0> d           0.037   2.428  -2.004  0.00  0.00     0.100 C 
ATOM      5  H1  <0> d           0.452   3.255  -1.409  0.00  0.00     0.072 H 
ATOM      6  H2  <0> d          -0.586   2.836  -2.813  0.00  0.00     0.072 H 
ATOM      7  H3  <0> d           0.860   1.839  -2.436  0.00  0.00     0.072 H 
ENDBRANCH   3   4
BRANCH   3   8
ATOM      8  C2  <0> d          -1.354   0.449  -1.904  0.00  0.00     0.100 C 
ATOM      9  H4  <0> d          -1.961  -0.178  -1.236  0.00  0.00     0.072 H 
ATOM     10  H5  <0> d          -0.541  -0.154  -2.336  0.00  0.00     0.072 H 
ATOM     11  H6  <0> d          -1.987   0.843  -2.713  0.00  0.00     0.072 H 
ENDBRANCH   3   8
ENDBRANCH   1   3
BRANCH   1  12
ATOM     12  N2  <0> d          -0.563   1.631   1.247  0.00  0.00     0.139 N 
BRANCH  12  13
ATOM     13  C4  <0> d          -0.612   3.099   1.194  0.00  0.00     0.100 C 
ATOM     14  H8  <0> d          -1.032   3.486   2.133  0.00  0.00     0.072 H 
ATOM     15  H9  <0> d          -1.245   3.414   0.351  0.00  0.00     0.072 H 
ATOM     16  H10 <0> d           0.405   3.495   1.057  0.00  0.00     0.072 H 
ENDBRANCH  12  13
BRANCH  12  17
ATOM     17  C5  <0> d          -1.892   1.070   1.523  0.00  0.00     0.100 C 
ATOM     18  H11 <0> d          -2.285   1.500   2.455  0.00  0.00     0.072 H 
ATOM     19  H12 <0> d          -1.814  -0.022   1.627  0.00  0.00     0.072 H 
ATOM     20  H13 <0> d          -2.572   1.311   0.692  0.00  0.00     0.072 H 
ENDBRANCH  12  17
ENDBRANCH   1  12
BRANCH   1  21
ATOM     21  O1  <0> d           1.356   1.491  -0.131  0.00  0.00    -0.340 OA
BRANCH  21  22
ATOM     22  C6  <0> d           2.263   0.796   0.727  0.00  0.00     0.008 C 
ATOM     23  H14 <0> d           3.284   1.171   0.562  0.00  0.00     0.066 H 
ATOM     24  H15 <0> d           2.227  -0.280   0.504  0.00  0.00     0.066 H 
ATOM     25  H16 <0> d           1.977   0.963   1.776  0.00  0.00     0.066 H 
ENDBRANCH  21  22
ENDBRANCH   1  21
TORSDOF 8
