REMARK  2 active torsions:
REMARK  status: ('A' for Active; 'I' for Inactive)
REMARK    1  A    between atoms: C1_1  and  C2_2 
REMARK    2  A    between atoms: C7_10  and  C8_12 
ROOT
ATOM      1  C2  <0> d           2.593   1.017   0.396  0.00  0.00    -0.036 A 
ATOM      2  H1  <0> d           2.747   0.137  -0.246  0.00  0.00     0.046 H 
ATOM      3  C3  <0> d           2.391   0.592   1.826  0.00  0.00    -0.102 A 
ATOM      4  C4  <0> d           1.254   1.007   2.298  0.00  0.00    -0.101 A 
ATOM      5  C5  <0> d           0.475   1.791   1.275  0.00  0.00    -0.020 A 
ATOM      6  H2  <0> d          -0.051   2.462   1.969  0.00  0.00     0.048 H 
ATOM      7  C6  <0> d           1.335   1.810  -0.001  0.00  0.00    -0.027 A 
ATOM      8  H3  <0> d           1.759   2.494  -0.751  0.00  0.00     0.043 H 
ATOM      9  C7  <0> d          -0.013   1.086   0.008  0.00  0.00     0.042 A 
ATOM     10  H4  <0> d          -0.356   0.070  -0.238  0.00  0.00     0.058 H 
ATOM     11  H8  <0> d           3.068   0.005   2.463  0.00  0.00     0.076 H 
ATOM     12  H9  <0> d           0.968   0.771   3.333  0.00  0.00     0.077 H 
ENDROOT
BRANCH   1  13
ATOM     13  C1  <0> d           3.833   1.905   0.281  0.00  0.00    -0.069 C 
ATOM     14  H5  <0> d           4.725   1.329   0.567  0.00  0.00     0.028 H 
ATOM     15  H6  <0> d           3.727   2.772   0.950  0.00  0.00     0.028 H 
ATOM     16  H7  <0> d           3.939   2.254  -0.757  0.00  0.00     0.028 H 
ENDBRANCH   1  13
BRANCH   9  17
ATOM     17  C8  <0> d          -1.149   1.724  -0.748  0.00  0.00     0.178 C 
ATOM     18  O1  <0> d          -0.977   2.769  -1.330  0.00  0.00    -0.648 OA
ATOM     19  O2  <0> d          -2.353   1.132  -0.776  0.00  0.00    -0.648 OA
ENDBRANCH   9  17
TORSDOF 2
