REMARK  4 active torsions:
REMARK  status: ('A' for Active; 'I' for Inactive)
REMARK    1  A    between atoms: C1_1  and  C2_2 
REMARK    2  A    between atoms: C1_1  and  O2_8 
REMARK    3  A    between atoms: C2_2  and  O1_3 
REMARK    4  A    between atoms: O1_3  and  C3_4 
ROOT
ATOM      1  C2  <0> d          -0.072   1.435   2.406  0.00  0.00     0.048 C 
ATOM      2  H3  <0> d           0.959   1.817   2.448  0.00  0.00     0.078 H 
ATOM      3  H4  <0> d          -0.058   0.337   2.450  0.00  0.00     0.078 H 
ENDROOT
BRANCH   1   4
ATOM      4  C1  <0> d          -0.868   1.984   3.592  0.00  0.00     0.037 C 
ATOM      5  H1  <0> d          -0.347   1.736   4.529  0.00  0.00     0.077 H 
ATOM      6  H2  <0> d          -0.958   3.076   3.500  0.00  0.00     0.077 H 
BRANCH   4   7
ATOM      7  O2  <0> d          -2.171   1.397   3.603  0.00  0.00    -0.399 OA
ATOM      8  H5  <0> d          -2.891   1.672   4.388  0.00  0.00     0.209 HD
ENDBRANCH   4   7
ENDBRANCH   1   4
BRANCH   1   9
ATOM      9  O1  <0> d          -0.686   1.856   1.185  0.00  0.00    -0.296 OA
BRANCH   9  10
ATOM     10  C3  <0> d          -0.017   1.395   0.010  0.00  0.00     0.524 C 
ATOM     11  F1  <0> d           0.002  -0.004   0.002  0.00  0.00    -0.144 F 
ATOM     12  F2  <0> d           1.296   1.879  -0.000  0.00  0.00    -0.144 F 
ATOM     13  F3  <0> d          -0.694   1.858  -1.124  0.00  0.00    -0.144 F 
ENDBRANCH   9  10
ENDBRANCH   1   9
TORSDOF 4
