REMARK  7 active torsions:
REMARK  status: ('A' for Active; 'I' for Inactive)
REMARK    1  A    between atoms: C1_1  and  C2_2 
REMARK    2  A    between atoms: C2_2  and  C3_3 
REMARK    3  A    between atoms: C4_4  and  C5_5 
REMARK    4  A    between atoms: C5_5  and  C6_6 
REMARK    5  A    between atoms: C6_6  and  C7_7 
REMARK    6  A    between atoms: C8_8  and  C9_9 
REMARK    7  A    between atoms: C9_9  and  O1_10 
ROOT
ATOM      1  C5  <0> d          -0.943  -0.764   1.921  0.00  0.00    -0.047 C 
ATOM      2  H8  <0> d          -1.874  -1.260   1.647  0.00  0.00     0.039 H 
ATOM      3  H9  <0> d          -0.208  -0.908   1.129  0.00  0.00     0.039 H 
ENDROOT
BRANCH   1   4
ATOM      4  C4  <0> d          -1.196   0.709   2.110  0.00  0.00    -0.106 C 
ATOM      5  C3  <0> d          -0.658   1.577   1.289  0.00  0.00    -0.107 C 
ATOM      6  H6  <0> d          -0.738   2.634   1.493  0.00  0.00     0.076 H 
ATOM      7  H7  <0> d          -1.821   1.050   2.923  0.00  0.00     0.076 H 
BRANCH   5   8
ATOM      8  C2  <0> d           0.070   1.099   0.059  0.00  0.00    -0.053 C 
ATOM      9  H4  <0> d          -0.068   0.024  -0.050  0.00  0.00     0.038 H 
ATOM     10  H5  <0> d           1.133   1.320   0.158  0.00  0.00     0.038 H 
BRANCH   8  11
ATOM     11  C1  <0> d          -0.486   1.814  -1.173  0.00  0.00    -0.073 C 
ATOM     12  H1  <0> d          -1.549   1.593  -1.272  0.00  0.00     0.027 H 
ATOM     13  H2  <0> d          -0.348   2.889  -1.064  0.00  0.00     0.027 H 
ATOM     14  H3  <0> d           0.041   1.468  -2.063  0.00  0.00     0.027 H 
ENDBRANCH   8  11
ENDBRANCH   5   8
ENDBRANCH   1   4
BRANCH   1  15
ATOM     15  C6  <0> d          -0.411  -1.362   3.225  0.00  0.00    -0.047 C 
ATOM     16  H10 <0> d           0.520  -0.866   3.499  0.00  0.00     0.039 H 
ATOM     17  H11 <0> d          -1.147  -1.218   4.017  0.00  0.00     0.039 H 
BRANCH  15  18
ATOM     18  C7  <0> d          -0.159  -2.836   3.036  0.00  0.00    -0.104 C 
ATOM     19  C8  <0> d           1.022  -3.337   3.301  0.00  0.00    -0.084 C 
ATOM     20  H13 <0> d           1.815  -2.694   3.654  0.00  0.00     0.079 H 
ATOM     21  H12 <0> d          -0.951  -3.478   2.682  0.00  0.00     0.076 H 
BRANCH  19  22
ATOM     22  C9  <0> d           1.275  -4.810   3.111  0.00  0.00     0.032 C 
ATOM     23  H14 <0> d           1.306  -5.301   4.084  0.00  0.00     0.080 H 
ATOM     24  H15 <0> d           0.474  -5.242   2.511  0.00  0.00     0.080 H 
BRANCH  22  25
ATOM     25  O1  <0> d           2.525  -4.997   2.444  0.00  0.00    -0.397 OA
ATOM     26  H16 <0> d           2.753  -5.924   2.288  0.00  0.00     0.209 HD
ENDBRANCH  22  25
ENDBRANCH  19  22
ENDBRANCH  15  18
ENDBRANCH   1  15
TORSDOF 7
