REMARK  0 active torsions:
REMARK  status: ('A' for Active; 'I' for Inactive)
ROOT
ATOM      1  C1  <0> d           1.198  -0.696  -0.013  0.00  0.00    -0.066 A 
ATOM      2  C2  <0> d           2.387   0.018  -0.020  0.00  0.00    -0.074 A 
ATOM      3  C3  <0> d           2.328   1.404  -0.012  0.00  0.00    -0.033 A 
ATOM      4  C4  <0> d           1.096   2.030   0.003  0.00  0.00     0.040 A 
ATOM      5  N1  <0> d          -0.016   1.313   0.009  0.00  0.00    -0.265 NA
ATOM      6  C5  <0> d           0.002  -0.004   0.002  0.00  0.00     0.003 A 
ATOM      7  C6  <0> d           1.289   3.532   0.008  0.00  0.00    -0.024 C 
ATOM      8  C7  <0> d           2.756   3.750   0.436  0.00  0.00    -0.056 C 
ATOM      9  C8  <0> d           3.432   2.438  -0.016  0.00  0.00    -0.039 C 
ATOM     10  H1  <0> d           1.207  -1.775  -0.018  0.00  0.00     0.085 H 
ATOM     11  H2  <0> d           3.338  -0.494  -0.032  0.00  0.00     0.084 H 
ATOM     12  H3  <0> d          -0.930  -0.550   0.007  0.00  0.00     0.114 H 
ATOM     13  H4  <0> d           0.613   3.998   0.725  0.00  0.00     0.042 H 
ATOM     14  H5  <0> d           1.122   3.940  -0.989  0.00  0.00     0.042 H 
ATOM     15  H6  <0> d           2.830   3.872   1.517  0.00  0.00     0.034 H 
ATOM     16  H7  <0> d           3.188   4.606  -0.082  0.00  0.00     0.034 H 
ATOM     17  H8  <0> d           4.217   2.155   0.685  0.00  0.00     0.040 H 
ATOM     18  H9  <0> d           3.843   2.548  -1.019  0.00  0.00     0.040 H 
ENDROOT
TORSDOF 0
