REMARK  5 active torsions:
REMARK  status: ('A' for Active; 'I' for Inactive)
REMARK    1  A    between atoms: C1_1  and  C2_2 
REMARK    2  A    between atoms: C2_2  and  C3_3 
REMARK    3  A    between atoms: C3_3  and  C4_4 
REMARK    4  A    between atoms: C4_4  and  C5_5 
REMARK    5  A    between atoms: C6_7  and  C9_13 
ROOT
ATOM      1  C5  <0> d           2.178   0.606   0.384  0.00  0.00     0.051 C 
ATOM      2  H1  <0> d           2.320   0.552   1.464  0.00  0.00     0.084 H 
ATOM      3  C6  <0> d           1.470   1.925  -0.002  0.00  0.00    -0.023 C 
ATOM      4  H2  <0> d           1.662   2.700   0.739  0.00  0.00     0.044 H 
ATOM      5  C7  <0> d          -0.018   1.509   0.010  0.00  0.00     0.021 C 
ATOM      6  C8  <0> d           0.002  -0.004   0.002  0.00  0.00     0.259 C 
ATOM      7  O1  <0> d          -0.976  -0.712   0.048  0.00  0.00    -0.265 OA
ATOM      8  O2  <0> d           1.268  -0.441  -0.063  0.00  0.00    -0.316 OA
ATOM      9  H12 <0> d          -0.525   1.887  -0.878  0.00  0.00     0.048 H 
ATOM     10  H13 <0> d          -0.508   1.877   0.912  0.00  0.00     0.048 H 
ENDROOT
BRANCH   1  11
ATOM     11  C4  <0> d           3.523   0.489  -0.336  0.00  0.00    -0.040 C 
ATOM     12  H10 <0> d           3.358   0.473  -1.413  0.00  0.00     0.036 H 
ATOM     13  H11 <0> d           4.150   1.343  -0.077  0.00  0.00     0.036 H 
BRANCH  11  14
ATOM     14  C3  <0> d           4.220  -0.804   0.093  0.00  0.00    -0.063 C 
ATOM     15  H8  <0> d           4.385  -0.788   1.170  0.00  0.00     0.033 H 
ATOM     16  H9  <0> d           3.594  -1.657  -0.166  0.00  0.00     0.033 H 
BRANCH  14  17
ATOM     17  C2  <0> d           5.565  -0.921  -0.627  0.00  0.00    -0.068 C 
ATOM     18  H6  <0> d           5.400  -0.937  -1.705  0.00  0.00     0.032 H 
ATOM     19  H7  <0> d           6.191  -0.068  -0.368  0.00  0.00     0.032 H 
BRANCH  17  20
ATOM     20  C1  <0> d           6.262  -2.214  -0.199  0.00  0.00    -0.077 C 
ATOM     21  H3  <0> d           5.635  -3.067  -0.458  0.00  0.00     0.027 H 
ATOM     22  H4  <0> d           7.220  -2.297  -0.712  0.00  0.00     0.027 H 
ATOM     23  H5  <0> d           6.427  -2.198   0.878  0.00  0.00     0.027 H 
ENDBRANCH  17  20
ENDBRANCH  14  17
ENDBRANCH  11  14
ENDBRANCH   1  11
BRANCH   3  24
ATOM     24  C9  <0> d           1.896   2.384  -1.397  0.00  0.00    -0.070 C 
ATOM     25  H14 <0> d           1.308   3.255  -1.688  0.00  0.00     0.028 H 
ATOM     26  H15 <0> d           2.954   2.647  -1.386  0.00  0.00     0.028 H 
ATOM     27  H16 <0> d           1.729   1.578  -2.112  0.00  0.00     0.028 H 
ENDBRANCH   3  24
TORSDOF 5
