REMARK  4 active torsions:
REMARK  status: ('A' for Active; 'I' for Inactive)
REMARK    1  A    between atoms: C1_1  and  C2_2 
REMARK    2  A    between atoms: C2_2  and  C3_3 
REMARK    3  A    between atoms: C2_2  and  C4_4 
REMARK    4  A    between atoms: C6_6  and  C7_9 
ROOT
ATOM      1  C2  <0> d           2.500   1.546  -0.014  0.00  0.00    -0.012 C 
ATOM      2  H4  <0> d           2.595   0.460  -0.021  0.00  0.00     0.049 H 
ENDROOT
BRANCH   1   3
ATOM      3  C1  <0> d           3.163   2.124  -1.266  0.00  0.00    -0.067 C 
ATOM      4  H1  <0> d           3.069   3.210  -1.259  0.00  0.00     0.028 H 
ATOM      5  H2  <0> d           4.218   1.850  -1.278  0.00  0.00     0.028 H 
ATOM      6  H3  <0> d           2.674   1.722  -2.154  0.00  0.00     0.028 H 
ENDBRANCH   1   3
BRANCH   1   7
ATOM      7  C3  <0> d           3.187   2.110   1.232  0.00  0.00    -0.067 C 
ATOM      8  H5  <0> d           2.715   1.698   2.124  0.00  0.00     0.028 H 
ATOM      9  H6  <0> d           4.242   1.836   1.220  0.00  0.00     0.028 H 
ATOM     10  H7  <0> d           3.093   3.195   1.239  0.00  0.00     0.028 H 
ENDBRANCH   1   7
BRANCH   1  11
ATOM     11  C4  <0> d           1.042   1.924   0.002  0.00  0.00     0.085 A 
ATOM     12  O1  <0> d           0.537   3.165   0.014  0.00  0.00    -0.217 OA
ATOM     13  N1  <0> d          -0.672   3.159   0.025  0.00  0.00    -0.121 NA
ATOM     14  C6  <0> d          -1.145   1.937   0.017  0.00  0.00     0.163 A 
ATOM     15  C5  <0> d          -0.013   1.076   0.008  0.00  0.00    -0.015 A 
ATOM     16  H8  <0> d           0.002  -0.004   0.002  0.00  0.00     0.091 H 
BRANCH  14  17
ATOM     17  C7  <0> d          -2.571   1.534   0.021  0.00  0.00     0.231 C 
ATOM     18  O2  <0> d          -2.869   0.357   0.015  0.00  0.00    -0.643 OA
ATOM     19  O3  <0> d          -3.537   2.473   0.029  0.00  0.00    -0.643 OA
ENDBRANCH  14  17
ENDBRANCH   1  11
TORSDOF 4
