REMARK  3 active torsions:
REMARK  status: ('A' for Active; 'I' for Inactive)
REMARK    1  A    between atoms: C1_1  and  C2_2 
REMARK    2  A    between atoms: C4_4  and  C8_11 
REMARK    3  A    between atoms: C5_5  and  C7_8 
ROOT
ATOM      1  C2  <0> d          -0.241  -0.030   0.040  0.00  0.00    -0.044 A 
ATOM      2  C3  <0> d           0.134  -0.628  -1.153  0.00  0.00    -0.068 A 
ATOM      3  C4  <0> d           0.400  -1.988  -1.156  0.00  0.00    -0.026 A 
ATOM      4  C5  <0> d           0.283  -2.703   0.035  0.00  0.00     0.138 A 
ATOM      5  N1  <0> d          -0.078  -2.091   1.156  0.00  0.00    -0.253 NA
ATOM      6  C6  <0> d          -0.331  -0.801   1.188  0.00  0.00     0.009 A 
ATOM      7  H4  <0> d           0.215  -0.047  -2.061  0.00  0.00     0.085 H 
ATOM      8  H5  <0> d          -0.618  -0.338   2.120  0.00  0.00     0.115 H 
ENDROOT
BRANCH   1   9
ATOM      9  C1  <0> d          -0.540   1.446   0.089  0.00  0.00    -0.050 C 
ATOM     10  H1  <0> d           0.375   1.996   0.309  0.00  0.00     0.033 H 
ATOM     11  H2  <0> d          -0.936   1.770  -0.874  0.00  0.00     0.033 H 
ATOM     12  H3  <0> d          -1.277   1.641   0.869  0.00  0.00     0.033 H 
ENDBRANCH   1   9
BRANCH   3  13
ATOM     13  C8  <0> d           0.810  -2.684  -2.428  0.00  0.00    -0.049 C 
ATOM     14  H6  <0> d           1.897  -2.757  -2.469  0.00  0.00     0.033 H 
ATOM     15  H7  <0> d           0.378  -3.684  -2.451  0.00  0.00     0.033 H 
ATOM     16  H8  <0> d           0.453  -2.114  -3.286  0.00  0.00     0.033 H 
ENDBRANCH   3  13
BRANCH   4  17
ATOM     17  C7  <0> d           0.564  -4.155   0.049  0.00  0.00     0.229 C 
ATOM     18  O1  <0> d           1.181  -4.668  -0.874  0.00  0.00    -0.643 OA
ATOM     19  O2  <0> d           0.179  -4.843   0.983  0.00  0.00    -0.643 OA
ENDBRANCH   4  17
TORSDOF 3
