REMARK  1 active torsions:
REMARK  status: ('A' for Active; 'I' for Inactive)
REMARK    1  A    between atoms: C2_2  and  N3_9 
ROOT
ATOM      1  C1  <0> d          -0.013   1.076   0.008  0.00  0.00    -0.011 A 
ATOM      2  C2  <0> d          -1.204   1.746   0.017  0.00  0.00     0.099 A 
ATOM      3  C3  <0> d          -1.197   3.164   0.030  0.00  0.00     0.287 A 
ATOM      4  O1  <0> d          -2.248   3.785   0.044  0.00  0.00    -0.264 OA
ATOM      5  N1  <0> d          -0.018   3.818   0.023  0.00  0.00    -0.240 N 
ATOM      6  N2  <0> d           1.184   3.103   0.008  0.00  0.00    -0.160 NA
ATOM      7  C4  <0> d           1.189   1.796   0.000  0.00  0.00     0.148 A 
ATOM      8 Cl1  <0> d           2.701   0.943  -0.019  0.00  0.00    -0.060 Cl
ATOM      9  H1  <0> d           0.002  -0.004   0.002  0.00  0.00     0.092 H 
ATOM     10  H4  <0> d           0.000   4.918   0.030  0.00  0.00     0.192 HD
ENDROOT
BRANCH   2  11
ATOM     11  N3  <0> d          -2.409   1.045   0.019  0.00  0.00    -0.395 N 
ATOM     12  H2  <0> d          -3.363   1.592   0.026  0.00  0.00     0.156 HD
ATOM     13  H3  <0> d          -2.406  -0.055   0.013  0.00  0.00     0.156 HD
ENDBRANCH   2  11
TORSDOF 1
