REMARK  5 active torsions:
REMARK  status: ('A' for Active; 'I' for Inactive)
REMARK    1  A    between atoms: C1_1  and  C2_2 
REMARK    2  A    between atoms: C2_2  and  C3_3 
REMARK    3  A    between atoms: C2_2  and  C4_4 
REMARK    4  A    between atoms: C2_2  and  O2_6 
REMARK    5  A    between atoms: O2_6  and  C5_7 
ROOT
ATOM      1  C2  <0> d          -1.331   2.074   0.020  0.00  0.00     0.140 C 
ENDROOT
BRANCH   1   2
ATOM      2  C1  <0> d          -2.134   1.700  -1.228  0.00  0.00    -0.038 C 
ATOM      3  H1  <0> d          -2.319   0.626  -1.233  0.00  0.00     0.032 H 
ATOM      4  H2  <0> d          -3.086   2.232  -1.220  0.00  0.00     0.032 H 
ATOM      5  H3  <0> d          -1.571   1.976  -2.119  0.00  0.00     0.032 H 
ENDBRANCH   1   2
BRANCH   1   6
ATOM      6  C3  <0> d          -2.123   1.687   1.271  0.00  0.00    -0.038 C 
ATOM      7  H4  <0> d          -1.550   1.953   2.159  0.00  0.00     0.032 H 
ATOM      8  H5  <0> d          -3.074   2.219   1.278  0.00  0.00     0.032 H 
ATOM      9  H6  <0> d          -2.307   0.612   1.266  0.00  0.00     0.032 H 
ENDBRANCH   1   6
BRANCH   1  10
ATOM     10  C4  <0> d          -0.016   1.338   0.009  0.00  0.00     0.208 C 
ATOM     11  O1  <0> d           1.022   1.956   0.003  0.00  0.00    -0.646 OA
ATOM     12  O3  <0> d           0.002  -0.004   0.002  0.00  0.00    -0.646 OA
ENDBRANCH   1  10
BRANCH   1  13
ATOM     13  O2  <0> d          -1.089   3.482   0.026  0.00  0.00    -0.375 OA
BRANCH  13  14
ATOM     14  C5  <0> d          -2.277   4.276   0.036  0.00  0.00     0.006 C 
ATOM     15  H7  <0> d          -2.869   4.056  -0.852  0.00  0.00     0.066 H 
ATOM     16  H8  <0> d          -2.861   4.046   0.928  0.00  0.00     0.066 H 
ATOM     17  H9  <0> d          -2.009   5.332   0.041  0.00  0.00     0.066 H 
ENDBRANCH  13  14
ENDBRANCH   1  13
TORSDOF 5
