REMARK  0 active torsions:
REMARK  status: ('A' for Active; 'I' for Inactive)
ROOT
ATOM      1  C1  <0> d          -1.224   2.131   0.019  0.00  0.00    -0.044 A 
ATOM      2  C2  <0> d          -1.198   3.513   0.032  0.00  0.00     0.003 A 
ATOM      3  N1  <0> d          -0.058   4.175   0.025  0.00  0.00    -0.271 NA
ATOM      4  C3  <0> d           1.109   3.564   0.010  0.00  0.00     0.023 A 
ATOM      5  C4  <0> d           1.183   2.171   0.002  0.00  0.00     0.082 A 
ATOM      6  C5  <0> d          -0.017   1.428   0.010  0.00  0.00     0.068 A 
ATOM      7  C6  <0> d           0.002  -0.004   0.002  0.00  0.00     0.101 C 
ATOM      8  N2  <0> d           0.018  -1.140  -0.004  0.00  0.00    -0.191 NA
ATOM      9  C7  <0> d           2.453   1.508  -0.013  0.00  0.00     0.102 C 
ATOM     10  N3  <0> d           3.459   0.983  -0.026  0.00  0.00    -0.191 NA
ATOM     11  H1  <0> d          -2.166   1.601   0.021  0.00  0.00     0.088 H 
ATOM     12  H2  <0> d          -2.129   4.060   0.044  0.00  0.00     0.114 H 
ATOM     13  H3  <0> d           2.018   4.148   0.005  0.00  0.00     0.117 H 
ENDROOT
TORSDOF 0
