REMARK  1 active torsions:
REMARK  status: ('A' for Active; 'I' for Inactive)
REMARK    1  A    between atoms: C3_4  and  C5_7 
REMARK       I    between atoms: C5_7  and  N3_9 
ROOT
ATOM      1  C1  <0> d          -0.016   1.317   0.009  0.00  0.00     0.019 A 
ATOM      2  C2  <0> d           1.174   2.031   0.002  0.00  0.00     0.020 A 
ATOM      3  N1  <0> d           2.328   1.394  -0.013  0.00  0.00    -0.253 NA
ATOM      4  C3  <0> d           2.351   0.064  -0.021  0.00  0.00     0.141 A 
ATOM      5  C4  <0> d           1.154  -0.650  -0.013  0.00  0.00     0.035 A 
ATOM      6  N2  <0> d           0.002  -0.004   0.002  0.00  0.00    -0.269 NA
ATOM      7  H1  <0> d          -0.959   1.843   0.026  0.00  0.00     0.117 H 
ATOM      8  H2  <0> d           1.155   3.111   0.008  0.00  0.00     0.117 H 
ATOM      9  H3  <0> d           1.169  -1.730  -0.018  0.00  0.00     0.118 H 
ENDROOT
BRANCH   4  10
ATOM     10  C5  <0> d           3.646  -0.656  -0.038  0.00  0.00     0.269 C 
ATOM     11  O1  <0> d           3.665  -1.871  -0.044  0.00  0.00    -0.266 OA
ATOM     12  N3  <0> d           4.802   0.037  -0.046  0.00  0.00    -0.365 N 
ATOM     13  H4  <0> d           4.786   1.007  -0.041  0.00  0.00     0.159 HD
ATOM     14  H5  <0> d           5.650  -0.435  -0.057  0.00  0.00     0.159 HD
ENDBRANCH   4  10
TORSDOF 1
