REMARK  1 active torsions:
REMARK  status: ('A' for Active; 'I' for Inactive)
REMARK    1  A    between atoms: C1_1  and  C2_2 
ROOT
ATOM      1  C2  <0> d           1.173   2.163   0.003  0.00  0.00    -0.024 A 
ATOM      2  C3  <0> d           1.107   3.542   0.010  0.00  0.00     0.009 A 
ATOM      3  N1  <0> d          -0.055   4.165   0.024  0.00  0.00    -0.272 NA
ATOM      4  C4  <0> d          -1.200   3.511   0.032  0.00  0.00     0.003 A 
ATOM      5  C5  <0> d          -1.228   2.131   0.019  0.00  0.00    -0.045 A 
ATOM      6  C6  <0> d          -0.017   1.428   0.010  0.00  0.00     0.053 A 
ATOM      7  C7  <0> d           0.002  -0.004   0.002  0.00  0.00     0.100 C 
ATOM      8  N2  <0> d           0.018  -1.140  -0.004  0.00  0.00    -0.191 NA
ATOM      9  H4  <0> d           2.021   4.119   0.004  0.00  0.00     0.115 H 
ATOM     10  H5  <0> d          -2.128   4.062   0.044  0.00  0.00     0.114 H 
ATOM     11  H6  <0> d          -2.169   1.601   0.021  0.00  0.00     0.088 H 
ENDROOT
BRANCH   1  12
ATOM     12  C1  <0> d           2.506   1.461  -0.014  0.00  0.00    -0.048 C 
ATOM     13  H1  <0> d           2.818   1.297  -1.046  0.00  0.00     0.033 H 
ATOM     14  H2  <0> d           3.247   2.076   0.496  0.00  0.00     0.033 H 
ATOM     15  H3  <0> d           2.417   0.501   0.496  0.00  0.00     0.033 H 
ENDBRANCH   1  12
TORSDOF 1
