REMARK  4 active torsions:
REMARK  status: ('A' for Active; 'I' for Inactive)
REMARK    1  A    between atoms: C1_1  and  C2_2 
REMARK    2  A    between atoms: C2_2  and  C3_3 
REMARK    3  A    between atoms: C2_2  and  C4_4 
REMARK    4  A    between atoms: N3_8  and  C6_9 
ROOT
ATOM      1  C4  <0> d          -1.412  -0.526   0.013  0.00  0.00     0.132 A 
ATOM      2  N1  <0> d          -2.312  -0.300   0.930  0.00  0.00    -0.135 NA
ATOM      3  N2  <0> d          -3.407  -0.899   0.618  0.00  0.00    -0.143 NA
ATOM      4  C5  <0> d          -3.254  -1.534  -0.512  0.00  0.00     0.088 A 
ATOM      5  N3  <0> d          -1.985  -1.310  -0.931  0.00  0.00    -0.331 N 
ATOM      6  H8  <0> d          -4.002  -2.124  -1.021  0.00  0.00     0.146 H 
ENDROOT
BRANCH   1   7
ATOM      7  C2  <0> d           0.002  -0.004   0.002  0.00  0.00    -0.001 C 
ATOM      8  H4  <0> d           0.512  -0.356  -0.895  0.00  0.00     0.051 H 
BRANCH   7   9
ATOM      9  C1  <0> d          -0.019   1.526   0.010  0.00  0.00    -0.066 C 
ATOM     10  H1  <0> d           1.004   1.903   0.003  0.00  0.00     0.028 H 
ATOM     11  H2  <0> d          -0.546   1.887  -0.873  0.00  0.00     0.028 H 
ATOM     12  H3  <0> d          -0.529   1.877   0.907  0.00  0.00     0.028 H 
ENDBRANCH   7   9
BRANCH   7  13
ATOM     13  C3  <0> d           0.742  -0.511   1.242  0.00  0.00    -0.066 C 
ATOM     14  H5  <0> d           0.232  -0.159   2.138  0.00  0.00     0.028 H 
ATOM     15  H6  <0> d           0.757  -1.601   1.236  0.00  0.00     0.028 H 
ATOM     16  H7  <0> d           1.765  -0.134   1.234  0.00  0.00     0.028 H 
ENDBRANCH   7  13
ENDBRANCH   1   7
BRANCH   5  17
ATOM     17  C6  <0> d          -1.359  -1.817  -2.155  0.00  0.00    -0.012 C 
ATOM     18  H9  <0> d          -0.892  -2.781  -1.952  0.00  0.00     0.057 H 
ATOM     19  H10 <0> d          -2.118  -1.938  -2.928  0.00  0.00     0.057 H 
ATOM     20  H11 <0> d          -0.603  -1.111  -2.495  0.00  0.00     0.057 H 
ENDBRANCH   5  17
TORSDOF 4
