REMARK  6 active torsions:
REMARK  status: ('A' for Active; 'I' for Inactive)
REMARK    1  A    between atoms: C1_1  and  C2_2 
REMARK    2  A    between atoms: C2_2  and  C3_3 
REMARK    3  A    between atoms: C2_2  and  C4_4 
REMARK    4  A    between atoms: C2_2  and  O1_5 
REMARK    5  A    between atoms: O1_5  and  C5_6 
REMARK    6  A    between atoms: C5_6  and  O3_8 
ROOT
ATOM      1  C2  <0> d           1.268   2.018   0.001  0.00  0.00     0.062 C 
ENDROOT
BRANCH   1   2
ATOM      2  C1  <0> d           2.044   1.624  -1.258  0.00  0.00    -0.048 C 
ATOM      3  H1  <0> d           1.474   1.914  -2.141  0.00  0.00     0.031 H 
ATOM      4  H2  <0> d           3.008   2.132  -1.264  0.00  0.00     0.031 H 
ATOM      5  H3  <0> d           2.201   0.546  -1.265  0.00  0.00     0.031 H 
ENDBRANCH   1   2
BRANCH   1   6
ATOM      6  C3  <0> d           1.047   3.532   0.011  0.00  0.00    -0.048 C 
ATOM      7  H4  <0> d           0.495   3.812   0.908  0.00  0.00     0.031 H 
ATOM      8  H5  <0> d           2.012   4.040   0.004  0.00  0.00     0.031 H 
ATOM      9  H6  <0> d           0.478   3.822  -0.872  0.00  0.00     0.031 H 
ENDBRANCH   1   6
BRANCH   1  10
ATOM     10  C4  <0> d           2.068   1.611   1.240  0.00  0.00    -0.048 C 
ATOM     11  H7  <0> d           2.225   0.532   1.233  0.00  0.00     0.031 H 
ATOM     12  H8  <0> d           3.032   2.119   1.234  0.00  0.00     0.031 H 
ATOM     13  H9  <0> d           1.515   1.891   2.137  0.00  0.00     0.031 H 
ENDBRANCH   1  10
BRANCH   1  14
ATOM     14  O1  <0> d          -0.016   1.341   0.009  0.00  0.00    -0.288 OA
BRANCH  14  15
ATOM     15  C5  <0> d           0.002  -0.004   0.002  0.00  0.00     0.299 C 
ATOM     16  O2  <0> d           1.062  -0.597  -0.011  0.00  0.00    -0.626 OA
BRANCH  15  17
ATOM     17  O3  <0> d          -1.154  -0.693   0.009  0.00  0.00    -0.754 OA
ATOM     18  H10 <0> d          -1.090  -1.657   0.004  0.00  0.00     0.170 HD
ENDBRANCH  15  17
ENDBRANCH  14  15
ENDBRANCH   1  14
TORSDOF 6
