REMARK  3 active torsions:
REMARK  status: ('A' for Active; 'I' for Inactive)
REMARK    1  A    between atoms: C3_3  and  C5_6 
REMARK    2  A    between atoms: C5_6  and  C6_7 
REMARK    3  A    between atoms: C6_7  and  C7_8 
ROOT
ATOM      1  C5  <0> d          -0.013   1.086   0.008  0.00  0.00    -0.011 C 
ATOM      2  H4  <0> d           0.002  -0.004   0.002  0.00  0.00     0.043 H 
ATOM      3  H5  <0> d           1.010   1.463   0.000  0.00  0.00     0.043 H 
ENDROOT
BRANCH   1   4
ATOM      4  C3  <0> d          -0.718   1.572   1.248  0.00  0.00     0.053 A 
ATOM      5  C2  <0> d          -1.704   0.926   1.896  0.00  0.00    -0.052 A 
ATOM      6  C1  <0> d          -2.070   1.736   2.996  0.00  0.00    -0.059 A 
ATOM      7  H2  <0> d          -2.134  -0.028   1.628  0.00  0.00     0.087 H 
ATOM      8  C4  <0> d          -1.286   2.828   2.954  0.00  0.00     0.019 A 
ATOM      9  H1  <0> d          -2.833   1.519   3.729  0.00  0.00     0.086 H 
ATOM     10  O1  <0> d          -0.465   2.720   1.896  0.00  0.00    -0.327 OA
ATOM     11  H3  <0> d          -1.309   3.649   3.655  0.00  0.00     0.123 H 
ENDBRANCH   1   4
BRANCH   1  12
ATOM     12  C6  <0> d          -0.753   1.593  -1.232  0.00  0.00     0.021 C 
ATOM     13  H6  <0> d          -1.775   1.215  -1.224  0.00  0.00     0.049 H 
ATOM     14  H7  <0> d          -0.767   2.683  -1.226  0.00  0.00     0.049 H 
BRANCH  12  15
ATOM     15  C7  <0> d          -0.047   1.107  -2.471  0.00  0.00     0.172 C 
ATOM     16  O2  <0> d           0.945   0.425  -2.374  0.00  0.00    -0.648 OA
ATOM     17  O3  <0> d          -0.522   1.431  -3.684  0.00  0.00    -0.648 OA
ENDBRANCH  12  15
ENDBRANCH   1  12
TORSDOF 3
