REMARK  2 active torsions:
REMARK  status: ('A' for Active; 'I' for Inactive)
REMARK    1  A    between atoms: C1_1  and  C2_2 
REMARK    2  A    between atoms: C7_8  and  C8_10 
ROOT
ATOM      1  C2  <0> d           2.696   3.548  -0.005  0.00  0.00    -0.045 C 
ATOM      2  H1  <0> d           3.187   3.170  -0.901  0.00  0.00     0.040 H 
ATOM      3  C3  <0> d           2.755   5.077   0.003  0.00  0.00    -0.061 C 
ATOM      4  C4  <0> d           2.043   5.621  -1.237  0.00  0.00    -0.065 C 
ATOM      5  C5  <0> d           0.582   5.167  -1.225  0.00  0.00    -0.064 C 
ATOM      6  C6  <0> d           0.522   3.639  -1.233  0.00  0.00    -0.052 C 
ATOM      7  C7  <0> d           1.235   3.094   0.007  0.00  0.00     0.034 C 
ATOM      8  H2  <0> d           0.744   3.473   0.904  0.00  0.00     0.057 H 
ATOM      9  H6  <0> d           3.796   5.400  -0.005  0.00  0.00     0.033 H 
ATOM     10  H7  <0> d           2.265   5.455   0.900  0.00  0.00     0.033 H 
ATOM     11  H8  <0> d           2.534   5.243  -2.133  0.00  0.00     0.033 H 
ATOM     12  H9  <0> d           2.085   6.710  -1.231  0.00  0.00     0.033 H 
ATOM     13  H10 <0> d           0.074   5.555  -2.108  0.00  0.00     0.033 H 
ATOM     14  H11 <0> d           0.091   5.545  -0.328  0.00  0.00     0.033 H 
ATOM     15  H12 <0> d           1.013   3.260  -2.130  0.00  0.00     0.034 H 
ATOM     16  H13 <0> d          -0.519   3.315  -1.224  0.00  0.00     0.034 H 
ENDROOT
BRANCH   1  17
ATOM     17  C1  <0> d           3.409   3.004   1.235  0.00  0.00    -0.072 C 
ATOM     18  H3  <0> d           3.367   1.915   1.230  0.00  0.00     0.028 H 
ATOM     19  H4  <0> d           4.450   3.327   1.227  0.00  0.00     0.028 H 
ATOM     20  H5  <0> d           2.918   3.382   2.132  0.00  0.00     0.028 H 
ENDBRANCH   1  17
BRANCH   7  21
ATOM     21  C8  <0> d           1.177   1.588  -0.001  0.00  0.00     0.177 C 
ATOM     22  O1  <0> d           2.199   0.944  -0.014  0.00  0.00    -0.648 OA
ATOM     23  O2  <0> d          -0.011   0.963   0.007  0.00  0.00    -0.648 OA
ENDBRANCH   7  21
TORSDOF 2
