REMARK  4 active torsions:
REMARK  status: ('A' for Active; 'I' for Inactive)
REMARK    1  A    between atoms: C1_1  and  C2_2 
REMARK    2  A    between atoms: C2_2  and  C3_4 
REMARK    3  A    between atoms: C2_2  and  O1_11 
REMARK    4  A    between atoms: C3_4  and  C4_5 
ROOT
ATOM      1  C3  <0> d           3.727  -0.579  -0.036  0.00  0.00    -0.001 C 
ATOM      2  H5  <0> d           3.580  -1.665  -0.131  0.00  0.00     0.046 H 
ATOM      3  H6  <0> d           4.262  -0.361   0.900  0.00  0.00     0.046 H 
ENDROOT
BRANCH   1   4
ATOM      4  C2  <0> d           4.548  -0.070  -1.223  0.00  0.00     0.037 C 
ATOM      5  H1  <0> d           4.587   1.029  -1.239  0.00  0.00     0.082 H 
BRANCH   4   6
ATOM      6  C1  <0> d           5.952  -0.674  -1.169  0.00  0.00    -0.052 C 
ATOM      7  H2  <0> d           6.542  -0.308  -2.022  0.00  0.00     0.030 H 
ATOM      8  H3  <0> d           5.881  -1.771  -1.215  0.00  0.00     0.030 H 
ATOM      9  H4  <0> d           6.443  -0.378  -0.230  0.00  0.00     0.030 H 
ENDBRANCH   4   6
BRANCH   4  10
ATOM     10  O1  <0> d           3.910  -0.455  -2.443  0.00  0.00    -0.396 OA
ATOM     11  H11 <0> d           2.888  -0.113  -2.661  0.00  0.00     0.210 HD
ENDBRANCH   4  10
ENDBRANCH   1   4
BRANCH   1  12
ATOM     12  C4  <0> d           2.387   0.110  -0.020  0.00  0.00     0.036 A 
ATOM     13  N1  <0> d           2.331   1.427  -0.013  0.00  0.00    -0.265 NA
ATOM     14  C8  <0> d           1.181   2.072   0.002  0.00  0.00     0.002 A 
ATOM     15  C7  <0> d          -0.017   1.383   0.010  0.00  0.00    -0.066 A 
ATOM     16  H10 <0> d           1.175   3.152   0.007  0.00  0.00     0.114 H 
ATOM     17  C6  <0> d           0.002  -0.004   0.002  0.00  0.00    -0.080 A 
ATOM     18  H9  <0> d          -0.955   1.917   0.017  0.00  0.00     0.085 H 
ATOM     19  C5  <0> d           1.230  -0.647  -0.013  0.00  0.00    -0.059 A 
ATOM     20  H8  <0> d          -0.918  -0.570   0.007  0.00  0.00     0.083 H 
ATOM     21  H7  <0> d           1.282  -1.726  -0.019  0.00  0.00     0.086 H 
ENDBRANCH   1  12
TORSDOF 4
