REMARK  3 active torsions:
REMARK  status: ('A' for Active; 'I' for Inactive)
REMARK    1  A    between atoms: C1_1  and  C2_2 
REMARK    2  A    between atoms: C2_2  and  C3_3 
REMARK    3  A    between atoms: C2_2  and  C4_4 
ROOT
ATOM      1  C4  <0> d          -1.412  -0.526   0.013  0.00  0.00     0.069 A 
ATOM      2  C5  <0> d          -2.287  -0.212   1.072  0.00  0.00     0.279 A 
ATOM      3  O1  <0> d          -1.907   0.489   1.998  0.00  0.00    -0.265 OA
ATOM      4  N1  <0> d          -3.545  -0.692   1.055  0.00  0.00    -0.205 NA
ATOM      5  C6  <0> d          -3.964  -1.441   0.073  0.00  0.00     0.069 A 
ATOM      6  N2  <0> d          -3.160  -1.765  -0.959  0.00  0.00    -0.329 N 
ATOM      7  C7  <0> d          -1.874  -1.307  -1.006  0.00  0.00     0.192 A 
ATOM      8  O2  <0> d          -1.070  -1.627  -2.044  0.00  0.00    -0.171 OA
ATOM      9  H8  <0> d          -4.978  -1.811   0.088  0.00  0.00     0.143 H 
ATOM     10  H9  <0> d          -3.498  -2.325  -1.675  0.00  0.00     0.168 HD
ENDROOT
BRANCH   1  11
ATOM     11  C2  <0> d           0.002  -0.004   0.002  0.00  0.00    -0.026 C 
ATOM     12  H4  <0> d           0.512  -0.356  -0.895  0.00  0.00     0.046 H 
BRANCH  11  13
ATOM     13  C1  <0> d          -0.019   1.526   0.010  0.00  0.00    -0.069 C 
ATOM     14  H1  <0> d           1.004   1.903   0.003  0.00  0.00     0.028 H 
ATOM     15  H2  <0> d          -0.546   1.887  -0.873  0.00  0.00     0.028 H 
ATOM     16  H3  <0> d          -0.529   1.877   0.907  0.00  0.00     0.028 H 
ENDBRANCH  11  13
BRANCH  11  17
ATOM     17  C3  <0> d           0.742  -0.511   1.242  0.00  0.00    -0.069 C 
ATOM     18  H5  <0> d           0.757  -1.601   1.236  0.00  0.00     0.028 H 
ATOM     19  H6  <0> d           1.765  -0.134   1.234  0.00  0.00     0.028 H 
ATOM     20  H7  <0> d           0.232  -0.159   2.138  0.00  0.00     0.028 H 
ENDBRANCH  11  17
ENDBRANCH   1  11
TORSDOF 3
