REMARK  3 active torsions:
REMARK  status: ('A' for Active; 'I' for Inactive)
REMARK    1  A    between atoms: C1_1  and  C2_2 
REMARK    2  A    between atoms: C2_2  and  C3_3 
REMARK    3  A    between atoms: C2_2  and  C4_4 
ROOT
ATOM      1  C4  <0> d           1.208  -0.683  -0.013  0.00  0.00    -0.055 A 
ATOM      2  C5  <0> d           0.002  -0.004   0.002  0.00  0.00    -0.075 A 
ATOM      3  C6  <0> d          -0.017   1.375   0.010  0.00  0.00    -0.062 A 
ATOM      4  C7  <0> d           1.185   2.087   0.002  0.00  0.00     0.044 A 
ATOM      5  C8  <0> d           2.398   1.395  -0.013  0.00  0.00    -0.062 A 
ATOM      6  C9  <0> d           2.402   0.016  -0.020  0.00  0.00    -0.075 A 
ATOM      7  C10 <0> d           1.173   3.518   0.009  0.00  0.00     0.099 C 
ATOM      8  N1  <0> d           1.164   4.654   0.015  0.00  0.00    -0.191 NA
ATOM      9  H8  <0> d          -0.926  -0.555   0.008  0.00  0.00     0.084 H 
ATOM     10  H9  <0> d          -0.959   1.904   0.017  0.00  0.00     0.085 H 
ATOM     11  H10 <0> d           3.331   1.939  -0.020  0.00  0.00     0.085 H 
ATOM     12  H11 <0> d           3.340  -0.520  -0.031  0.00  0.00     0.084 H 
ENDROOT
BRANCH   1  13
ATOM     13  C2  <0> d           1.220  -2.190  -0.020  0.00  0.00    -0.036 C 
ATOM     14  H4  <0> d           0.196  -2.562  -0.012  0.00  0.00     0.046 H 
BRANCH  13  15
ATOM     15  C1  <0> d           1.934  -2.688  -1.278  0.00  0.00    -0.069 C 
ATOM     16  H1  <0> d           2.958  -2.316  -1.286  0.00  0.00     0.028 H 
ATOM     17  H2  <0> d           1.943  -3.778  -1.284  0.00  0.00     0.028 H 
ATOM     18  H3  <0> d           1.408  -2.325  -2.162  0.00  0.00     0.028 H 
ENDBRANCH  13  15
BRANCH  13  19
ATOM     19  C3  <0> d           1.958  -2.700   1.220  0.00  0.00    -0.069 C 
ATOM     20  H5  <0> d           2.982  -2.328   1.212  0.00  0.00     0.028 H 
ATOM     21  H6  <0> d           1.449  -2.345   2.116  0.00  0.00     0.028 H 
ATOM     22  H7  <0> d           1.966  -3.789   1.215  0.00  0.00     0.028 H 
ENDBRANCH  13  19
ENDBRANCH   1  13
TORSDOF 3
