REMARK  6 active torsions:
REMARK  status: ('A' for Active; 'I' for Inactive)
REMARK    1  A    between atoms: C1_1  and  C2_2 
REMARK    2  A    between atoms: C2_2  and  C3_3 
REMARK    3  A    between atoms: C3_3  and  C4_4 
REMARK    4  A    between atoms: C4_4  and  C5_5 
REMARK    5  A    between atoms: C4_4  and  C6_6 
REMARK    6  A    between atoms: C4_4  and  O1_8 
ROOT
ATOM      1  C6  <0> d           0.002  -0.004   0.002  0.00  0.00    -0.080 C 
ATOM      2  C7  <0> d           0.018  -1.178  -0.004  0.00  0.00    -0.151 C 
ATOM      3  H11 <0> d           0.032  -2.228  -0.010  0.00  0.00     0.166 H 
ENDROOT
BRANCH   1   4
ATOM      4  C4  <0> d          -0.018   1.468   0.010  0.00  0.00     0.116 C 
BRANCH   4   5
ATOM      5  C3  <0> d          -0.758   1.975  -1.229  0.00  0.00    -0.026 C 
ATOM      6  H6  <0> d          -0.301   1.551  -2.124  0.00  0.00     0.038 H 
ATOM      7  H7  <0> d          -1.804   1.672  -1.177  0.00  0.00     0.038 H 
BRANCH   5   8
ATOM      8  C2  <0> d          -0.671   3.501  -1.286  0.00  0.00    -0.065 C 
ATOM      9  H4  <0> d          -1.128   3.925  -0.392  0.00  0.00     0.032 H 
ATOM     10  H5  <0> d           0.375   3.804  -1.339  0.00  0.00     0.032 H 
BRANCH   8  11
ATOM     11  C1  <0> d          -1.411   4.008  -2.526  0.00  0.00    -0.076 C 
ATOM     12  H1  <0> d          -1.349   5.095  -2.567  0.00  0.00     0.027 H 
ATOM     13  H2  <0> d          -0.954   3.584  -3.420  0.00  0.00     0.027 H 
ATOM     14  H3  <0> d          -2.457   3.705  -2.474  0.00  0.00     0.027 H 
ENDBRANCH   8  11
ENDBRANCH   5   8
ENDBRANCH   4   5
BRANCH   4  15
ATOM     15  C5  <0> d           1.417   1.997  -0.001  0.00  0.00    -0.037 C 
ATOM     16  H8  <0> d           1.928   1.646  -0.897  0.00  0.00     0.033 H 
ATOM     17  H9  <0> d           1.403   3.087   0.005  0.00  0.00     0.033 H 
ATOM     18  H10 <0> d           1.945   1.636   0.882  0.00  0.00     0.033 H 
ENDBRANCH   4  15
BRANCH   4  19
ATOM     19  O1  <0> d          -0.687   1.929   1.186  0.00  0.00    -0.378 OA
ATOM     20  H12 <0> d          -1.604   1.630   1.259  0.00  0.00     0.211 HD
ENDBRANCH   4  19
ENDBRANCH   1   4
TORSDOF 6
