REMARK  2 active torsions:
REMARK  status: ('A' for Active; 'I' for Inactive)
REMARK    1  A    between atoms: C1_1  and  S1_2 
REMARK    2  A    between atoms: S1_2  and  N1_5 
ROOT
ATOM      1  N1  <0> d          -0.751   1.822   1.438  0.00  0.00    -0.151 N 
ATOM      2  C2  <0> d          -1.628   1.076   2.133  0.00  0.00     0.101 A 
ATOM      3  N2  <0> d          -1.973   1.747   3.202  0.00  0.00    -0.233 NA
ATOM      4  C3  <0> d          -1.340   2.919   3.224  0.00  0.00     0.108 A 
ATOM      5  N3  <0> d          -0.576   3.009   2.167  0.00  0.00    -0.150 NA
ATOM      6  H4  <0> d          -1.986   0.096   1.857  0.00  0.00     0.148 H 
ATOM      7  H5  <0> d          -1.439   3.671   3.993  0.00  0.00     0.149 H 
ENDROOT
BRANCH   1   8
ATOM      8  S1  <0> d          -0.017   1.417   0.010  0.00  0.00     0.248 S 
ATOM      9  O1  <0> d           0.002  -0.004   0.002  0.00  0.00    -0.204 OA
ATOM     10  O2  <0> d           1.195   2.158   0.002  0.00  0.00    -0.204 OA
BRANCH   8  11
ATOM     11  C1  <0> d          -1.135   2.034  -1.279  0.00  0.00     0.034 C 
ATOM     12  H1  <0> d          -1.141   3.134  -1.263  0.00  0.00     0.051 H 
ATOM     13  H2  <0> d          -2.152   1.658  -1.093  0.00  0.00     0.051 H 
ATOM     14  H3  <0> d          -0.788   1.683  -2.263  0.00  0.00     0.051 H 
ENDBRANCH   8  11
ENDBRANCH   1   8
TORSDOF 2
