REMARK  0 active torsions:
REMARK  status: ('A' for Active; 'I' for Inactive)
ROOT
ATOM      1  C1  <0> d          -0.017   1.385   0.010  0.00  0.00    -0.027 A 
ATOM      2  C2  <0> d           1.193   2.064   0.002  0.00  0.00     0.008 A 
ATOM      3  N1  <0> d           2.320   1.374  -0.013  0.00  0.00    -0.232 NA
ATOM      4  C3  <0> d           2.303   0.048  -0.020  0.00  0.00     0.233 A 
ATOM      5  N2  <0> d           1.166  -0.633  -0.013  0.00  0.00    -0.207 NA
ATOM      6  C4  <0> d           0.002  -0.004   0.002  0.00  0.00     0.130 A 
ATOM      7 Cl1  <0> d          -1.483  -0.903   0.012  0.00  0.00    -0.062 Cl
ATOM      8  C5  <0> d           3.545  -0.665  -0.036  0.00  0.00     0.141 C 
ATOM      9  N3  <0> d           4.529  -1.232  -0.049  0.00  0.00    -0.188 NA
ATOM     10  H1  <0> d          -0.952   1.925   0.026  0.00  0.00     0.090 H 
ATOM     11  H2  <0> d           1.213   3.144   0.007  0.00  0.00     0.115 H 
ENDROOT
TORSDOF 0
