REMARK  4 active torsions:
REMARK  status: ('A' for Active; 'I' for Inactive)
REMARK    1  A    between atoms: C1_1  and  C2_2 
REMARK       I    between atoms: C2_2  and  N1_4 
REMARK    2  A    between atoms: N1_4  and  C3_5 
REMARK    3  A    between atoms: C3_5  and  C4_6 
REMARK    4  A    between atoms: C4_6  and  O2_11 
ROOT
ATOM      1  C4  <0> d          -2.571  -2.688   0.012  0.00  0.00     0.074 C 
ATOM      2  C5  <0> d          -3.322  -2.154   1.249  0.00  0.00    -0.035 C 
ATOM      3  C6  <0> d          -4.221  -3.337   1.688  0.00  0.00    -0.062 C 
ATOM      4  C7  <0> d          -3.314  -4.567   1.434  0.00  0.00    -0.062 C 
ATOM      5  C8  <0> d          -2.566  -4.222   0.130  0.00  0.00    -0.035 C 
ATOM      6  H7  <0> d          -2.619  -1.895   2.040  0.00  0.00     0.037 H 
ATOM      7  H8  <0> d          -3.932  -1.291   0.982  0.00  0.00     0.037 H 
ATOM      8  H9  <0> d          -4.476  -3.256   2.745  0.00  0.00     0.033 H 
ATOM      9  H10 <0> d          -5.121  -3.387   1.076  0.00  0.00     0.033 H 
ATOM     10  H11 <0> d          -2.609  -4.697   2.255  0.00  0.00     0.033 H 
ATOM     11  H12 <0> d          -3.918  -5.465   1.302  0.00  0.00     0.033 H 
ATOM     12  H13 <0> d          -3.081  -4.664  -0.724  0.00  0.00     0.037 H 
ATOM     13  H14 <0> d          -1.541  -4.590   0.179  0.00  0.00     0.037 H 
ENDROOT
BRANCH   1  14
ATOM     14  C3  <0> d          -1.136  -2.159   0.001  0.00  0.00     0.024 C 
ATOM     15  H5  <0> d          -0.626  -2.510  -0.895  0.00  0.00     0.068 H 
ATOM     16  H6  <0> d          -0.609  -2.520   0.884  0.00  0.00     0.068 H 
BRANCH  14  17
ATOM     17  N1  <0> d          -1.156  -0.694   0.009  0.00  0.00    -0.359 N 
ATOM     18  C2  <0> d           0.002  -0.004   0.002  0.00  0.00     0.213 C 
ATOM     19  O1  <0> d           1.060  -0.596  -0.011  0.00  0.00    -0.274 OA
ATOM     20  H4  <0> d          -2.002  -0.220   0.020  0.00  0.00     0.162 HD
BRANCH  18  21
ATOM     21  C1  <0> d          -0.018   1.503   0.010  0.00  0.00    -0.003 C 
ATOM     22  H1  <0> d           1.004   1.880   0.003  0.00  0.00     0.040 H 
ATOM     23  H2  <0> d          -0.545   1.864  -0.873  0.00  0.00     0.040 H 
ATOM     24  H3  <0> d          -0.529   1.854   0.907  0.00  0.00     0.040 H 
ENDBRANCH  18  21
ENDBRANCH  14  17
ENDBRANCH   1  14
BRANCH   1  25
ATOM     25  O2  <0> d          -3.248  -2.291  -1.182  0.00  0.00    -0.388 OA
ATOM     26  H15 <0> d          -3.294  -1.333  -1.308  0.00  0.00     0.210 HD
ENDBRANCH   1  25
TORSDOF 4
