REMARK  8 active torsions:
REMARK  status: ('A' for Active; 'I' for Inactive)
REMARK    1  A    between atoms: C1_1  and  C2_2 
REMARK    2  A    between atoms: C2_2  and  C3_3 
REMARK       I    between atoms: C3_3  and  N1_5 
REMARK    3  A    between atoms: N1_5  and  C4_6 
REMARK    4  A    between atoms: C4_6  and  C5_7 
REMARK    5  A    between atoms: C5_7  and  C6_8 
REMARK    6  A    between atoms: C6_8  and  C7_9 
REMARK    7  A    between atoms: C7_9  and  O2_10 
REMARK    8  A    between atoms: O2_10  and  C8_11 
ROOT
ATOM      1  C4  <0> d          -3.014  -2.361   0.018  0.00  0.00    -0.005 C 
ATOM      2  H7  <0> d          -3.525  -2.010   0.915  0.00  0.00     0.064 H 
ATOM      3  H8  <0> d          -3.542  -2.000  -0.865  0.00  0.00     0.064 H 
ENDROOT
BRANCH   1   4
ATOM      4  N1  <0> d          -1.640  -1.854   0.008  0.00  0.00    -0.361 N 
ATOM      5  C3  <0> d          -1.412  -0.526   0.013  0.00  0.00     0.217 C 
ATOM      6  O1  <0> d          -2.344   0.250   0.026  0.00  0.00    -0.274 OA
ATOM      7  H6  <0> d          -0.894  -2.474  -0.003  0.00  0.00     0.162 HD
BRANCH   5   8
ATOM      8  C2  <0> d           0.002  -0.004   0.002  0.00  0.00     0.006 C 
ATOM      9  H4  <0> d           0.512  -0.356  -0.895  0.00  0.00     0.046 H 
ATOM     10  H5  <0> d           0.529  -0.365   0.885  0.00  0.00     0.046 H 
BRANCH   8  11
ATOM     11  C1  <0> d          -0.019   1.526   0.010  0.00  0.00    -0.068 C 
ATOM     12  H1  <0> d           1.004   1.903   0.003  0.00  0.00     0.028 H 
ATOM     13  H2  <0> d          -0.546   1.887  -0.873  0.00  0.00     0.028 H 
ATOM     14  H3  <0> d          -0.529   1.877   0.907  0.00  0.00     0.028 H 
ENDBRANCH   8  11
ENDBRANCH   5   8
ENDBRANCH   1   4
BRANCH   1  15
ATOM     15  C5  <0> d          -2.994  -3.891   0.010  0.00  0.00    -0.048 C 
ATOM     16  H9  <0> d          -2.483  -4.242  -0.887  0.00  0.00     0.035 H 
ATOM     17  H10 <0> d          -2.466  -4.252   0.893  0.00  0.00     0.035 H 
BRANCH  15  18
ATOM     18  C6  <0> d          -4.429  -4.420   0.021  0.00  0.00    -0.044 C 
ATOM     19  H11 <0> d          -4.939  -4.069   0.917  0.00  0.00     0.036 H 
ATOM     20  H12 <0> d          -4.956  -4.059  -0.863  0.00  0.00     0.036 H 
BRANCH  18  21
ATOM     21  C7  <0> d          -4.408  -5.950   0.012  0.00  0.00     0.019 C 
ATOM     22  H13 <0> d          -3.898  -6.302  -0.885  0.00  0.00     0.074 H 
ATOM     23  H14 <0> d          -3.881  -6.311   0.895  0.00  0.00     0.074 H 
BRANCH  21  24
ATOM     24  O2  <0> d          -5.749  -6.445   0.022  0.00  0.00    -0.396 OA
BRANCH  24  25
ATOM     25  C8  <0> d          -5.842  -7.871   0.016  0.00  0.00     0.004 C 
ATOM     26  H15 <0> d          -6.892  -8.166   0.024  0.00  0.00     0.066 H 
ATOM     27  H16 <0> d          -5.362  -8.262  -0.881  0.00  0.00     0.066 H 
ATOM     28  H17 <0> d          -5.345  -8.272   0.899  0.00  0.00     0.066 H 
ENDBRANCH  24  25
ENDBRANCH  21  24
ENDBRANCH  18  21
ENDBRANCH  15  18
ENDBRANCH   1  15
TORSDOF 8
