REMARK  1 active torsions:
REMARK  status: ('A' for Active; 'I' for Inactive)
REMARK    1  A    between atoms: C2_6  and  N3_7 
ROOT
ATOM      1  C1  <0> d          -0.016   1.329   0.009  0.00  0.00     0.125 A 
ATOM      2  N1  <0> d          -1.256   1.740   0.018  0.00  0.00    -0.152 NA
ATOM      3  N2  <0> d          -2.068   0.595   0.015  0.00  0.00    -0.107 N 
ATOM      4  H2  <0> d          -3.037   0.569   0.020  0.00  0.00     0.208 HD
ATOM      5  C2  <0> d          -1.231  -0.464   0.006  0.00  0.00     0.715 A 
ATOM      6  N4  <0> d           0.002  -0.004   0.002  0.00  0.00    -0.055 NA
ATOM      7  H3  <0> d           0.855   1.968   0.004  0.00  0.00     0.150 H 
ENDROOT
BRANCH   5   8
ATOM      8  N3  <0> d          -1.603  -1.797  -0.001  0.00  0.00    -0.231 N 
ATOM      9  H1  <0> d          -2.542  -2.038   0.002  0.00  0.00     0.174 HD
ATOM     10  H4  <0> d          -0.924  -2.490  -0.008  0.00  0.00     0.174 HD
ENDBRANCH   5   8
TORSDOF 1
