REMARK  2 active torsions:
REMARK  status: ('A' for Active; 'I' for Inactive)
REMARK    1  A    between atoms: C1_1  and  O1_2 
REMARK    2  A    between atoms: O1_2  and  C2_3 
ROOT
ATOM      1  C2  <0> d           0.633   4.126   0.017  0.00  0.00     0.068 A 
ATOM      2  C3  <0> d           1.508   3.054   0.003  0.00  0.00    -0.051 A 
ATOM      3  C4  <0> d           1.219   1.692  -0.001  0.00  0.00    -0.077 A 
ATOM      4  C5  <0> d          -0.013   1.076   0.008  0.00  0.00    -0.035 A 
ATOM      5  C6  <0> d          -1.287   1.671   0.018  0.00  0.00     0.172 A 
ATOM      6  O2  <0> d          -2.236   0.898   0.019  0.00  0.00    -0.289 OA
ATOM      7  C7  <0> d          -1.613   3.046   0.033  0.00  0.00    -0.032 A 
ATOM      8  C8  <0> d          -0.771   4.115   0.030  0.00  0.00    -0.047 A 
ATOM      9  H4  <0> d           2.558   3.308  -0.006  0.00  0.00     0.087 H 
ATOM     10  H5  <0> d           2.074   1.032  -0.012  0.00  0.00     0.083 H 
ATOM     11  H6  <0> d           0.002  -0.004   0.002  0.00  0.00     0.089 H 
ATOM     12  H7  <0> d          -2.668   3.278   0.043  0.00  0.00     0.089 H 
ATOM     13  H8  <0> d          -1.246   5.085   0.039  0.00  0.00     0.087 H 
ENDROOT
BRANCH   1  14
ATOM     14  O1  <0> d           1.208   5.353   0.017  0.00  0.00    -0.356 OA
BRANCH  14  15
ATOM     15  C1  <0> d           0.332   6.481   0.031  0.00  0.00     0.010 C 
ATOM     16  H1  <0> d          -0.305   6.457  -0.853  0.00  0.00     0.066 H 
ATOM     17  H2  <0> d          -0.288   6.449   0.926  0.00  0.00     0.066 H 
ATOM     18  H3  <0> d           0.920   7.399   0.029  0.00  0.00     0.066 H 
ENDBRANCH  14  15
ENDBRANCH   1  14
TORSDOF 2
