REMARK  3 active torsions:
REMARK  status: ('A' for Active; 'I' for Inactive)
REMARK    1  A    between atoms: C1_1  and  S1_2 
REMARK    2  A    between atoms: S1_2  and  C2_3 
REMARK    3  A    between atoms: C3_5  and  N3_10 
ROOT
ATOM      1  C2  <0> d           0.848  -0.411  -1.489  0.00  0.00     0.170 A 
ATOM      2  N1  <0> d           1.285   0.558  -2.268  0.00  0.00    -0.207 NA
ATOM      3  C3  <0> d           1.931   0.290  -3.408  0.00  0.00     0.129 A 
ATOM      4  C4  <0> d           2.151  -1.028  -3.783  0.00  0.00     0.026 A 
ATOM      5  C5  <0> d           1.685  -2.050  -2.950  0.00  0.00     0.250 A 
ATOM      6  O1  <0> d           1.860  -3.221  -3.248  0.00  0.00    -0.268 OA
ATOM      7  N2  <0> d           1.043  -1.720  -1.810  0.00  0.00    -0.302 N 
ATOM      8  H4  <0> d           2.671  -1.260  -4.700  0.00  0.00     0.098 H 
ATOM      9  H7  <0> d           0.717  -2.417  -1.219  0.00  0.00     0.171 HD
ENDROOT
BRANCH   1  10
ATOM     10  S1  <0> d           0.002  -0.004   0.002  0.00  0.00    -0.096 SA
BRANCH  10  11
ATOM     11  C1  <0> d          -0.022   1.810   0.012  0.00  0.00    -0.027 C 
ATOM     12  H1  <0> d           1.000   2.187   0.004  0.00  0.00     0.042 H 
ATOM     13  H2  <0> d          -0.550   2.171  -0.871  0.00  0.00     0.042 H 
ATOM     14  H3  <0> d          -0.533   2.161   0.909  0.00  0.00     0.042 H 
ENDBRANCH  10  11
ENDBRANCH   1  10
BRANCH   3  15
ATOM     15  N3  <0> d           2.379   1.322  -4.209  0.00  0.00    -0.384 N 
ATOM     16  H5  <0> d           2.225   2.243  -3.945  0.00  0.00     0.157 HD
ATOM     17  H6  <0> d           2.848   1.126  -5.035  0.00  0.00     0.157 HD
ENDBRANCH   3  15
TORSDOF 3
