REMARK  3 active torsions:
REMARK  status: ('A' for Active; 'I' for Inactive)
REMARK    1  A    between atoms: C1_1  and  C2_2 
REMARK    2  A    between atoms: C2_2  and  C3_4 
REMARK    3  A    between atoms: C6_7  and  C9_10 
ROOT
ATOM      1  C9  <0> d          -0.013   1.086   0.008  0.00  0.00     0.038 C 
ATOM      2  C10 <0> d          -0.725   1.573  -1.185  0.00  0.00     0.063 C 
ATOM      3  N1  <0> d          -1.274   1.950  -2.105  0.00  0.00    -0.197 NA
ATOM      4  H8  <0> d           0.002  -0.004   0.002  0.00  0.00     0.062 H 
ATOM      5  H9  <0> d           1.010   1.463   0.000  0.00  0.00     0.062 H 
ENDROOT
BRANCH   1   6
ATOM      6  C6  <0> d          -0.718   1.572   1.248  0.00  0.00    -0.045 A 
ATOM      7  C5  <0> d          -1.720   0.804   1.815  0.00  0.00    -0.075 A 
ATOM      8  C4  <0> d          -2.370   1.242   2.950  0.00  0.00    -0.069 A 
ATOM      9  H5  <0> d          -1.994  -0.140   1.368  0.00  0.00     0.084 H 
ATOM     10  C3  <0> d          -2.014   2.465   3.527  0.00  0.00     0.009 A 
ATOM     11  H4  <0> d          -3.152   0.642   3.391  0.00  0.00     0.085 H 
ATOM     12  C8  <0> d          -1.000   3.235   2.948  0.00  0.00    -0.069 A 
ATOM     13  C7  <0> d          -0.356   2.781   1.816  0.00  0.00    -0.075 A 
ATOM     14  H7  <0> d          -0.720   4.180   3.388  0.00  0.00     0.085 H 
ATOM     15  H6  <0> d           0.429   3.372   1.370  0.00  0.00     0.084 H 
BRANCH  10  16
ATOM     16  C2  <0> d          -2.704   2.940   4.738  0.00  0.00     0.155 C 
ATOM     17  O1  <0> d          -3.582   2.270   5.237  0.00  0.00    -0.293 OA
BRANCH  16  18
ATOM     18  C1  <0> d          -2.317   4.258   5.357  0.00  0.00    -0.017 C 
ATOM     19  H1  <0> d          -1.582   4.675   4.822  0.00  0.00     0.038 H 
ATOM     20  H2  <0> d          -3.181   4.923   5.366  0.00  0.00     0.038 H 
ATOM     21  H3  <0> d          -1.974   4.094   6.378  0.00  0.00     0.038 H 
ENDBRANCH  16  18
ENDBRANCH  10  16
ENDBRANCH   1   6
TORSDOF 3
