REMARK  2 active torsions:
REMARK  status: ('A' for Active; 'I' for Inactive)
REMARK    1  A    between atoms: C1_1  and  C2_2 
REMARK    2  A    between atoms: C5_8  and  C7_10 
ROOT
ATOM      1  C2  <0> d           1.271  -0.810  -0.031  0.00  0.00    -0.030 C 
ATOM      2  H1  <0> d           1.451  -1.163  -1.046  0.00  0.00     0.046 H 
ATOM      3  C3  <0> d           2.445   0.069   0.420  0.00  0.00     0.022 C 
ATOM      4  C4  <0> d           2.268   1.428  -0.231  0.00  0.00     0.264 C 
ATOM      5  O1  <0> d           3.129   1.915  -0.923  0.00  0.00    -0.265 OA
ATOM      6  O2  <0> d           1.101   2.065   0.003  0.00  0.00    -0.284 OA
ATOM      7  C5  <0> d          -0.016   1.301   0.009  0.00  0.00     0.049 C 
ATOM      8  C6  <0> d           0.002  -0.004   0.002  0.00  0.00    -0.070 C 
ATOM      9  H5  <0> d           2.435   0.173   1.505  0.00  0.00     0.049 H 
ATOM     10  H6  <0> d           3.387  -0.376   0.099  0.00  0.00     0.049 H 
ATOM     11  H7  <0> d          -0.941  -0.531   0.021  0.00  0.00     0.081 H 
ENDROOT
BRANCH   1  12
ATOM     12  C1  <0> d           1.139  -2.009   0.911  0.00  0.00    -0.069 C 
ATOM     13  H2  <0> d           0.305  -2.632   0.590  0.00  0.00     0.028 H 
ATOM     14  H3  <0> d           2.059  -2.593   0.886  0.00  0.00     0.028 H 
ATOM     15  H4  <0> d           0.960  -1.655   1.926  0.00  0.00     0.028 H 
ENDBRANCH   1  12
BRANCH   7  16
ATOM     16  C7  <0> d          -1.353   1.995   0.019  0.00  0.00    -0.031 C 
ATOM     17  H8  <0> d          -1.671   2.157   1.049  0.00  0.00     0.036 H 
ATOM     18  H9  <0> d          -1.268   2.955  -0.490  0.00  0.00     0.036 H 
ATOM     19  H10 <0> d          -2.088   1.375  -0.495  0.00  0.00     0.036 H 
ENDBRANCH   7  16
TORSDOF 2
