REMARK  2 active torsions:
REMARK  status: ('A' for Active; 'I' for Inactive)
REMARK    1  A    between atoms: C1_1  and  N1_2 
REMARK    2  A    between atoms: C4_6  and  N3_7 
ROOT
ATOM      1  N1  <0> d           0.002  -0.004   0.002  0.00  0.00    -0.195 N 
ATOM      2  C2  <0> d           1.324  -0.389  -0.013  0.00  0.00     0.014 A 
ATOM      3  C3  <0> d           2.059   0.736  -0.014  0.00  0.00     0.036 A 
ATOM      4  N2  <0> d           1.223   1.788  -0.000  0.00  0.00    -0.076 NA
ATOM      5  C4  <0> d          -0.016   1.356   0.009  0.00  0.00     0.699 A 
ATOM      6  H4  <0> d           1.698  -1.402  -0.022  0.00  0.00     0.114 H 
ATOM      7  H5  <0> d           3.138   0.786  -0.024  0.00  0.00     0.117 H 
ENDROOT
BRANCH   1   8
ATOM      8  C1  <0> d          -1.164  -0.891   0.008  0.00  0.00     0.002 C 
ATOM      9  H1  <0> d          -1.463  -1.106  -1.018  0.00  0.00     0.058 H 
ATOM     10  H2  <0> d          -0.909  -1.822   0.515  0.00  0.00     0.058 H 
ATOM     11  H3  <0> d          -1.987  -0.406   0.533  0.00  0.00     0.058 H 
ENDBRANCH   1   8
BRANCH   5  12
ATOM     12  N3  <0> d          -1.151   2.151   0.019  0.00  0.00    -0.233 N 
ATOM     13  H6  <0> d          -2.030   1.741   0.022  0.00  0.00     0.174 HD
ATOM     14  H7  <0> d          -1.066   3.117   0.024  0.00  0.00     0.174 HD
ENDBRANCH   5  12
TORSDOF 2
