REMARK  1 active torsions:
REMARK  status: ('A' for Active; 'I' for Inactive)
REMARK    1  A    between atoms: C1_1  and  N1_2 
ROOT
ATOM      1  N1  <0> d          -0.016   1.342   0.009  0.00  0.00    -0.309 N 
ATOM      2  C2  <0> d           0.002  -0.004   0.002  0.00  0.00     0.248 A 
ATOM      3  O1  <0> d          -1.047  -0.628   0.009  0.00  0.00    -0.268 OA
ATOM      4  C3  <0> d           1.227  -0.691  -0.013  0.00  0.00    -0.017 A 
ATOM      5  C4  <0> d           2.392   0.020  -0.020  0.00  0.00    -0.075 A 
ATOM      6  C5  <0> d           2.341   1.419  -0.013  0.00  0.00    -0.045 A 
ATOM      7  C6  <0> d           1.142   2.052   0.002  0.00  0.00     0.108 A 
ATOM      8 Cl1  <0> d           1.086   3.787   0.011  0.00  0.00    -0.064 Cl
ATOM      9  H4  <0> d           1.246  -1.771  -0.018  0.00  0.00     0.092 H 
ATOM     10  H5  <0> d           3.343  -0.492  -0.032  0.00  0.00     0.083 H 
ATOM     11  H6  <0> d           3.256   1.994  -0.018  0.00  0.00     0.088 H 
ENDROOT
BRANCH   1  12
ATOM     12  C1  <0> d          -1.299   2.049   0.019  0.00  0.00    -0.010 C 
ATOM     13  H1  <0> d          -1.613   2.219   1.049  0.00  0.00     0.057 H 
ATOM     14  H2  <0> d          -1.190   3.007  -0.490  0.00  0.00     0.057 H 
ATOM     15  H3  <0> d          -2.049   1.448  -0.494  0.00  0.00     0.057 H 
ENDBRANCH   1  12
TORSDOF 1
