REMARK  3 active torsions:
REMARK  status: ('A' for Active; 'I' for Inactive)
REMARK    1  A    between atoms: C1_1  and  C2_2 
REMARK    2  A    between atoms: C2_2  and  C3_3 
REMARK    3  A    between atoms: C2_2  and  C4_4 
ROOT
ATOM      1  C4  <0> d          -0.048   3.850   0.023  0.00  0.00    -0.053 A 
ATOM      2  C5  <0> d           1.155   3.167   0.008  0.00  0.00    -0.076 A 
ATOM      3  C6  <0> d           1.172   1.783   0.000  0.00  0.00    -0.081 A 
ATOM      4  C7  <0> d          -0.013   1.076   0.008  0.00  0.00    -0.063 A 
ATOM      5  C8  <0> d          -1.230   1.759   0.017  0.00  0.00     0.045 A 
ATOM      6  C9  <0> d          -1.240   3.155   0.031  0.00  0.00    -0.057 A 
ATOM      7  C10 <0> d          -2.463   1.031   0.019  0.00  0.00     0.099 C 
ATOM      8  N1  <0> d          -3.442   0.454   0.021  0.00  0.00    -0.191 NA
ATOM      9  H8  <0> d           2.085   3.716   0.001  0.00  0.00     0.084 H 
ATOM     10  H9  <0> d           2.114   1.256  -0.011  0.00  0.00     0.083 H 
ATOM     11  H10 <0> d           0.002  -0.004   0.002  0.00  0.00     0.085 H 
ATOM     12  H11 <0> d          -2.178   3.690   0.043  0.00  0.00     0.086 H 
ENDROOT
BRANCH   1  13
ATOM     13  C2  <0> d          -0.057   5.357   0.031  0.00  0.00    -0.035 C 
ATOM     14  H4  <0> d          -1.086   5.715   0.043  0.00  0.00     0.046 H 
BRANCH  13  15
ATOM     15  C1  <0> d           0.673   5.864   1.276  0.00  0.00    -0.069 C 
ATOM     16  H1  <0> d           1.703   5.507   1.264  0.00  0.00     0.028 H 
ATOM     17  H2  <0> d           0.667   6.955   1.282  0.00  0.00     0.028 H 
ATOM     18  H3  <0> d           0.170   5.494   2.169  0.00  0.00     0.028 H 
ENDBRANCH  13  15
BRANCH  13  19
ATOM     19  C3  <0> d           0.650   5.878  -1.222  0.00  0.00    -0.069 C 
ATOM     20  H5  <0> d           0.129   5.517  -2.109  0.00  0.00     0.028 H 
ATOM     21  H6  <0> d           0.643   6.968  -1.216  0.00  0.00     0.028 H 
ATOM     22  H7  <0> d           1.679   5.521  -1.234  0.00  0.00     0.028 H 
ENDBRANCH  13  19
ENDBRANCH   1  13
TORSDOF 3
