REMARK  4 active torsions:
REMARK  status: ('A' for Active; 'I' for Inactive)
REMARK    1  A    between atoms: C1_1  and  C2_2 
REMARK    2  A    between atoms: C2_2  and  C3_3 
REMARK    3  A    between atoms: C2_2  and  C4_4 
REMARK    4  A    between atoms: C5_5  and  C7_10 
ROOT
ATOM      1  C4  <0> d           2.381   3.839   0.005  0.00  0.00     0.049 A 
ATOM      2  C5  <0> d           1.238   3.063   0.007  0.00  0.00     0.084 A 
ATOM      3  C6  <0> d           0.135   3.945   0.022  0.00  0.00     0.040 A 
ATOM      4  N1  <0> d           0.594   5.166   0.024  0.00  0.00    -0.186 NA
ATOM      5  N2  <0> d           1.993   5.124   0.010  0.00  0.00    -0.281 N 
ATOM      6  H1  <0> d           2.601   5.918   0.004  0.00  0.00     0.189 HD
ATOM      7  H9  <0> d          -0.907   3.659   0.031  0.00  0.00     0.119 H 
ENDROOT
BRANCH   1   8
ATOM      8  C2  <0> d           3.801   3.336  -0.003  0.00  0.00    -0.018 C 
ATOM      9  H5  <0> d           3.801   2.246  -0.008  0.00  0.00     0.048 H 
BRANCH   8  10
ATOM     10  C1  <0> d           4.517   3.852  -1.253  0.00  0.00    -0.068 C 
ATOM     11  H2  <0> d           5.545   3.488  -1.259  0.00  0.00     0.028 H 
ATOM     12  H3  <0> d           4.000   3.493  -2.142  0.00  0.00     0.028 H 
ATOM     13  H4  <0> d           4.518   4.941  -1.248  0.00  0.00     0.028 H 
ENDBRANCH   8  10
BRANCH   8  14
ATOM     14  C3  <0> d           4.528   3.840   1.246  0.00  0.00    -0.068 C 
ATOM     15  H6  <0> d           4.018   3.473   2.136  0.00  0.00     0.028 H 
ATOM     16  H7  <0> d           5.555   3.476   1.240  0.00  0.00     0.028 H 
ATOM     17  H8  <0> d           4.529   4.930   1.251  0.00  0.00     0.028 H 
ENDBRANCH   8  14
ENDBRANCH   1   8
BRANCH   2  18
ATOM     18  C7  <0> d           1.181   1.591  -0.001  0.00  0.00     0.212 C 
ATOM     19  O1  <0> d           2.209   0.943  -0.014  0.00  0.00    -0.644 OA
ATOM     20  O2  <0> d          -0.011   0.963   0.007  0.00  0.00    -0.644 OA
ENDBRANCH   2  18
TORSDOF 4
