REMARK  9 active torsions:
REMARK  status: ('A' for Active; 'I' for Inactive)
REMARK    1  A    between atoms: C1_1  and  C2_2 
REMARK    2  A    between atoms: C2_2  and  C3_3 
REMARK    3  A    between atoms: C3_3  and  C4_4 
REMARK    4  A    between atoms: C4_4  and  C5_5 
REMARK    5  A    between atoms: C5_5  and  C6_7 
REMARK    6  A    between atoms: C5_5  and  C7_9 
REMARK    7  A    between atoms: C6_7  and  O1_8 
REMARK    8  A    between atoms: C7_9  and  C8_11 
REMARK    9  A    between atoms: C7_9  and  O2_12 
ROOT
ATOM      1  C5  <0> d          -0.980   1.616  -1.058  0.00  0.00    -0.009 C 
ATOM      2  H1  <0> d          -2.044   1.405  -0.946  0.00  0.00     0.047 H 
ENDROOT
BRANCH   1   3
ATOM      3  C4  <0> d          -0.443   0.888  -2.292  0.00  0.00    -0.058 C 
ATOM      4  H10 <0> d          -0.913   1.296  -3.187  0.00  0.00     0.033 H 
ATOM      5  H11 <0> d           0.637   1.026  -2.354  0.00  0.00     0.033 H 
BRANCH   3   6
ATOM      6  C3  <0> d          -0.761  -0.604  -2.183  0.00  0.00    -0.065 C 
ATOM      7  H8  <0> d          -0.290  -1.012  -1.288  0.00  0.00     0.033 H 
ATOM      8  H9  <0> d          -1.840  -0.742  -2.121  0.00  0.00     0.033 H 
BRANCH   6   9
ATOM      9  C2  <0> d          -0.223  -1.331  -3.417  0.00  0.00    -0.069 C 
ATOM     10  H6  <0> d          -0.694  -0.924  -4.312  0.00  0.00     0.032 H 
ATOM     11  H7  <0> d           0.856  -1.193  -3.479  0.00  0.00     0.032 H 
BRANCH   9  12
ATOM     12  C1  <0> d          -0.541  -2.824  -3.309  0.00  0.00    -0.077 C 
ATOM     13  H3  <0> d          -0.071  -3.231  -2.414  0.00  0.00     0.027 H 
ATOM     14  H4  <0> d          -1.621  -2.962  -3.247  0.00  0.00     0.027 H 
ATOM     15  H5  <0> d          -0.158  -3.342  -4.188  0.00  0.00     0.027 H 
ENDBRANCH   9  12
ENDBRANCH   6   9
ENDBRANCH   3   6
ENDBRANCH   1   3
BRANCH   1  16
ATOM     16  C6  <0> d          -0.231   1.132   0.186  0.00  0.00     0.022 C 
ATOM     17  H12 <0> d          -0.290   0.045   0.246  0.00  0.00     0.074 H 
ATOM     18  H13 <0> d           0.814   1.435   0.122  0.00  0.00     0.074 H 
BRANCH  16  19
ATOM     19  O1  <0> d          -0.823   1.706   1.352  0.00  0.00    -0.400 OA
ATOM     20  H14 <0> d          -0.398   1.442   2.180  0.00  0.00     0.209 HD
ENDBRANCH  16  19
ENDBRANCH   1  16
BRANCH   1  21
ATOM     21  C7  <0> d          -0.773   3.123  -1.223  0.00  0.00     0.037 C 
ATOM     22  H2  <0> d           0.279   3.325  -1.421  0.00  0.00     0.083 H 
BRANCH  21  23
ATOM     23  C8  <0> d          -1.619   3.627  -2.394  0.00  0.00    -0.052 C 
ATOM     24  H15 <0> d          -2.656   3.324  -2.251  0.00  0.00     0.030 H 
ATOM     25  H16 <0> d          -1.562   4.715  -2.441  0.00  0.00     0.030 H 
ATOM     26  H17 <0> d          -1.242   3.203  -3.324  0.00  0.00     0.030 H 
ENDBRANCH  21  23
BRANCH  21  27
ATOM     27  O2  <0> d          -1.171   3.792  -0.025  0.00  0.00    -0.396 OA
ATOM     28  H18 <0> d          -2.098   3.656   0.213  0.00  0.00     0.210 HD
ENDBRANCH  21  27
ENDBRANCH   1  21
TORSDOF 9
