REMARK  1 active torsions:
REMARK  status: ('A' for Active; 'I' for Inactive)
REMARK    1  A    between atoms: C1_1  and  C2_2 
ROOT
ATOM      1  C2  <0> d           0.002  -0.004   0.002  0.00  0.00     0.006 A 
ATOM      2  C3  <0> d          -0.016   1.360   0.009  0.00  0.00    -0.071 A 
ATOM      3  C4  <0> d           1.197   2.062   0.002  0.00  0.00    -0.067 A 
ATOM      4  C5  <0> d           2.369   1.385  -0.012  0.00  0.00    -0.020 A 
ATOM      5  N1  <0> d           2.385   0.027  -0.020  0.00  0.00    -0.333 N 
ATOM      6  H1  <0> d           3.345  -0.511  -0.032  0.00  0.00     0.168 HD
ATOM      7  C6  <0> d           1.237  -0.675  -0.013  0.00  0.00     0.251 A 
ATOM      8  O1  <0> d           1.268  -1.895  -0.020  0.00  0.00    -0.268 OA
ATOM      9  H5  <0> d          -0.956   1.893   0.017  0.00  0.00     0.084 H 
ATOM     10  H6  <0> d           1.197   3.142   0.007  0.00  0.00     0.085 H 
ATOM     11  H7  <0> d           3.301   1.930  -0.018  0.00  0.00     0.111 H 
ENDROOT
BRANCH   1  12
ATOM     12  C1  <0> d          -1.288  -0.783   0.010  0.00  0.00    -0.046 C 
ATOM     13  H2  <0> d          -2.138  -0.085   0.022  0.00  0.00     0.033 H 
ATOM     14  H3  <0> d          -1.325  -1.422   0.905  0.00  0.00     0.033 H 
ATOM     15  H4  <0> d          -1.342  -1.411  -0.892  0.00  0.00     0.033 H 
ENDBRANCH   1  12
TORSDOF 1
