REMARK  2 active torsions:
REMARK  status: ('A' for Active; 'I' for Inactive)
REMARK    1  A    between atoms: C4_4  and  S1_7 
REMARK    2  A    between atoms: S1_7  and  N1_10 
ROOT
ATOM      1  C1  <0> d          -0.017   1.378   0.010  0.00  0.00    -0.083 A 
ATOM      2  C2  <0> d           1.171   2.086   0.002  0.00  0.00    -0.082 A 
ATOM      3  C3  <0> d           2.377   1.411  -0.013  0.00  0.00    -0.060 A 
ATOM      4  C4  <0> d           2.396   0.029  -0.020  0.00  0.00     0.079 A 
ATOM      5  C5  <0> d           1.208  -0.679  -0.012  0.00  0.00    -0.060 A 
ATOM      6  C6  <0> d           0.002  -0.004   0.002  0.00  0.00    -0.082 A 
ATOM      7  H1  <0> d          -0.959   1.905   0.026  0.00  0.00     0.083 H 
ATOM      8  H2  <0> d           1.156   3.165   0.008  0.00  0.00     0.083 H 
ATOM      9  H3  <0> d           3.305   1.963  -0.020  0.00  0.00     0.085 H 
ATOM     10  H4  <0> d           1.223  -1.759  -0.018  0.00  0.00     0.085 H 
ATOM     11  H5  <0> d          -0.926  -0.557   0.008  0.00  0.00     0.083 H 
ENDROOT
BRANCH   4  12
ATOM     12  S1  <0> d           3.934  -0.832  -0.041  0.00  0.00     0.256 S 
ATOM     13  O1  <0> d           3.674  -2.114  -0.595  0.00  0.00    -0.201 OA
ATOM     14  O2  <0> d           4.890   0.060  -0.597  0.00  0.00    -0.201 OA
BRANCH  12  15
ATOM     15  N1  <0> d           4.378  -1.079   1.536  0.00  0.00    -0.324 N 
ATOM     16  H6  <0> d           3.810  -0.760   2.255  0.00  0.00     0.169 HD
ATOM     17  H7  <0> d           5.205  -1.541   1.740  0.00  0.00     0.169 HD
ENDBRANCH  12  15
ENDBRANCH   4  12
TORSDOF 2
