REMARK  5 active torsions:
REMARK  status: ('A' for Active; 'I' for Inactive)
REMARK    1  A    between atoms: C1_1  and  C2_2 
REMARK    2  A    between atoms: C3_4  and  N4_10 
REMARK    3  A    between atoms: C4_6  and  O1_8 
REMARK    4  A    between atoms: O1_8  and  C5_9 
REMARK    5  A    between atoms: N4_10  and  C6_11 
ROOT
ATOM      1  C2  <0> d          -0.365   1.334   4.750  0.00  0.00     0.145 A 
ATOM      2  N1  <0> d          -0.833   1.653   3.556  0.00  0.00    -0.048 NA
ATOM      3  C3  <0> d          -0.211   1.225   2.460  0.00  0.00     0.727 A 
ATOM      4  N2  <0> d           0.878   0.470   2.569  0.00  0.00    -0.018 NA
ATOM      5  C4  <0> d           1.347   0.157   3.770  0.00  0.00     0.286 A 
ATOM      6  N3  <0> d           0.721   0.588   4.860  0.00  0.00    -0.191 NA
ENDROOT
BRANCH   3   7
ATOM      7  N4  <0> d          -0.698   1.558   1.213  0.00  0.00    -0.227 N 
ATOM      8  H7  <0> d          -1.495   2.106   1.135  0.00  0.00     0.177 HD
BRANCH   7   9
ATOM      9  C6  <0> d          -0.013   1.086   0.008  0.00  0.00    -0.005 C 
ATOM     10  H8  <0> d           0.002  -0.004   0.002  0.00  0.00     0.057 H 
ATOM     11  H9  <0> d           1.010   1.463   0.000  0.00  0.00     0.057 H 
ATOM     12  H10 <0> d          -0.540   1.447  -0.875  0.00  0.00     0.057 H 
ENDBRANCH   7   9
ENDBRANCH   3   7
BRANCH   1  13
ATOM     13  C1  <0> d          -1.071   1.821   5.989  0.00  0.00    -0.019 C 
ATOM     14  H1  <0> d          -1.824   1.091   6.288  0.00  0.00     0.037 H 
ATOM     15  H2  <0> d          -0.347   1.948   6.793  0.00  0.00     0.037 H 
ATOM     16  H3  <0> d          -1.554   2.776   5.780  0.00  0.00     0.037 H 
ENDBRANCH   1  13
BRANCH   5  17
ATOM     17  O1  <0> d           2.458  -0.607   3.885  0.00  0.00    -0.324 OA
BRANCH  17  18
ATOM     18  C5  <0> d           3.079  -1.035   2.671  0.00  0.00     0.013 C 
ATOM     19  H4  <0> d           3.957  -1.637   2.905  0.00  0.00     0.067 H 
ATOM     20  H5  <0> d           2.374  -1.631   2.092  0.00  0.00     0.067 H 
ATOM     21  H6  <0> d           3.381  -0.163   2.090  0.00  0.00     0.067 H 
ENDBRANCH  17  18
ENDBRANCH   5  17
TORSDOF 5
