REMARK  2 active torsions:
REMARK  status: ('A' for Active; 'I' for Inactive)
REMARK    1  A    between atoms: C2_2  and  C3_3 
REMARK    2  A    between atoms: C3_3  and  C4_4 
ROOT
ATOM      1  C4  <0> d          -1.318  -1.726  -1.159  0.00  0.00     0.069 A 
ATOM      2  C5  <0> d          -1.748  -1.294  -2.429  0.00  0.00     0.278 A 
ATOM      3  O1  <0> d          -2.105  -0.137  -2.598  0.00  0.00    -0.265 OA
ATOM      4  N1  <0> d          -1.760  -2.165  -3.455  0.00  0.00    -0.205 NA
ATOM      5  C6  <0> d          -1.380  -3.402  -3.290  0.00  0.00     0.069 A 
ATOM      6  N2  <0> d          -0.963  -3.857  -2.092  0.00  0.00    -0.329 N 
ATOM      7  C7  <0> d          -0.921  -3.023  -1.010  0.00  0.00     0.192 A 
ATOM      8  O2  <0> d          -0.497  -3.478   0.190  0.00  0.00    -0.171 OA
ATOM      9  H6  <0> d          -1.401  -4.077  -4.132  0.00  0.00     0.143 H 
ATOM     10  H7  <0> d          -0.687  -4.782  -1.998  0.00  0.00     0.168 HD
ENDROOT
BRANCH   1  11
ATOM     11  C3  <0> d          -1.293  -0.775   0.010  0.00  0.00    -0.017 C 
ATOM     12  H4  <0> d          -1.374  -1.339   0.939  0.00  0.00     0.046 H 
ATOM     13  H5  <0> d          -2.130  -0.081  -0.068  0.00  0.00     0.046 H 
BRANCH  11  14
ATOM     14  C2  <0> d           0.002  -0.004   0.002  0.00  0.00    -0.107 C 
ATOM     15  C1  <0> d          -0.016   1.306   0.009  0.00  0.00    -0.124 C 
ATOM     16  H1  <0> d           0.912   1.859   0.003  0.00  0.00     0.066 H 
ATOM     17  H2  <0> d          -0.958   1.833   0.017  0.00  0.00     0.066 H 
ATOM     18  H3  <0> d           0.945  -0.531  -0.010  0.00  0.00     0.076 H 
ENDBRANCH  11  14
ENDBRANCH   1  11
TORSDOF 2
