REMARK  3 active torsions:
REMARK  status: ('A' for Active; 'I' for Inactive)
REMARK    1  A    between atoms: C2_2  and  C3_3 
REMARK    2  A    between atoms: C3_3  and  N1_4 
REMARK    3  A    between atoms: N1_4  and  C4_5 
ROOT
ATOM      1  C4  <0> d          -1.231   1.648   0.017  0.00  0.00     0.028 A 
ATOM      2  C5  <0> d          -1.251   3.037   0.030  0.00  0.00    -0.055 A 
ATOM      3  C6  <0> d          -2.458   3.709   0.035  0.00  0.00    -0.044 A 
ATOM      4  C7  <0> d          -3.647   3.000   0.037  0.00  0.00     0.116 A 
ATOM      5  C8  <0> d          -3.629   1.615   0.029  0.00  0.00    -0.044 A 
ATOM      6  C9  <0> d          -2.425   0.939   0.019  0.00  0.00    -0.055 A 
ATOM      7  F1  <0> d          -4.826   3.659   0.046  0.00  0.00    -0.206 F 
ATOM      8  H7  <0> d          -0.324   3.591   0.033  0.00  0.00     0.087 H 
ATOM      9  H8  <0> d          -2.474   4.789   0.041  0.00  0.00     0.088 H 
ATOM     10  H9  <0> d          -4.558   1.064   0.030  0.00  0.00     0.088 H 
ATOM     11  H10 <0> d          -2.412  -0.141   0.012  0.00  0.00     0.087 H 
ENDROOT
BRANCH   1  12
ATOM     12  N1  <0> d          -0.011   0.966   0.007  0.00  0.00    -0.386 N 
ATOM     13  H6  <0> d           0.004  -0.134   0.006  0.00  0.00     0.160 HD
BRANCH  12  14
ATOM     14  C3  <0> d           1.248   1.716  -0.001  0.00  0.00     0.007 C 
ATOM     15  H4  <0> d           1.306   2.344   0.900  0.00  0.00     0.070 H 
ATOM     16  H5  <0> d           1.289   2.353  -0.896  0.00  0.00     0.070 H 
BRANCH  14  17
ATOM     17  C2  <0> d           2.406   0.752  -0.017  0.00  0.00    -0.095 C 
ATOM     18  C1  <0> d           3.317   0.838  -0.955  0.00  0.00    -0.123 C 
ATOM     19  H1  <0> d           4.163   0.135  -0.966  0.00  0.00     0.066 H 
ATOM     20  H2  <0> d           3.236   1.614  -1.730  0.00  0.00     0.066 H 
ATOM     21  H3  <0> d           2.487  -0.024   0.758  0.00  0.00     0.078 H 
ENDBRANCH  14  17
ENDBRANCH  12  14
ENDBRANCH   1  12
TORSDOF 3
