REMARK  0 active torsions:
REMARK  status: ('A' for Active; 'I' for Inactive)
ROOT
ATOM      1  C1  <0> d           1.106   2.013   0.002  0.00  0.00     0.092 A 
ATOM      2  N1  <0> d          -0.016   1.322   0.009  0.00  0.00    -0.211 NA
ATOM      3  C2  <0> d           0.002  -0.004   0.002  0.00  0.00     0.254 A 
ATOM      4  C3  <0> d           1.226  -0.662  -0.013  0.00  0.00     0.231 A 
ATOM      5  C4  <0> d           2.386   0.103  -0.020  0.00  0.00     0.254 A 
ATOM      6  N2  <0> d           2.285   1.425  -0.012  0.00  0.00    -0.211 NA
ATOM      7  F1  <0> d           3.599  -0.492  -0.035  0.00  0.00    -0.181 F 
ATOM      8  F2  <0> d           1.286  -2.012  -0.021  0.00  0.00    -0.196 F 
ATOM      9  F3  <0> d          -1.153  -0.705   0.010  0.00  0.00    -0.181 F 
ATOM     10  H1  <0> d           1.058   3.092   0.009  0.00  0.00     0.146 H 
ENDROOT
TORSDOF 0
