REMARK  3 active torsions:
REMARK  status: ('A' for Active; 'I' for Inactive)
REMARK    1  A    between atoms: C3_3  and  N2_7 
REMARK    2  A    between atoms: N2_7  and  C6_8 
REMARK    3  A    between atoms: C6_8  and  C7_9 
ROOT
ATOM      1  C1  <0> d          -3.095  -3.755   0.012  0.00  0.00    -0.064 A 
ATOM      2  C2  <0> d          -2.911  -2.381   0.023  0.00  0.00    -0.055 A 
ATOM      3  C3  <0> d          -1.609  -1.888   0.007  0.00  0.00     0.046 A 
ATOM      4  C4  <0> d          -0.548  -2.785  -0.008  0.00  0.00     0.027 A 
ATOM      5  N1  <0> d          -0.768  -4.085  -0.013  0.00  0.00    -0.271 NA
ATOM      6  C5  <0> d          -1.989  -4.584  -0.003  0.00  0.00     0.002 A 
ATOM      7  H1  <0> d          -4.091  -4.172   0.020  0.00  0.00     0.085 H 
ATOM      8  H2  <0> d          -3.757  -1.710   0.039  0.00  0.00     0.087 H 
ATOM      9  H3  <0> d           0.466  -2.415  -0.016  0.00  0.00     0.118 H 
ATOM     10  H4  <0> d          -2.127  -5.655  -0.007  0.00  0.00     0.114 H 
ENDROOT
BRANCH   3  11
ATOM     11  N2  <0> d          -1.372  -0.511   0.012  0.00  0.00    -0.379 N 
ATOM     12  H5  <0> d          -2.118   0.109   0.023  0.00  0.00     0.160 HD
BRANCH  11  13
ATOM     13  C6  <0> d           0.002  -0.004   0.002  0.00  0.00     0.073 C 
ATOM     14  H6  <0> d           0.512  -0.356  -0.895  0.00  0.00     0.080 H 
ATOM     15  H7  <0> d           0.529  -0.365   0.885  0.00  0.00     0.080 H 
BRANCH  13  16
ATOM     16  C7  <0> d          -0.018   1.503   0.010  0.00  0.00     0.191 C 
ATOM     17  O1  <0> d          -1.073   2.093   0.018  0.00  0.00    -0.647 OA
ATOM     18  O2  <0> d           1.135   2.190   0.003  0.00  0.00    -0.647 OA
ENDBRANCH  13  16
ENDBRANCH  11  13
ENDBRANCH   3  11
TORSDOF 3
