REMARK  4 active torsions:
REMARK  status: ('A' for Active; 'I' for Inactive)
REMARK    1  A    between atoms: C4_4  and  N2_8 
REMARK    2  A    between atoms: N2_8  and  C7_9 
REMARK    3  A    between atoms: C7_9  and  C8_10 
REMARK    4  A    between atoms: C8_10  and  O1_11 
ROOT
ATOM      1  C1  <0> d           0.111   3.259  -1.637  0.00  0.00    -0.062 C 
ATOM      2  C2  <0> d           1.563   2.851  -1.287  0.00  0.00    -0.062 C 
ATOM      3  C3  <0> d           1.421   2.011  -0.001  0.00  0.00    -0.019 C 
ATOM      4  C4  <0> d          -0.018   1.465   0.010  0.00  0.00     0.244 C 
ATOM      5  C5  <0> d          -0.699   1.991  -1.270  0.00  0.00    -0.019 C 
ATOM      6  C6  <0> d          -0.734   1.952   1.200  0.00  0.00     0.101 C 
ATOM      7  N1  <0> d          -1.286   2.329   2.119  0.00  0.00    -0.195 NA
ATOM      8  H1  <0> d          -0.022   3.482  -2.706  0.00  0.00     0.033 H 
ATOM      9  H2  <0> d          -0.248   4.109  -1.038  0.00  0.00     0.033 H 
ATOM     10  H3  <0> d           1.990   2.267  -2.116  0.00  0.00     0.033 H 
ATOM     11  H4  <0> d           2.169   3.755  -1.125  0.00  0.00     0.033 H 
ATOM     12  H5  <0> d           2.152   1.190  -0.016  0.00  0.00     0.038 H 
ATOM     13  H6  <0> d           1.604   2.650   0.876  0.00  0.00     0.038 H 
ATOM     14  H7  <0> d          -1.750   2.265  -1.096  0.00  0.00     0.038 H 
ATOM     15  H8  <0> d          -0.641   1.267  -2.096  0.00  0.00     0.038 H 
ENDROOT
BRANCH   4  16
ATOM     16  N2  <0> d           0.002  -0.004   0.002  0.00  0.00     0.109 N 
ATOM     17  H9  <0> d           0.517  -0.359  -0.903  0.00  0.00     0.318 HD
BRANCH  16  18
ATOM     18  C7  <0> d          -1.362  -0.549   0.012  0.00  0.00     0.133 C 
ATOM     19  H10 <0> d          -1.886  -0.208   0.917  0.00  0.00     0.082 H 
ATOM     20  H11 <0> d          -1.903  -0.199  -0.879  0.00  0.00     0.082 H 
BRANCH  18  21
ATOM     21  C8  <0> d          -1.300  -2.078   0.003  0.00  0.00     0.041 C 
ATOM     22  H12 <0> d          -2.319  -2.485  -0.080  0.00  0.00     0.076 H 
ATOM     23  H13 <0> d          -0.700  -2.416  -0.854  0.00  0.00     0.076 H 
BRANCH  21  24
ATOM     24  O1  <0> d          -0.701  -2.537   1.216  0.00  0.00    -0.399 OA
ATOM     25  H14 <0> d          -0.571  -3.615   1.391  0.00  0.00     0.209 HD
ENDBRANCH  21  24
ENDBRANCH  18  21
ENDBRANCH  16  18
ENDBRANCH   4  16
TORSDOF 4
