REMARK  4 active torsions:
REMARK  status: ('A' for Active; 'I' for Inactive)
REMARK    1  A    between atoms: N1_3  and  C4_7 
REMARK    2  A    between atoms: C3_5  and  N3_6 
REMARK    3  A    between atoms: C4_7  and  C5_8 
REMARK    4  A    between atoms: C5_8  and  C6_9 
ROOT
ATOM      1  C6  <0> d           5.591  -0.053   1.130  0.00  0.00     0.016 C 
ATOM      2  C7  <0> d           6.100  -0.851   2.258  0.00  0.00     0.059 C 
ATOM      3  N4  <0> d           6.492  -1.466   3.128  0.00  0.00    -0.197 NA
ATOM      4  H9  <0> d           5.949  -0.479   0.193  0.00  0.00     0.054 H 
ATOM      5  H10 <0> d           5.946   0.973   1.222  0.00  0.00     0.054 H 
ENDROOT
BRANCH   1   6
ATOM      6  C5  <0> d           4.061  -0.068   1.145  0.00  0.00    -0.037 C 
ATOM      7  H7  <0> d           3.703   0.358   2.082  0.00  0.00     0.036 H 
ATOM      8  H8  <0> d           3.706  -1.094   1.053  0.00  0.00     0.036 H 
BRANCH   6   9
ATOM      9  C4  <0> d           3.532   0.761  -0.028  0.00  0.00     0.017 C 
ATOM     10  H5  <0> d           3.891   0.335  -0.965  0.00  0.00     0.067 H 
ATOM     11  H6  <0> d           3.887   1.788   0.064  0.00  0.00     0.067 H 
BRANCH   9  12
ATOM     12  N1  <0> d           2.067   0.748  -0.014  0.00  0.00    -0.279 N 
ATOM     13  C2  <0> d           1.264   1.832  -0.000  0.00  0.00     0.002 A 
ATOM     14  C1  <0> d          -0.017   1.400   0.010  0.00  0.00    -0.021 A 
ATOM     15  H2  <0> d           1.588   2.863   0.002  0.00  0.00     0.114 H 
ATOM     16  C3  <0> d           0.002  -0.004   0.002  0.00  0.00     0.142 A 
ATOM     17  H1  <0> d          -0.898   2.024   0.025  0.00  0.00     0.091 H 
ATOM     18  N2  <0> d           1.255  -0.394  -0.012  0.00  0.00    -0.155 NA
BRANCH  16  19
ATOM     19  N3  <0> d          -1.119  -0.842   0.009  0.00  0.00    -0.383 N 
ATOM     20  H3  <0> d          -2.011  -0.459   0.019  0.00  0.00     0.157 HD
ATOM     21  H4  <0> d          -1.005  -1.805   0.002  0.00  0.00     0.157 HD
ENDBRANCH  16  19
ENDBRANCH   9  12
ENDBRANCH   6   9
ENDBRANCH   1   6
TORSDOF 4
