REMARK  1 active torsions:
REMARK  status: ('A' for Active; 'I' for Inactive)
REMARK    1  A    between atoms: C3_3  and  C5_6 
ROOT
ATOM      1  C1  <0> d           1.221  -0.642  -0.013  0.00  0.00    -0.075 A 
ATOM      2  C2  <0> d           0.002  -0.004   0.002  0.00  0.00    -0.062 A 
ATOM      3  C3  <0> d          -0.017   1.378   0.010  0.00  0.00     0.059 A 
ATOM      4  S1  <0> d           1.726   1.768  -0.005  0.00  0.00    -0.098 SA
ATOM      5  C4  <0> d           2.359   0.099  -0.020  0.00  0.00    -0.044 A 
ATOM      6  H1  <0> d           1.272  -1.721  -0.019  0.00  0.00     0.084 H 
ATOM      7  H2  <0> d          -0.918  -0.570   0.007  0.00  0.00     0.085 H 
ATOM      8  H3  <0> d           3.386  -0.236  -0.032  0.00  0.00     0.095 H 
ENDROOT
BRANCH   3   9
ATOM      9  C5  <0> d          -1.171   2.290   0.020  0.00  0.00     0.209 A 
ATOM     10  O1  <0> d          -1.126   3.638   0.028  0.00  0.00    -0.281 OA
ATOM     11  C6  <0> d          -2.404   4.059   0.036  0.00  0.00     0.127 A 
ATOM     12  N2  <0> d          -3.168   3.003   0.034  0.00  0.00    -0.136 NA
ATOM     13  H4  <0> d          -2.737   5.086   0.043  0.00  0.00     0.158 H 
ATOM     14  N1  <0> d          -2.439   1.943   0.019  0.00  0.00    -0.121 NA
ENDBRANCH   3   9
TORSDOF 1
