REMARK  2 active torsions:
REMARK  status: ('A' for Active; 'I' for Inactive)
REMARK    1  A    between atoms: C4_4  and  O2_10 
REMARK    2  A    between atoms: C5_6  and  O1_9 
ROOT
ATOM      1  C1  <0> d           0.718  -0.497  -1.257  0.00  0.00    -0.063 C 
ATOM      2  C2  <0> d           0.002  -0.004   0.002  0.00  0.00    -0.063 C 
ATOM      3  C3  <0> d          -0.019   1.526   0.010  0.00  0.00    -0.039 C 
ATOM      4  C4  <0> d           1.417   2.055  -0.000  0.00  0.00     0.060 C 
ATOM      5  H1  <0> d           1.944   1.694   0.883  0.00  0.00     0.086 H 
ATOM      6  C5  <0> d           2.133   1.562  -1.259  0.00  0.00     0.060 C 
ATOM      7  H2  <0> d           1.606   1.923  -2.142  0.00  0.00     0.086 H 
ATOM      8  C6  <0> d           2.154   0.032  -1.268  0.00  0.00    -0.039 C 
ATOM      9  H3  <0> d           0.733  -1.587  -1.263  0.00  0.00     0.033 H 
ATOM     10  H4  <0> d           0.191  -0.136  -2.140  0.00  0.00     0.033 H 
ATOM     11  H5  <0> d           0.529  -0.365   0.885  0.00  0.00     0.033 H 
ATOM     12  H6  <0> d          -1.020  -0.381   0.010  0.00  0.00     0.033 H 
ATOM     13  H7  <0> d          -0.546   1.887  -0.873  0.00  0.00     0.036 H 
ATOM     14  H8  <0> d          -0.529   1.877   0.907  0.00  0.00     0.036 H 
ATOM     15  H9  <0> d           2.681  -0.329  -0.385  0.00  0.00     0.036 H 
ATOM     16  H10 <0> d           2.664  -0.319  -2.164  0.00  0.00     0.036 H 
ENDROOT
BRANCH   4  17
ATOM     17  O2  <0> d           1.397   3.484   0.007  0.00  0.00    -0.393 OA
ATOM     18  H12 <0> d           0.958   3.867   0.779  0.00  0.00     0.210 HD
ENDBRANCH   4  17
BRANCH   6  19
ATOM     19  O1  <0> d           3.474   2.057  -1.269  0.00  0.00    -0.393 OA
ATOM     20  H11 <0> d           3.988   1.782  -2.041  0.00  0.00     0.210 HD
ENDBRANCH   6  19
TORSDOF 2
