REMARK  6 active torsions:
REMARK  status: ('A' for Active; 'I' for Inactive)
REMARK    1  A    between atoms: C1_1  and  C2_2 
REMARK    2  A    between atoms: C2_2  and  C3_3 
REMARK    3  A    between atoms: C3_3  and  C4_5 
REMARK    4  A    between atoms: C3_3  and  C5_6 
REMARK    5  A    between atoms: C5_6  and  C6_8 
REMARK    6  A    between atoms: C5_6  and  N1_12 
ROOT
ATOM      1  C3  <0> d           0.740  -0.565  -1.287  0.00  0.00    -0.020 C 
ATOM      2  H1  <0> d           0.429  -0.319  -2.303  0.00  0.00     0.043 H 
ENDROOT
BRANCH   1   3
ATOM      3  C2  <0> d          -0.176   0.144  -0.288  0.00  0.00    -0.063 C 
ATOM      4  H6  <0> d           0.188  -0.030   0.725  0.00  0.00     0.033 H 
ATOM      5  H7  <0> d          -1.189  -0.248  -0.382  0.00  0.00     0.033 H 
BRANCH   3   6
ATOM      6  C1  <0> d          -0.181   1.646  -0.577  0.00  0.00    -0.076 C 
ATOM      7  H3  <0> d           0.832   2.037  -0.483  0.00  0.00     0.027 H 
ATOM      8  H4  <0> d          -0.544   1.820  -1.590  0.00  0.00     0.027 H 
ATOM      9  H5  <0> d          -0.833   2.151   0.135  0.00  0.00     0.027 H 
ENDBRANCH   3   6
ENDBRANCH   1   3
BRANCH   1  10
ATOM     10  C4  <0> d           2.183  -0.107  -1.070  0.00  0.00    -0.071 C 
ATOM     11  H8  <0> d           2.823  -0.546  -1.836  0.00  0.00     0.028 H 
ATOM     12  H9  <0> d           2.233   0.980  -1.135  0.00  0.00     0.028 H 
ATOM     13  H10 <0> d           2.523  -0.429  -0.086  0.00  0.00     0.028 H 
ENDBRANCH   1  10
BRANCH   1  14
ATOM     14  C5  <0> d           0.648  -2.078  -1.079  0.00  0.00     0.225 C 
ATOM     15  H2  <0> d          -0.394  -2.391  -1.138  0.00  0.00     0.102 H 
BRANCH  14  16
ATOM     16  C6  <0> d           1.458  -2.793  -2.163  0.00  0.00     0.418 C 
ATOM     17  F1  <0> d           2.812  -2.470  -2.022  0.00  0.00    -0.169 F 
ATOM     18  F2  <0> d           1.293  -4.176  -2.033  0.00  0.00    -0.169 F 
ATOM     19  F3  <0> d           1.010  -2.385  -3.424  0.00  0.00    -0.169 F 
ENDBRANCH  14  16
BRANCH  14  20
ATOM     20  N1  <0> d           1.188  -2.424   0.243  0.00  0.00     0.092 N 
ATOM     21  H11 <0> d           1.080  -3.409   0.432  0.00  0.00     0.313 HD
ATOM     22  H12 <0> d           2.154  -2.144   0.324  0.00  0.00     0.313 HD
ENDBRANCH  14  20
ENDBRANCH   1  14
TORSDOF 6
