REMARK  5 active torsions:
REMARK  status: ('A' for Active; 'I' for Inactive)
REMARK    1  A    between atoms: C3_3  and  N3_11 
REMARK    2  A    between atoms: C4_4  and  N2_7 
REMARK    3  A    between atoms: N2_7  and  C6_8 
REMARK    4  A    between atoms: C6_8  and  C7_9 
REMARK    5  A    between atoms: C7_9  and  O1_10 
ROOT
ATOM      1  C1  <0> d           1.195   2.062   0.002  0.00  0.00    -0.064 A 
ATOM      2  C2  <0> d          -0.017   1.384   0.010  0.00  0.00    -0.053 A 
ATOM      3  C3  <0> d           0.002  -0.004   0.002  0.00  0.00     0.072 A 
ATOM      4  C4  <0> d           1.234  -0.664  -0.013  0.00  0.00     0.149 A 
ATOM      5  N1  <0> d           2.364   0.023  -0.020  0.00  0.00    -0.241 NA
ATOM      6  C5  <0> d           2.373   1.343  -0.013  0.00  0.00     0.005 A 
ATOM      7  H1  <0> d           1.216   3.142   0.007  0.00  0.00     0.085 H 
ATOM      8  H2  <0> d          -0.952   1.924   0.017  0.00  0.00     0.087 H 
ATOM      9  H3  <0> d           3.317   1.869  -0.020  0.00  0.00     0.114 H 
ENDROOT
BRANCH   4  10
ATOM     10  N2  <0> d           1.271  -2.057  -0.021  0.00  0.00    -0.371 N 
ATOM     11  H4  <0> d           0.334  -2.632  -0.015  0.00  0.00     0.161 HD
BRANCH  10  12
ATOM     12  C6  <0> d           2.559  -2.754  -0.037  0.00  0.00     0.013 C 
ATOM     13  H5  <0> d           3.120  -2.469  -0.939  0.00  0.00     0.067 H 
ATOM     14  H6  <0> d           3.138  -2.478   0.857  0.00  0.00     0.067 H 
BRANCH  12  15
ATOM     15  C7  <0> d           2.321  -4.266  -0.042  0.00  0.00     0.031 C 
ATOM     16  H7  <0> d           3.285  -4.790   0.036  0.00  0.00     0.076 H 
ATOM     17  H8  <0> d           1.684  -4.539   0.812  0.00  0.00     0.076 H 
BRANCH  15  18
ATOM     18  O1  <0> d           1.672  -4.641  -1.259  0.00  0.00    -0.399 OA
ATOM     19  H9  <0> d           1.418  -5.695  -1.444  0.00  0.00     0.209 HD
ENDBRANCH  15  18
ENDBRANCH  12  15
ENDBRANCH  10  12
ENDBRANCH   4  10
BRANCH   3  20
ATOM     20  N3  <0> d          -1.194  -0.731   0.010  0.00  0.00    -0.396 N 
ATOM     21  H10 <0> d          -1.170  -1.831   0.004  0.00  0.00     0.156 HD
ATOM     22  H11 <0> d          -2.159  -0.203   0.022  0.00  0.00     0.156 HD
ENDBRANCH   3  20
TORSDOF 5
