REMARK  8 active torsions:
REMARK  status: ('A' for Active; 'I' for Inactive)
REMARK    1  A    between atoms: C1_1  and  C2_2 
REMARK    2  A    between atoms: C2_2  and  O1_3 
REMARK    3  A    between atoms: O1_3  and  C3_4 
REMARK       I    between atoms: C3_4  and  N1_6 
REMARK    4  A    between atoms: N1_6  and  C4_7 
REMARK    5  A    between atoms: C4_7  and  C5_8 
REMARK    6  A    between atoms: C5_8  and  C6_9 
REMARK    7  A    between atoms: C5_8  and  C7_10 
REMARK    8  A    between atoms: C5_8  and  C8_11 
ROOT
ATOM      1  C4  <0> d           1.281  -0.719  -0.014  0.00  0.00     0.003 C 
ATOM      2  H7  <0> d           1.840  -0.443  -0.908  0.00  0.00     0.065 H 
ATOM      3  H8  <0> d           1.857  -0.453   0.872  0.00  0.00     0.065 H 
ENDROOT
BRANCH   1   4
ATOM      4  N1  <0> d           0.002  -0.004   0.002  0.00  0.00    -0.336 N 
ATOM      5  C3  <0> d          -0.016   1.344   0.009  0.00  0.00     0.360 C 
ATOM      6  O2  <0> d           1.028   1.965   0.003  0.00  0.00    -0.239 OA
ATOM      7  H6  <0> d          -0.831  -0.500   0.007  0.00  0.00     0.164 HD
BRANCH   5   8
ATOM      8  O1  <0> d          -1.191   2.001   0.019  0.00  0.00    -0.304 OA
BRANCH   8   9
ATOM      9  C2  <0> d          -1.135   3.452   0.026  0.00  0.00     0.027 C 
ATOM     10  H4  <0> d          -0.603   3.790   0.915  0.00  0.00     0.074 H 
ATOM     11  H5  <0> d          -0.612   3.800  -0.864  0.00  0.00     0.074 H 
BRANCH   9  12
ATOM     12  C1  <0> d          -2.557   4.017   0.036  0.00  0.00    -0.056 C 
ATOM     13  H1  <0> d          -3.080   3.669   0.927  0.00  0.00     0.030 H 
ATOM     14  H2  <0> d          -2.514   5.106   0.042  0.00  0.00     0.030 H 
ATOM     15  H3  <0> d          -3.088   3.679  -0.853  0.00  0.00     0.030 H 
ENDBRANCH   9  12
ENDBRANCH   8   9
ENDBRANCH   5   8
ENDBRANCH   1   4
BRANCH   1  16
ATOM     16  C5  <0> d           1.021  -2.227  -0.020  0.00  0.00    -0.035 C 
BRANCH  16  17
ATOM     17  C6  <0> d           0.212  -2.601  -1.263  0.00  0.00    -0.068 C 
ATOM     18  H9  <0> d           0.772  -2.325  -2.157  0.00  0.00     0.028 H 
ATOM     19  H10 <0> d           0.028  -3.675  -1.267  0.00  0.00     0.028 H 
ATOM     20  H11 <0> d          -0.739  -2.069  -1.251  0.00  0.00     0.028 H 
ENDBRANCH  16  17
BRANCH  16  21
ATOM     21  C7  <0> d           2.357  -2.974  -0.036  0.00  0.00    -0.068 C 
ATOM     22  H12 <0> d           2.933  -2.708   0.850  0.00  0.00     0.028 H 
ATOM     23  H13 <0> d           2.172  -4.048  -0.040  0.00  0.00     0.028 H 
ATOM     24  H14 <0> d           2.916  -2.698  -0.930  0.00  0.00     0.028 H 
ENDBRANCH  16  21
BRANCH  16  25
ATOM     25  C8  <0> d           0.236  -2.614   1.235  0.00  0.00    -0.068 C 
ATOM     26  H15 <0> d          -0.715  -2.082   1.247  0.00  0.00     0.028 H 
ATOM     27  H16 <0> d           0.052  -3.689   1.231  0.00  0.00     0.028 H 
ATOM     28  H17 <0> d           0.813  -2.348   2.121  0.00  0.00     0.028 H 
ENDBRANCH  16  25
ENDBRANCH   1  16
TORSDOF 8
