REMARK  5 active torsions:
REMARK  status: ('A' for Active; 'I' for Inactive)
REMARK    1  A    between atoms: C1_1  and  C2_2 
REMARK    2  A    between atoms: C5_5  and  C10_12 
REMARK    3  A    between atoms: C6_6  and  C8_8 
REMARK    4  A    between atoms: C8_8  and  C9_10 
REMARK    5  A    between atoms: C8_8  and  O1_11 
ROOT
ATOM      1  C2  <0> d          -0.018   1.503   0.010  0.00  0.00    -0.061 A 
ATOM      2  C3  <0> d           1.169   2.210   0.003  0.00  0.00    -0.077 A 
ATOM      3  C4  <0> d           1.151   3.592   0.010  0.00  0.00    -0.076 A 
ATOM      4  C5  <0> d          -0.056   4.267   0.025  0.00  0.00    -0.053 A 
ATOM      5  C6  <0> d          -1.243   3.560   0.033  0.00  0.00    -0.024 A 
ATOM      6  C7  <0> d          -1.225   2.178   0.020  0.00  0.00    -0.068 A 
ATOM      7  H5  <0> d           2.112   1.683  -0.009  0.00  0.00     0.084 H 
ATOM      8  H6  <0> d           2.079   4.145   0.004  0.00  0.00     0.084 H 
ATOM      9  H7  <0> d          -2.152   1.625   0.021  0.00  0.00     0.085 H 
ENDROOT
BRANCH   5  10
ATOM     10  C8  <0> d          -2.558   4.295   0.049  0.00  0.00     0.058 C 
ATOM     11  H1  <0> d          -2.459   5.205   0.642  0.00  0.00     0.090 H 
BRANCH  10  12
ATOM     12  C9  <0> d          -2.956   4.662  -1.382  0.00  0.00    -0.049 C 
ATOM     13  H8  <0> d          -3.056   3.752  -1.975  0.00  0.00     0.031 H 
ATOM     14  H9  <0> d          -3.907   5.194  -1.370  0.00  0.00     0.031 H 
ATOM     15  H10 <0> d          -2.189   5.299  -1.821  0.00  0.00     0.031 H 
ENDBRANCH  10  12
BRANCH  10  16
ATOM     16  O1  <0> d          -3.565   3.459   0.624  0.00  0.00    -0.391 OA
ATOM     17  H11 <0> d          -3.707   2.631   0.147  0.00  0.00     0.210 HD
ENDBRANCH  10  16
ENDBRANCH   5  10
BRANCH   4  18
ATOM     18  C10 <0> d          -0.076   5.774   0.033  0.00  0.00    -0.051 C 
ATOM     19  H12 <0> d          -0.091   6.143  -0.993  0.00  0.00     0.033 H 
ATOM     20  H13 <0> d          -0.966   6.123   0.556  0.00  0.00     0.033 H 
ATOM     21  H14 <0> d           0.813   6.147   0.540  0.00  0.00     0.033 H 
ENDBRANCH   4  18
BRANCH   1  22
ATOM     22  C1  <0> d           0.002  -0.004   0.002  0.00  0.00    -0.051 C 
ATOM     23  H2  <0> d           0.017  -0.373   1.028  0.00  0.00     0.033 H 
ATOM     24  H3  <0> d          -0.888  -0.377  -0.505  0.00  0.00     0.033 H 
ATOM     25  H4  <0> d           0.892  -0.352  -0.522  0.00  0.00     0.033 H 
ENDBRANCH   1  22
TORSDOF 5
