REMARK  4 active torsions:
REMARK  status: ('A' for Active; 'I' for Inactive)
REMARK    1  A    between atoms: C2_2  and  C4_7 
REMARK    2  A    between atoms: C2_2  and  C5_9 
REMARK    3  A    between atoms: C4_7  and  O3_8 
REMARK    4  A    between atoms: C5_9  and  O4_10 
ROOT
ATOM      1  C1  <0> d          -0.667   3.243   0.024  0.00  0.00     0.058 A 
ATOM      2  C2  <0> d          -1.219   1.805   0.017  0.00  0.00     0.099 A 
ATOM      3  N1  <0> d          -0.011   0.966   0.007  0.00  0.00    -0.321 N 
ATOM      4  C3  <0> d           1.068   1.760   0.001  0.00  0.00     0.361 A 
ATOM      5  O1  <0> d           2.206   1.333  -0.011  0.00  0.00    -0.238 OA
ATOM      6  O2  <0> d           0.779   3.066   0.010  0.00  0.00    -0.301 OA
ATOM      7  H1  <0> d          -0.978   3.771   0.926  0.00  0.00     0.079 H 
ATOM      8  H2  <0> d          -0.994   3.782  -0.865  0.00  0.00     0.079 H 
ATOM      9  H3  <0> d           0.002  -0.004   0.002  0.00  0.00     0.165 HD
ENDROOT
BRANCH   2  10
ATOM     10  C4  <0> d          -2.057   1.555  -1.238  0.00  0.00     0.044 C 
ATOM     11  H4  <0> d          -2.933   2.203  -1.226  0.00  0.00     0.078 H 
ATOM     12  H5  <0> d          -1.459   1.770  -2.124  0.00  0.00     0.078 H 
BRANCH  10  13
ATOM     13  O3  <0> d          -2.476   0.189  -1.268  0.00  0.00    -0.398 OA
ATOM     14  H6  <0> d          -3.013  -0.042  -2.038  0.00  0.00     0.209 HD
ENDBRANCH  10  13
ENDBRANCH   2  10
BRANCH   2  15
ATOM     15  C5  <0> d          -2.046   1.543   1.278  0.00  0.00     0.044 C 
ATOM     16  H7  <0> d          -1.470   1.833   2.156  0.00  0.00     0.078 H 
ATOM     17  H8  <0> d          -2.966   2.125   1.236  0.00  0.00     0.078 H 
BRANCH  15  18
ATOM     18  O4  <0> d          -2.366   0.152   1.356  0.00  0.00    -0.398 OA
ATOM     19  H9  <0> d          -2.890  -0.087   2.133  0.00  0.00     0.209 HD
ENDBRANCH  15  18
ENDBRANCH   2  15
TORSDOF 4
