REMARK  2 active torsions:
REMARK  status: ('A' for Active; 'I' for Inactive)
REMARK    1  A    between atoms: C3_3  and  C4_4 
REMARK    2  A    between atoms: C3_3  and  C6_7 
ROOT
ATOM      1  C4  <0> d          -0.602   2.069  -1.295  0.00  0.00     0.022 C 
ATOM      2  C5  <0> d          -1.854   1.361  -1.606  0.00  0.00     0.059 C 
ATOM      3  N1  <0> d          -2.821   0.814  -1.845  0.00  0.00    -0.197 NA
ATOM      4  H5  <0> d          -0.805   3.135  -1.187  0.00  0.00     0.056 H 
ATOM      5  H6  <0> d           0.112   1.916  -2.104  0.00  0.00     0.056 H 
ENDROOT
BRANCH   1   6
ATOM      6  C3  <0> d          -0.019   1.526   0.010  0.00  0.00    -0.016 A 
ATOM      7  C1  <0> d           1.478   1.207   0.037  0.00  0.00    -0.056 A 
ATOM      8  C2  <0> d           0.453   0.070   0.022  0.00  0.00    -0.056 A 
ATOM      9  H1  <0> d           2.046   1.384  -0.876  0.00  0.00     0.034 H 
ATOM     10  H2  <0> d           2.014   1.388   0.968  0.00  0.00     0.034 H 
ATOM     11  H3  <0> d           0.316  -0.496   0.943  0.00  0.00     0.034 H 
ATOM     12  H4  <0> d           0.348  -0.500  -0.901  0.00  0.00     0.034 H 
BRANCH   6  13
ATOM     13  C6  <0> d          -0.647   2.075   1.293  0.00  0.00     0.022 C 
ATOM     14  C7  <0> d          -0.928   3.510   1.127  0.00  0.00     0.059 C 
ATOM     15  N2  <0> d          -1.145   4.618   0.998  0.00  0.00    -0.197 NA
ATOM     16  H7  <0> d          -1.577   1.544   1.498  0.00  0.00     0.056 H 
ATOM     17  H8  <0> d           0.043   1.934   2.125  0.00  0.00     0.056 H 
ENDBRANCH   6  13
ENDBRANCH   1   6
TORSDOF 2
