REMARK  5 active torsions:
REMARK  status: ('A' for Active; 'I' for Inactive)
REMARK    1  A    between atoms: C1_1  and  C2_2 
REMARK    2  A    between atoms: C2_2  and  O1_3 
REMARK    3  A    between atoms: O1_3  and  C3_4 
REMARK    4  A    between atoms: C3_4  and  C4_6 
REMARK    5  A    between atoms: C4_6  and  C5_7 
ROOT
ATOM      1  C5  <0> d          -0.018   1.468   0.010  0.00  0.00     0.023 C 
ATOM      2  C6  <0> d           0.002  -0.004   0.002  0.00  0.00     0.059 C 
ATOM      3  N1  <0> d           0.018  -1.140  -0.004  0.00  0.00    -0.197 NA
ATOM      4  H8  <0> d           1.005   1.845   0.002  0.00  0.00     0.055 H 
ATOM      5  H9  <0> d          -0.545   1.829  -0.873  0.00  0.00     0.055 H 
ENDROOT
BRANCH   1   6
ATOM      6  C4  <0> d          -0.734   1.961   1.269  0.00  0.00     0.027 C 
ATOM      7  H6  <0> d          -1.757   1.584   1.277  0.00  0.00     0.049 H 
ATOM      8  H7  <0> d          -0.207   1.600   2.152  0.00  0.00     0.049 H 
BRANCH   6   9
ATOM      9  C3  <0> d          -0.754   3.468   1.277  0.00  0.00     0.259 C 
ATOM     10  O2  <0> d          -0.248   4.084   0.369  0.00  0.00    -0.265 OA
BRANCH   9  11
ATOM     11  O1  <0> d          -1.335   4.126   2.293  0.00  0.00    -0.322 OA
BRANCH  11  12
ATOM     12  C2  <0> d          -1.317   5.577   2.235  0.00  0.00     0.025 C 
ATOM     13  H4  <0> d          -0.285   5.927   2.211  0.00  0.00     0.074 H 
ATOM     14  H5  <0> d          -1.835   5.910   1.336  0.00  0.00     0.074 H 
BRANCH  12  15
ATOM     15  C1  <0> d          -2.021   6.145   3.469  0.00  0.00    -0.056 C 
ATOM     16  H1  <0> d          -3.052   5.795   3.493  0.00  0.00     0.030 H 
ATOM     17  H2  <0> d          -1.503   5.811   4.368  0.00  0.00     0.030 H 
ATOM     18  H3  <0> d          -2.007   7.234   3.425  0.00  0.00     0.030 H 
ENDBRANCH  12  15
ENDBRANCH  11  12
ENDBRANCH   9  11
ENDBRANCH   6   9
ENDBRANCH   1   6
TORSDOF 5
