REMARK  3 active torsions:
REMARK  status: ('A' for Active; 'I' for Inactive)
REMARK    1  A    between atoms: C1_1  and  N4_10 
REMARK    2  A    between atoms: C2_2  and  N3_9 
REMARK    3  A    between atoms: C3_7  and  O1_8 
ROOT
ATOM      1  C1  <0> d          -0.017   1.412   0.010  0.00  0.00     0.126 A 
ATOM      2  C2  <0> d          -1.129   2.200   0.031  0.00  0.00     0.146 A 
ATOM      3  N1  <0> d          -0.712   3.496   0.031  0.00  0.00    -0.259 N 
ATOM      4  H1  <0> d          -1.284   4.279   0.044  0.00  0.00     0.191 HD
ATOM      5  N2  <0> d           0.689   3.498   0.010  0.00  0.00    -0.145 NA
ATOM      6  C3  <0> d           1.105   2.254   0.004  0.00  0.00     0.212 A 
ENDROOT
BRANCH   1   7
ATOM      7  N4  <0> d           0.002  -0.004   0.002  0.00  0.00    -0.393 N 
ATOM      8  H5  <0> d           0.849  -0.478  -0.009  0.00  0.00     0.156 HD
ATOM      9  H6  <0> d          -0.831  -0.500   0.008  0.00  0.00     0.156 HD
ENDBRANCH   1   7
BRANCH   6  10
ATOM     10  O1  <0> d           2.404   1.850  -0.010  0.00  0.00    -0.342 OA
ATOM     11  H2  <0> d           2.772   1.737  -0.898  0.00  0.00     0.219 HD
ENDBRANCH   6  10
BRANCH   2  12
ATOM     12  N3  <0> d          -2.454   1.758   0.048  0.00  0.00    -0.382 N 
ATOM     13  H3  <0> d          -2.649   0.808   0.045  0.00  0.00     0.157 HD
ATOM     14  H4  <0> d          -3.180   2.402   0.062  0.00  0.00     0.157 HD
ENDBRANCH   2  12
TORSDOF 3
