REMARK  2 active torsions:
REMARK  status: ('A' for Active; 'I' for Inactive)
REMARK    1  A    between atoms: C3_4  and  N4_10 
REMARK    2  A    between atoms: C4_5  and  C5_7 
REMARK       I    between atoms: C5_7  and  N3_9 
ROOT
ATOM      1  C1  <0> d           0.061   1.495  -0.007  0.00  0.00     0.020 A 
ATOM      2  C2  <0> d          -0.067   0.113  -0.004  0.00  0.00     0.021 A 
ATOM      3  N1  <0> d           1.007  -0.655  -0.001  0.00  0.00    -0.240 NA
ATOM      4  C3  <0> d           2.216  -0.106  -0.002  0.00  0.00     0.155 A 
ATOM      5  C4  <0> d           2.345   1.292  -0.005  0.00  0.00     0.169 A 
ATOM      6  N2  <0> d           1.254   2.054  -0.008  0.00  0.00    -0.250 NA
ATOM      7  H1  <0> d          -0.823   2.116  -0.015  0.00  0.00     0.117 H 
ATOM      8  H2  <0> d          -1.049  -0.336  -0.003  0.00  0.00     0.117 H 
ENDROOT
BRANCH   5   9
ATOM      9  C5  <0> d           3.684   1.915  -0.005  0.00  0.00     0.271 C 
ATOM     10  O1  <0> d           4.677   1.220  -0.105  0.00  0.00    -0.266 OA
ATOM     11  N3  <0> d           3.806   3.252   0.105  0.00  0.00    -0.365 N 
ATOM     12  H3  <0> d           3.014   3.807   0.185  0.00  0.00     0.159 HD
ATOM     13  H4  <0> d           4.686   3.661   0.105  0.00  0.00     0.159 HD
ENDBRANCH   5   9
BRANCH   4  14
ATOM     14  N4  <0> d           3.344  -0.907   0.001  0.00  0.00    -0.382 N 
ATOM     15  H5  <0> d           3.254  -1.870   0.083  0.00  0.00     0.157 HD
ATOM     16  H6  <0> d           4.223  -0.507  -0.078  0.00  0.00     0.157 HD
ENDBRANCH   4  14
TORSDOF 2
