REMARK  7 active torsions:
REMARK  status: ('A' for Active; 'I' for Inactive)
REMARK    1  A    between atoms: C1_1  and  C2_2 
REMARK    2  A    between atoms: C2_2  and  C3_3 
REMARK    3  A    between atoms: C3_3  and  C4_4 
REMARK    4  A    between atoms: C4_4  and  O1_5 
REMARK    5  A    between atoms: O1_5  and  C5_6 
REMARK    6  A    between atoms: C5_6  and  C6_8 
REMARK    7  A    between atoms: C6_8  and  N1_9 
ROOT
ATOM      1  C4  <0> d           0.763  -2.041   1.233  0.00  0.00     0.029 C 
ATOM      2  H8  <0> d          -0.260  -2.418   1.241  0.00  0.00     0.075 H 
ATOM      3  H9  <0> d           1.273  -2.392   0.336  0.00  0.00     0.075 H 
ENDROOT
BRANCH   1   4
ATOM      4  C3  <0> d           0.742  -0.511   1.242  0.00  0.00    -0.045 C 
ATOM      5  H6  <0> d           1.765  -0.134   1.234  0.00  0.00     0.036 H 
ATOM      6  H7  <0> d           0.232  -0.159   2.138  0.00  0.00     0.036 H 
BRANCH   4   7
ATOM      7  C2  <0> d           0.002  -0.004   0.002  0.00  0.00    -0.067 C 
ATOM      8  H4  <0> d          -1.020  -0.381   0.010  0.00  0.00     0.032 H 
ATOM      9  H5  <0> d           0.512  -0.356  -0.895  0.00  0.00     0.032 H 
BRANCH   7  10
ATOM     10  C1  <0> d          -0.019   1.526   0.010  0.00  0.00    -0.076 C 
ATOM     11  H1  <0> d           1.004   1.903   0.003  0.00  0.00     0.027 H 
ATOM     12  H2  <0> d          -0.546   1.887  -0.873  0.00  0.00     0.027 H 
ATOM     13  H3  <0> d          -0.529   1.877   0.907  0.00  0.00     0.027 H 
ENDBRANCH   7  10
ENDBRANCH   4   7
ENDBRANCH   1   4
BRANCH   1  14
ATOM     14  O1  <0> d           1.454  -2.514   2.391  0.00  0.00    -0.320 OA
BRANCH  14  15
ATOM     15  C5  <0> d           1.561  -3.844   2.535  0.00  0.00     0.286 C 
ATOM     16  O2  <0> d           1.084  -4.582   1.706  0.00  0.00    -0.263 OA
BRANCH  15  17
ATOM     17  C6  <0> d           2.277  -4.417   3.731  0.00  0.00     0.188 C 
ATOM     18  H10 <0> d           3.309  -4.067   3.739  0.00  0.00     0.094 H 
ATOM     19  H11 <0> d           1.776  -4.093   4.644  0.00  0.00     0.094 H 
BRANCH  17  20
ATOM     20  N1  <0> d           2.258  -5.884   3.657  0.00  0.00     0.087 N 
ATOM     21  H12 <0> d           2.732  -6.293   4.449  0.00  0.00     0.313 HD
ATOM     22  H13 <0> d           1.313  -6.230   3.583  0.00  0.00     0.313 HD
ENDBRANCH  17  20
ENDBRANCH  15  17
ENDBRANCH  14  15
ENDBRANCH   1  14
TORSDOF 7
