REMARK  3 active torsions:
REMARK  status: ('A' for Active; 'I' for Inactive)
REMARK    1  A    between atoms: C1_1  and  C2_2 
REMARK    2  A    between atoms: C7_7  and  C8_8 
REMARK    3  A    between atoms: C8_8  and  C9_10 
ROOT
ATOM      1  C2  <0> d           1.096   3.290   0.015  0.00  0.00    -0.045 A 
ATOM      2  C3  <0> d          -0.146   3.823   0.283  0.00  0.00    -0.039 A 
ATOM      3  C4  <0> d          -1.268   3.008   0.284  0.00  0.00     0.117 A 
ATOM      4  C5  <0> d          -1.149   1.653   0.009  0.00  0.00    -0.045 A 
ATOM      5  C6  <0> d           0.087   1.107  -0.256  0.00  0.00    -0.066 A 
ATOM      6  C7  <0> d           1.224   1.924  -0.257  0.00  0.00     0.015 A 
ATOM      7  F1  <0> d          -2.483   3.537   0.547  0.00  0.00    -0.206 F 
ATOM      8  H4  <0> d          -0.246   4.878   0.494  0.00  0.00     0.089 H 
ATOM      9  H5  <0> d          -2.028   1.025   0.006  0.00  0.00     0.088 H 
ATOM     10  H6  <0> d           0.178   0.052  -0.466  0.00  0.00     0.085 H 
ENDROOT
BRANCH   6  11
ATOM     11  C8  <0> d           2.546   1.349  -0.545  0.00  0.00     0.156 C 
ATOM     12  O1  <0> d           3.511   2.074  -0.654  0.00  0.00    -0.293 OA
BRANCH  11  13
ATOM     13  C9  <0> d           2.700  -0.142  -0.704  0.00  0.00    -0.017 C 
ATOM     14  H7  <0> d           2.569  -0.390  -1.663  0.00  0.00     0.038 H 
ATOM     15  H8  <0> d           3.699  -0.439  -0.385  0.00  0.00     0.038 H 
ATOM     16  H9  <0> d           1.957  -0.652  -0.091  0.00  0.00     0.038 H 
ENDBRANCH  11  13
ENDBRANCH   6  11
BRANCH   1  17
ATOM     17  C1  <0> d           2.314   4.177   0.016  0.00  0.00    -0.050 C 
ATOM     18  H1  <0> d           2.542   4.483  -1.005  0.00  0.00     0.033 H 
ATOM     19  H2  <0> d           2.121   5.060   0.625  0.00  0.00     0.033 H 
ATOM     20  H3  <0> d           3.162   3.630   0.429  0.00  0.00     0.033 H 
ENDBRANCH   1  17
TORSDOF 3
