REMARK  3 active torsions:
REMARK  status: ('A' for Active; 'I' for Inactive)
REMARK    1  A    between atoms: C1_1  and  C2_2 
REMARK    2  A    between atoms: C1_1  and  C3_4 
REMARK    3  A    between atoms: C2_2  and  O1_3 
REMARK       I    between atoms: C3_4  and  N1_6 
ROOT
ATOM      1  C1  <0> d          -1.208   3.131   0.025  0.00  0.00     0.028 C 
ATOM      2  H1  <0> d          -0.695   3.496   0.914  0.00  0.00     0.050 H 
ATOM      3  H2  <0> d          -0.703   3.506  -0.866  0.00  0.00     0.050 H 
ENDROOT
BRANCH   1   4
ATOM      4  C2  <0> d          -2.657   3.621   0.034  0.00  0.00     0.025 C 
ATOM      5  H3  <0> d          -3.170   3.256  -0.855  0.00  0.00     0.074 H 
ATOM      6  H4  <0> d          -3.162   3.246   0.925  0.00  0.00     0.074 H 
BRANCH   4   7
ATOM      7  O1  <0> d          -2.676   5.050   0.042  0.00  0.00    -0.400 OA
ATOM      8  H5  <0> d          -3.565   5.431   0.049  0.00  0.00     0.209 HD
ENDBRANCH   4   7
ENDBRANCH   1   4
BRANCH   1   9
ATOM      9  C3  <0> d          -1.187   1.624   0.017  0.00  0.00     0.217 C 
ATOM     10  O2  <0> d          -2.229   1.003   0.018  0.00  0.00    -0.274 OA
ATOM     11  N1  <0> d          -0.011   0.966   0.007  0.00  0.00    -0.370 N 
ATOM     12  H6  <0> d           0.002  -0.004   0.002  0.00  0.00     0.159 HD
ATOM     13  H7  <0> d           0.822   1.462   0.002  0.00  0.00     0.159 HD
ENDBRANCH   1   9
TORSDOF 3
