REMARK  2 active torsions:
REMARK  status: ('A' for Active; 'I' for Inactive)
REMARK    1  A    between atoms: C1_1  and  N1_2 
REMARK    2  A    between atoms: N1_2  and  C2_3 
ROOT
ATOM      1  C2  <0> d          -1.221   1.643   0.017  0.00  0.00     0.165 A 
ATOM      2  N2  <0> d          -1.443   2.943   0.031  0.00  0.00    -0.236 NA
ATOM      3  C3  <0> d          -2.672   3.425   0.034  0.00  0.00     0.011 A 
ATOM      4  C4  <0> d          -3.708   2.554   0.034  0.00  0.00    -0.025 A 
ATOM      5  S1  <0> d          -2.832   0.996   0.021  0.00  0.00    -0.063 SA
ATOM      6  H5  <0> d          -2.846   4.491   0.042  0.00  0.00     0.115 H 
ATOM      7  H6  <0> d          -4.771   2.747   0.041  0.00  0.00     0.097 H 
ENDROOT
BRANCH   1   8
ATOM      8  N1  <0> d          -0.011   0.966   0.007  0.00  0.00    -0.373 N 
ATOM      9  H4  <0> d           0.004  -0.134   0.006  0.00  0.00     0.161 HD
BRANCH   8  10
ATOM     10  C1  <0> d           1.248   1.716  -0.001  0.00  0.00    -0.019 C 
ATOM     11  H1  <0> d           2.093   1.012  -0.007  0.00  0.00     0.056 H 
ATOM     12  H2  <0> d           1.304   2.348   0.898  0.00  0.00     0.056 H 
ATOM     13  H3  <0> d           1.291   2.350  -0.898  0.00  0.00     0.056 H 
ENDBRANCH   8  10
ENDBRANCH   1   8
TORSDOF 2
