REMARK  8 active torsions:
REMARK  status: ('A' for Active; 'I' for Inactive)
REMARK    1  A    between atoms: C1_1  and  C2_2 
REMARK    2  A    between atoms: C2_2  and  C10_11 
REMARK    3  A    between atoms: C3_3  and  C4_4 
REMARK    4  A    between atoms: C4_4  and  C5_5 
REMARK    5  A    between atoms: C5_5  and  C6_6 
REMARK    6  A    between atoms: C6_6  and  C7_7 
REMARK    7  A    between atoms: C6_6  and  C8_8 
REMARK    8  A    between atoms: C6_6  and  O1_10 
ROOT
ATOM      1  C8  <0> d          -0.146   0.443   0.871  0.00  0.00    -0.080 C 
ATOM      2  C9  <0> d          -0.545   0.574   1.968  0.00  0.00    -0.151 C 
ATOM      3  H12 <0> d          -0.902   0.691   2.948  0.00  0.00     0.166 H 
ENDROOT
BRANCH   1   4
ATOM      4  C6  <0> d           0.354   0.279  -0.503  0.00  0.00     0.117 C 
BRANCH   4   5
ATOM      5  C5  <0> d          -0.455   1.167  -1.450  0.00  0.00    -0.023 C 
ATOM      6  H7  <0> d          -1.516   0.939  -1.344  0.00  0.00     0.039 H 
ATOM      7  H8  <0> d          -0.282   2.214  -1.204  0.00  0.00     0.039 H 
BRANCH   5   8
ATOM      8  C4  <0> d          -0.019   0.904  -2.893  0.00  0.00    -0.046 C 
ATOM      9  H5  <0> d           1.042   1.131  -2.999  0.00  0.00     0.039 H 
ATOM     10  H6  <0> d          -0.193  -0.144  -3.140  0.00  0.00     0.039 H 
BRANCH   8  11
ATOM     11  C3  <0> d          -0.817   1.778  -3.826  0.00  0.00    -0.101 C 
ATOM     12  C2  <0> d          -0.203   2.622  -4.619  0.00  0.00    -0.091 C 
ATOM     13  H4  <0> d          -1.894   1.710  -3.841  0.00  0.00     0.077 H 
BRANCH  12  14
ATOM     14  C1  <0> d           1.288   2.813  -4.505  0.00  0.00    -0.055 C 
ATOM     15  H1  <0> d           1.798   2.048  -5.090  0.00  0.00     0.033 H 
ATOM     16  H2  <0> d           1.557   3.800  -4.883  0.00  0.00     0.033 H 
ATOM     17  H3  <0> d           1.587   2.730  -3.460  0.00  0.00     0.033 H 
ENDBRANCH  12  14
BRANCH  12  18
ATOM     18  C10 <0> d          -0.987   3.400  -5.643  0.00  0.00    -0.055 C 
ATOM     19  H14 <0> d          -1.737   4.010  -5.140  0.00  0.00     0.033 H 
ATOM     20  H15 <0> d          -0.311   4.045  -6.205  0.00  0.00     0.033 H 
ATOM     21  H16 <0> d          -1.479   2.708  -6.326  0.00  0.00     0.033 H 
ENDBRANCH  12  18
ENDBRANCH   8  11
ENDBRANCH   5   8
ENDBRANCH   4   5
BRANCH   4  22
ATOM     22  C7  <0> d           0.210  -1.184  -0.927  0.00  0.00    -0.037 C 
ATOM     23  H9  <0> d           0.787  -1.817  -0.252  0.00  0.00     0.033 H 
ATOM     24  H10 <0> d          -0.841  -1.472  -0.886  0.00  0.00     0.033 H 
ATOM     25  H11 <0> d           0.581  -1.306  -1.945  0.00  0.00     0.033 H 
ENDBRANCH   4  22
BRANCH   4  26
ATOM     26  O1  <0> d           1.732   0.656  -0.557  0.00  0.00    -0.378 OA
ATOM     27  H13 <0> d           1.898   1.574  -0.300  0.00  0.00     0.211 HD
ENDBRANCH   4  26
ENDBRANCH   1   4
TORSDOF 8
