REMARK  2 active torsions:
REMARK  status: ('A' for Active; 'I' for Inactive)
REMARK    1  A    between atoms: C1_1  and  C2_2 
REMARK    2  A    between atoms: C2_2  and  N1_3 
ROOT
ATOM      1  N1  <0> d          -2.103   1.072   1.277  0.00  0.00    -0.331 N 
ATOM      2  C3  <0> d          -2.566  -0.009   1.981  0.00  0.00    -0.001 A 
ATOM      3  C4  <0> d          -3.879  -0.119   1.707  0.00  0.00     0.020 A 
ATOM      4  N2  <0> d          -4.210   0.862   0.853  0.00  0.00    -0.231 NA
ATOM      5  C5  <0> d          -3.150   1.580   0.591  0.00  0.00     0.203 A 
ATOM      6 Cl1  <0> d          -3.097   2.957  -0.465  0.00  0.00    -0.043 Cl
ATOM      7  H6  <0> d          -1.988  -0.649   2.631  0.00  0.00     0.113 H 
ATOM      8  H7  <0> d          -4.549  -0.869   2.102  0.00  0.00     0.117 H 
ENDROOT
BRANCH   1   9
ATOM      9  C2  <0> d          -0.729   1.579   1.267  0.00  0.00    -0.002 C 
ATOM     10  H4  <0> d          -0.197   1.215   2.158  0.00  0.00     0.064 H 
ATOM     11  H5  <0> d          -0.744   2.679   1.273  0.00  0.00     0.064 H 
BRANCH   9  12
ATOM     12  C1  <0> d          -0.013   1.086   0.008  0.00  0.00    -0.061 C 
ATOM     13  H1  <0> d           1.019   1.466   0.000  0.00  0.00     0.029 H 
ATOM     14  H2  <0> d          -0.545   1.450  -0.883  0.00  0.00     0.029 H 
ATOM     15  H3  <0> d           0.002  -0.014   0.002  0.00  0.00     0.029 H 
ENDBRANCH   9  12
ENDBRANCH   1   9
TORSDOF 2
