REMARK  5 active torsions:
REMARK  status: ('A' for Active; 'I' for Inactive)
REMARK    1  A    between atoms: C1_1  and  C2_2 
REMARK    2  A    between atoms: C2_2  and  C3_3 
REMARK    3  A    between atoms: C2_2  and  N1_4 
REMARK    4  A    between atoms: N1_4  and  C4_5 
REMARK    5  A    between atoms: C7_8  and  O1_11 
ROOT
ATOM      1  C4  <0> d           1.214  -0.681  -0.013  0.00  0.00     0.028 A 
ATOM      2  C5  <0> d           0.002  -0.004   0.002  0.00  0.00    -0.055 A 
ATOM      3  C6  <0> d          -0.017   1.377   0.010  0.00  0.00    -0.049 A 
ATOM      4  C7  <0> d           1.175   2.087   0.002  0.00  0.00     0.065 A 
ATOM      5  C8  <0> d           2.386   1.411  -0.013  0.00  0.00    -0.049 A 
ATOM      6  C9  <0> d           2.406   0.030  -0.021  0.00  0.00    -0.055 A 
ATOM      7  H9  <0> d          -0.926  -0.557   0.008  0.00  0.00     0.087 H 
ATOM      8  H10 <0> d          -0.959   1.904   0.017  0.00  0.00     0.087 H 
ATOM      9  H11 <0> d           3.313   1.965  -0.019  0.00  0.00     0.087 H 
ATOM     10  H12 <0> d           3.349  -0.496  -0.032  0.00  0.00     0.087 H 
ENDROOT
BRANCH   1  11
ATOM     11  N1  <0> d           1.234  -2.081  -0.021  0.00  0.00    -0.386 N 
ATOM     12  H8  <0> d           0.401  -2.578  -0.015  0.00  0.00     0.160 HD
BRANCH  11  13
ATOM     13  C2  <0> d           2.513  -2.795  -0.037  0.00  0.00     0.003 C 
ATOM     14  H4  <0> d           3.235  -2.234  -0.630  0.00  0.00     0.071 H 
BRANCH  13  15
ATOM     15  C1  <0> d           3.034  -2.941   1.395  0.00  0.00    -0.058 C 
ATOM     16  H1  <0> d           3.985  -3.473   1.383  0.00  0.00     0.030 H 
ATOM     17  H2  <0> d           3.175  -1.953   1.833  0.00  0.00     0.030 H 
ATOM     18  H3  <0> d           2.312  -3.502   1.988  0.00  0.00     0.030 H 
ENDBRANCH  13  15
BRANCH  13  19
ATOM     19  C3  <0> d           2.315  -4.182  -0.651  0.00  0.00    -0.058 C 
ATOM     20  H5  <0> d           1.944  -4.078  -1.671  0.00  0.00     0.030 H 
ATOM     21  H6  <0> d           3.266  -4.713  -0.663  0.00  0.00     0.030 H 
ATOM     22  H7  <0> d           1.593  -4.743  -0.058  0.00  0.00     0.030 H 
ENDBRANCH  13  19
ENDBRANCH  11  13
ENDBRANCH   1  11
BRANCH   4  23
ATOM     23  O1  <0> d           1.155   3.447   0.009  0.00  0.00    -0.361 OA
ATOM     24  H13 <0> d           1.158   3.836   0.894  0.00  0.00     0.217 HD
ENDBRANCH   4  23
TORSDOF 5
