REMARK  5 active torsions:
REMARK  status: ('A' for Active; 'I' for Inactive)
REMARK    1  A    between atoms: C1_1  and  C2_2 
REMARK    2  A    between atoms: C2_2  and  C3_3 
REMARK    3  A    between atoms: C3_3  and  C4_4 
REMARK    4  A    between atoms: C4_4  and  C5_5 
REMARK    5  A    between atoms: C5_5  and  N1_6 
ROOT
ATOM      1  C5  <0> d           3.519   1.922   1.210  0.00  0.00     0.114 C 
ATOM      2  H10 <0> d           4.125   1.452   0.421  0.00  0.00     0.079 H 
ATOM      3  H11 <0> d           3.956   1.695   2.193  0.00  0.00     0.079 H 
ENDROOT
BRANCH   1   4
ATOM      4  C4  <0> d           3.495   3.437   1.000  0.00  0.00    -0.040 C 
ATOM      5  H8  <0> d           2.888   3.907   1.788  0.00  0.00     0.035 H 
ATOM      6  H9  <0> d           3.057   3.664   0.017  0.00  0.00     0.035 H 
BRANCH   4   7
ATOM      7  C3  <0> d           4.923   3.983   1.061  0.00  0.00    -0.064 C 
ATOM      8  H6  <0> d           5.529   3.513   0.273  0.00  0.00     0.033 H 
ATOM      9  H7  <0> d           5.360   3.756   2.044  0.00  0.00     0.033 H 
BRANCH   7  10
ATOM     10  C2  <0> d           4.899   5.498   0.851  0.00  0.00    -0.069 C 
ATOM     11  H4  <0> d           4.292   5.968   1.639  0.00  0.00     0.032 H 
ATOM     12  H5  <0> d           4.461   5.725  -0.132  0.00  0.00     0.032 H 
BRANCH  10  13
ATOM     13  C1  <0> d           6.327   6.044   0.912  0.00  0.00    -0.077 C 
ATOM     14  H1  <0> d           6.309   7.134   0.761  0.00  0.00     0.027 H 
ATOM     15  H2  <0> d           6.933   5.574   0.124  0.00  0.00     0.027 H 
ATOM     16  H3  <0> d           6.764   5.817   1.896  0.00  0.00     0.027 H 
ENDBRANCH  10  13
ENDBRANCH   7  10
ENDBRANCH   4   7
ENDBRANCH   1   4
BRANCH   1  17
ATOM     17  N1  <0> d           2.148   1.397   1.151  0.00  0.00     0.092 N 
ATOM     18  C9  <0> d           2.147  -0.072   1.111  0.00  0.00     0.133 C 
ATOM     19  C8  <0> d           0.701  -0.577   1.111  0.00  0.00     0.044 C 
ATOM     20  H18 <0> d           2.656  -0.414   0.198  0.00  0.00     0.083 H 
ATOM     21  H19 <0> d           2.674  -0.464   1.994  0.00  0.00     0.083 H 
ATOM     22  O1  <0> d           0.002  -0.004   0.002  0.00  0.00    -0.388 OA
ATOM     23  H16 <0> d           0.207  -0.280   2.048  0.00  0.00     0.077 H 
ATOM     24  H17 <0> d           0.693  -1.673   1.022  0.00  0.00     0.077 H 
ATOM     25  C7  <0> d          -0.017   1.426   0.010  0.00  0.00     0.044 C 
ATOM     26  C6  <0> d           1.421   1.950  -0.001  0.00  0.00     0.133 C 
ATOM     27  H14 <0> d          -0.531   1.783   0.915  0.00  0.00     0.077 H 
ATOM     28  H15 <0> d          -0.548   1.792  -0.881  0.00  0.00     0.077 H 
ATOM     29  H12 <0> d           1.413   3.049   0.063  0.00  0.00     0.083 H 
ATOM     30  H13 <0> d           1.919   1.641  -0.932  0.00  0.00     0.083 H 
ENDBRANCH   1  17
TORSDOF 5
