REMARK  2 active torsions:
REMARK  status: ('A' for Active; 'I' for Inactive)
REMARK    1  A    between atoms: C1_1  and  N1_2 
REMARK    2  A    between atoms: N1_2  and  C2_3 
ROOT
ATOM      1  C2  <0> d          -0.204   1.220   2.477  0.00  0.00     0.066 A 
ATOM      2  C3  <0> d           0.933   0.432   2.591  0.00  0.00    -0.054 A 
ATOM      3  C4  <0> d           1.421   0.103   3.841  0.00  0.00    -0.081 A 
ATOM      4  C5  <0> d           0.774   0.549   4.978  0.00  0.00    -0.080 A 
ATOM      5  C6  <0> d          -0.362   1.331   4.870  0.00  0.00    -0.043 A 
ATOM      6  C7  <0> d          -0.854   1.668   3.622  0.00  0.00     0.142 A 
ATOM      7  F1  <0> d          -1.964   2.430   3.516  0.00  0.00    -0.204 F 
ATOM      8  H5  <0> d           1.438   0.079   1.704  0.00  0.00     0.087 H 
ATOM      9  H6  <0> d           2.308  -0.507   3.930  0.00  0.00     0.083 H 
ATOM     10  H7  <0> d           1.157   0.287   5.954  0.00  0.00     0.083 H 
ATOM     11  H8  <0> d          -0.865   1.677   5.760  0.00  0.00     0.088 H 
ENDROOT
BRANCH   1  12
ATOM     12  N1  <0> d          -0.698   1.558   1.213  0.00  0.00    -0.392 N 
ATOM     13  H4  <0> d          -1.495   2.106   1.135  0.00  0.00     0.159 HD
BRANCH  12  14
ATOM     14  C1  <0> d          -0.013   1.086   0.008  0.00  0.00    -0.021 C 
ATOM     15  H1  <0> d           0.002  -0.004   0.002  0.00  0.00     0.056 H 
ATOM     16  H2  <0> d           1.010   1.463   0.000  0.00  0.00     0.056 H 
ATOM     17  H3  <0> d          -0.540   1.447  -0.875  0.00  0.00     0.056 H 
ENDBRANCH  12  14
ENDBRANCH   1  12
TORSDOF 2
