REMARK  4 active torsions:
REMARK  status: ('A' for Active; 'I' for Inactive)
REMARK    1  A    between atoms: C1_1  and  C2_2 
REMARK    2  A    between atoms: C4_5  and  C8_11 
REMARK    3  A    between atoms: C4_5  and  C9_12 
REMARK    4  A    between atoms: C5_7  and  C6_9 
ROOT
ATOM      1  C2  <0> d          -0.019   1.526   0.010  0.00  0.00     0.045 C 
ATOM      2  H1  <0> d           1.002   1.908   0.003  0.00  0.00     0.083 H 
ATOM      3  C3  <0> d          -0.776   2.042  -1.222  0.00  0.00    -0.016 C 
ATOM      4  C4  <0> d          -0.759   3.573  -1.185  0.00  0.00     0.051 C 
ATOM      5  N1  <0> d          -1.119   4.040   0.152  0.00  0.00    -0.257 NA
ATOM      6  C5  <0> d          -1.074   3.289   1.200  0.00  0.00     0.159 C 
ATOM      7  O1  <0> d          -0.702   1.994   1.178  0.00  0.00    -0.330 OA
ATOM      8  H5  <0> d          -0.285   1.689  -2.129  0.00  0.00     0.040 H 
ATOM      9  H6  <0> d          -1.805   1.685  -1.198  0.00  0.00     0.040 H 
ENDROOT
BRANCH   4  10
ATOM     10  C8  <0> d          -1.765   4.118  -2.201  0.00  0.00    -0.051 C 
ATOM     11  H10 <0> d          -1.749   5.207  -2.180  0.00  0.00     0.030 H 
ATOM     12  H11 <0> d          -1.497   3.770  -3.199  0.00  0.00     0.030 H 
ATOM     13  H12 <0> d          -2.764   3.764  -1.949  0.00  0.00     0.030 H 
ENDBRANCH   4  10
BRANCH   4  14
ATOM     14  C9  <0> d           0.643   4.073  -1.538  0.00  0.00    -0.051 C 
ATOM     15  H13 <0> d           1.359   3.688  -0.813  0.00  0.00     0.030 H 
ATOM     16  H14 <0> d           0.912   3.726  -2.536  0.00  0.00     0.030 H 
ATOM     17  H15 <0> d           0.656   5.163  -1.518  0.00  0.00     0.030 H 
ENDBRANCH   4  14
BRANCH   1  18
ATOM     18  C1  <0> d           0.002  -0.004   0.002  0.00  0.00    -0.052 C 
ATOM     19  H2  <0> d          -1.020  -0.381   0.010  0.00  0.00     0.030 H 
ATOM     20  H3  <0> d           0.512  -0.356  -0.895  0.00  0.00     0.030 H 
ATOM     21  H4  <0> d           0.529  -0.365   0.885  0.00  0.00     0.030 H 
ENDBRANCH   1  18
BRANCH   6  22
ATOM     22  C6  <0> d          -1.450   3.882   2.495  0.00  0.00    -0.041 C 
ATOM     23  C7  <0> d          -1.416   3.143   3.598  0.00  0.00    -0.117 C 
ATOM     24  H8  <0> d          -1.114   2.108   3.546  0.00  0.00     0.066 H 
ATOM     25  H9  <0> d          -1.692   3.578   4.548  0.00  0.00     0.066 H 
ATOM     26  H7  <0> d          -1.753   4.917   2.548  0.00  0.00     0.088 H 
ENDBRANCH   6  22
TORSDOF 4
