REMARK  2 active torsions:
REMARK  status: ('A' for Active; 'I' for Inactive)
REMARK    1  A    between atoms: C4_5  and  O3_15 
REMARK    2  A    between atoms: C8_11  and  O1_13 
ROOT
ATOM      1  C1  <0> d          -0.583   3.061   1.493  0.00  0.00    -0.036 C 
ATOM      2  C2  <0> d          -0.715   1.560   1.278  0.00  0.00    -0.036 C 
ATOM      3  C3  <0> d          -0.013   1.097   0.008  0.00  0.00     0.064 C 
ATOM      4  H1  <0> d           0.002  -0.004   0.002  0.00  0.00     0.087 H 
ATOM      5  C4  <0> d          -0.745   1.572  -1.241  0.00  0.00     0.060 C 
ATOM      6  H2  <0> d          -1.807   1.313  -1.151  0.00  0.00     0.086 H 
ATOM      7  C5  <0> d          -0.616   3.078  -1.440  0.00  0.00    -0.036 C 
ATOM      8  C6  <0> d           0.818   3.557  -1.256  0.00  0.00    -0.036 C 
ATOM      9  C7  <0> d           1.456   2.974  -0.001  0.00  0.00     0.064 C 
ATOM     10  H3  <0> d           2.528   3.224  -0.010  0.00  0.00     0.087 H 
ATOM     11  C8  <0> d           0.838   3.558   1.263  0.00  0.00     0.060 C 
ATOM     12  H4  <0> d           0.824   4.652   1.177  0.00  0.00     0.086 H 
ATOM     13  O2  <0> d           1.338   1.553  -0.002  0.00  0.00    -0.376 OA
ATOM     14  H5  <0> d          -0.856   3.282   2.542  0.00  0.00     0.036 H 
ATOM     15  H6  <0> d          -1.290   3.606   0.872  0.00  0.00     0.036 H 
ATOM     16  H7  <0> d          -1.777   1.295   1.218  0.00  0.00     0.037 H 
ATOM     17  H8  <0> d          -0.288   1.031   2.138  0.00  0.00     0.037 H 
ATOM     18  H9  <0> d          -1.292   3.615  -0.780  0.00  0.00     0.036 H 
ATOM     19  H10 <0> d          -0.929   3.316  -2.472  0.00  0.00     0.036 H 
ATOM     20  H11 <0> d           0.829   4.651  -1.191  0.00  0.00     0.037 H 
ATOM     21  H12 <0> d           1.412   3.267  -2.130  0.00  0.00     0.037 H 
ENDROOT
BRANCH   5  22
ATOM     22  O3  <0> d          -0.215   0.894  -2.387  0.00  0.00    -0.393 OA
ATOM     23  H14 <0> d          -0.634   1.146  -3.222  0.00  0.00     0.210 HD
ENDBRANCH   5  22
BRANCH  11  24
ATOM     24  O1  <0> d           1.653   3.213   2.391  0.00  0.00    -0.393 OA
ATOM     25  H13 <0> d           1.321   3.552   3.234  0.00  0.00     0.210 HD
ENDBRANCH  11  24
TORSDOF 2
