REMARK  4 active torsions:
REMARK  status: ('A' for Active; 'I' for Inactive)
REMARK    1  A    between atoms: C1_1  and  C2_2 
REMARK    2  A    between atoms: C2_2  and  C3_3 
REMARK    3  A    between atoms: C2_2  and  C4_4 
REMARK    4  A    between atoms: C2_2  and  C5_5 
ROOT
ATOM      1  C2  <0> d          -0.729   1.579   1.267  0.00  0.00    -0.020 C 
ENDROOT
BRANCH   1   2
ATOM      2  C1  <0> d          -0.013   1.086   0.008  0.00  0.00    -0.066 C 
ATOM      3  H1  <0> d           0.002  -0.004   0.002  0.00  0.00     0.028 H 
ATOM      4  H2  <0> d           1.010   1.463   0.000  0.00  0.00     0.028 H 
ATOM      5  H3  <0> d          -0.540   1.447  -0.875  0.00  0.00     0.028 H 
ENDBRANCH   1   2
BRANCH   1   6
ATOM      6  C3  <0> d           0.011   1.072   2.506  0.00  0.00    -0.066 C 
ATOM      7  H4  <0> d           1.034   1.450   2.499  0.00  0.00     0.028 H 
ATOM      8  H5  <0> d          -0.499   1.424   3.403  0.00  0.00     0.028 H 
ATOM      9  H6  <0> d           0.026  -0.018   2.500  0.00  0.00     0.028 H 
ENDBRANCH   1   6
BRANCH   1  10
ATOM     10  C4  <0> d          -0.750   3.109   1.275  0.00  0.00    -0.066 C 
ATOM     11  H7  <0> d          -1.277   3.470   0.392  0.00  0.00     0.028 H 
ATOM     12  H8  <0> d          -1.260   3.461   2.172  0.00  0.00     0.028 H 
ATOM     13  H9  <0> d           0.273   3.486   1.268  0.00  0.00     0.028 H 
ENDBRANCH   1  10
BRANCH   1  14
ATOM     14  C5  <0> d          -2.143   1.058   1.278  0.00  0.00     0.008 A 
ATOM     15  C8  <0> d          -2.761  -0.281   1.276  0.00  0.00     0.228 A 
ATOM     16  C7  <0> d          -4.115   0.347   1.292  0.00  0.00     0.222 A 
ATOM     17  O2  <0> d          -2.344  -1.421   1.267  0.00  0.00    -0.283 OA
ATOM     18  C6  <0> d          -3.380   1.626   1.298  0.00  0.00    -0.020 A 
ATOM     19  O1  <0> d          -5.272  -0.020   1.302  0.00  0.00    -0.284 OA
ATOM     20  H10 <0> d          -3.708   2.655   1.314  0.00  0.00     0.090 H 
ENDBRANCH   1  14
TORSDOF 4
