REMARK  4 active torsions:
REMARK  status: ('A' for Active; 'I' for Inactive)
REMARK    1  A    between atoms: C1_1  and  C2_2 
REMARK    2  A    between atoms: C2_2  and  O1_3 
REMARK    3  A    between atoms: O1_3  and  C3_4 
REMARK    4  A    between atoms: C3_4  and  C4_5 
REMARK       I    between atoms: C4_5  and  N1_7 
ROOT
ATOM      1  C4  <0> d          -0.014   1.209   0.009  0.00  0.00     0.243 C 
ATOM      2  O2  <0> d           0.002  -0.004   0.002  0.00  0.00    -0.271 OA
ATOM      3  N1  <0> d          -1.191   1.867   0.018  0.00  0.00    -0.350 N 
ATOM      4  C5  <0> d          -1.355   3.328   0.033  0.00  0.00    -0.002 C 
ATOM      5  C6  <0> d          -2.870   3.618   0.064  0.00  0.00    -0.049 C 
ATOM      6  C7  <0> d          -3.462   2.306   0.644  0.00  0.00    -0.049 C 
ATOM      7  C8  <0> d          -2.525   1.240   0.021  0.00  0.00    -0.002 C 
ATOM      8  H8  <0> d          -0.864   3.743   0.925  0.00  0.00     0.064 H 
ATOM      9  H9  <0> d          -0.898   3.757  -0.870  0.00  0.00     0.064 H 
ATOM     10  H10 <0> d          -3.064   4.490   0.706  0.00  0.00     0.035 H 
ATOM     11  H11 <0> d          -3.224   3.828  -0.956  0.00  0.00     0.035 H 
ATOM     12  H12 <0> d          -3.414   2.336   1.742  0.00  0.00     0.035 H 
ATOM     13  H13 <0> d          -4.509   2.203   0.325  0.00  0.00     0.035 H 
ATOM     14  H14 <0> d          -2.817   0.995  -1.011  0.00  0.00     0.064 H 
ATOM     15  H15 <0> d          -2.497   0.320   0.623  0.00  0.00     0.064 H 
ENDROOT
BRANCH   1  16
ATOM     16  C3  <0> d           1.280   1.980   0.001  0.00  0.00     0.093 C 
ATOM     17  H6  <0> d           1.339   2.608   0.901  0.00  0.00     0.089 H 
ATOM     18  H7  <0> d           1.321   2.618  -0.895  0.00  0.00     0.089 H 
BRANCH  16  19
ATOM     19  O1  <0> d           2.379   1.066  -0.015  0.00  0.00    -0.382 OA
BRANCH  19  20
ATOM     20  C2  <0> d           3.660   1.698  -0.024  0.00  0.00     0.017 C 
ATOM     21  H4  <0> d           3.769   2.321   0.877  0.00  0.00     0.073 H 
ATOM     22  H5  <0> d           3.751   2.330  -0.919  0.00  0.00     0.073 H 
BRANCH  20  23
ATOM     23  C1  <0> d           4.756   0.630  -0.040  0.00  0.00    -0.056 C 
ATOM     24  H1  <0> d           5.742   1.117  -0.047  0.00  0.00     0.030 H 
ATOM     25  H2  <0> d           4.648   0.008  -0.941  0.00  0.00     0.030 H 
ATOM     26  H3  <0> d           4.665  -0.002   0.856  0.00  0.00     0.030 H 
ENDBRANCH  20  23
ENDBRANCH  19  20
ENDBRANCH  16  19
ENDBRANCH   1  16
TORSDOF 4
