REMARK  6 active torsions:
REMARK  status: ('A' for Active; 'I' for Inactive)
REMARK    1  A    between atoms: C1_1  and  O1_2 
REMARK    2  A    between atoms: O1_2  and  C2_3 
REMARK    3  A    between atoms: C2_3  and  C3_5 
REMARK    4  A    between atoms: C3_5  and  C4_7 
REMARK    5  A    between atoms: C3_5  and  N1_11 
REMARK    6  A    between atoms: C4_7  and  C5_8 
ROOT
ATOM      1  C3  <0> d           0.657  -2.104  -1.120  0.00  0.00     0.222 C 
ATOM      2  H1  <0> d          -0.289  -2.522  -0.779  0.00  0.00     0.104 H 
ENDROOT
BRANCH   1   3
ATOM      3  C2  <0> d           0.598  -0.600  -1.043  0.00  0.00     0.292 C 
ATOM      4  O2  <0> d           1.088   0.070  -1.921  0.00  0.00    -0.263 OA
BRANCH   3   5
ATOM      5  O1  <0> d           0.002  -0.004   0.002  0.00  0.00    -0.325 OA
BRANCH   5   6
ATOM      6  C1  <0> d          -0.017   1.425   0.010  0.00  0.00     0.013 C 
ATOM      7  H2  <0> d           1.005   1.802   0.002  0.00  0.00     0.067 H 
ATOM      8  H3  <0> d          -0.544   1.786  -0.873  0.00  0.00     0.067 H 
ATOM      9  H4  <0> d          -0.527   1.776   0.907  0.00  0.00     0.067 H 
ENDBRANCH   5   6
ENDBRANCH   3   5
ENDBRANCH   1   3
BRANCH   1  10
ATOM     10  C4  <0> d           1.792  -2.615  -0.229  0.00  0.00     0.053 C 
ATOM     11  H5  <0> d           2.747  -2.269  -0.623  0.00  0.00     0.053 H 
ATOM     12  H6  <0> d           1.657  -2.237   0.784  0.00  0.00     0.053 H 
BRANCH  10  13
ATOM     13  C5  <0> d           1.774  -4.122  -0.209  0.00  0.00     0.175 C 
ATOM     14  O3  <0> d           0.931  -4.730  -0.848  0.00  0.00    -0.648 OA
ATOM     15  O4  <0> d           2.601  -4.733   0.445  0.00  0.00    -0.648 OA
ENDBRANCH  10  13
ENDBRANCH   1  10
BRANCH   1  16
ATOM     16  N1  <0> d           0.902  -2.514  -2.509  0.00  0.00     0.093 N 
ATOM     17  H7  <0> d           1.775  -2.138  -2.848  0.00  0.00     0.313 HD
ATOM     18  H8  <0> d           0.882  -3.518  -2.598  0.00  0.00     0.313 HD
ENDBRANCH   1  16
TORSDOF 6
