REMARK  1 active torsions:
REMARK  status: ('A' for Active; 'I' for Inactive)
REMARK    1  A    between atoms: C7_7  and  C8_10 
ROOT
ATOM      1  C8  <0> d           3.680   3.951  -0.013  0.00  0.00     0.058 C 
ATOM      2  C9  <0> d           4.151   3.880  -1.405  0.00  0.00     0.065 C 
ATOM      3  N2  <0> d           4.514   3.825  -2.480  0.00  0.00    -0.197 NA
ATOM      4  H5  <0> d           4.186   4.768   0.501  0.00  0.00     0.064 H 
ATOM      5  H6  <0> d           3.901   3.012   0.494  0.00  0.00     0.064 H 
ENDROOT
BRANCH   1   6
ATOM      6  C7  <0> d           2.193   4.193   0.003  0.00  0.00     0.088 A 
ATOM      7  C5  <0> d           1.147   3.166   0.008  0.00  0.00     0.028 A 
ATOM      8  C4  <0> d          -0.080   3.850   0.023  0.00  0.00     0.113 A 
ATOM      9  C6  <0> d           1.164   1.770   0.000  0.00  0.00    -0.068 A 
ATOM     10  C3  <0> d          -1.266   3.125   0.030  0.00  0.00    -0.047 A 
ATOM     11  O1  <0> d           0.201   5.169   0.027  0.00  0.00    -0.212 OA
ATOM     12  C2  <0> d          -1.227   1.748   0.017  0.00  0.00    -0.080 A 
ATOM     13  H3  <0> d          -2.216   3.640   0.042  0.00  0.00     0.087 H 
ATOM     14  C1  <0> d          -0.013   1.076   0.008  0.00  0.00    -0.082 A 
ATOM     15  H2  <0> d          -2.149   1.186   0.019  0.00  0.00     0.083 H 
ATOM     16  H1  <0> d           0.002  -0.004   0.002  0.00  0.00     0.083 H 
ATOM     17  N1  <0> d           1.603   5.349   0.014  0.00  0.00    -0.131 NA
ATOM     18  H4  <0> d           2.105   1.240  -0.011  0.00  0.00     0.085 H 
ENDBRANCH   1   6
TORSDOF 1
