REMARK  2 active torsions:
REMARK  status: ('A' for Active; 'I' for Inactive)
REMARK    1  A    between atoms: C2_2  and  C4_7 
REMARK    2  A    between atoms: C5_8  and  N5_13 
ROOT
ATOM      1  C4  <0> d           1.471   4.282   0.009  0.00  0.00     0.117 A 
ATOM      2  C5  <0> d           1.167   5.499  -0.638  0.00  0.00     0.074 A 
ATOM      3  C6  <0> d           2.186   6.359  -0.401  0.00  0.00     0.023 A 
ATOM      4  N3  <0> d           3.105   5.714   0.368  0.00  0.00    -0.286 N 
ATOM      5  H2  <0> d           4.024   6.232   0.678  0.00  0.00     0.188 HD
ATOM      6  N4  <0> d           2.631   4.419   0.614  0.00  0.00    -0.172 NA
ATOM      7  H5  <0> d           2.257   7.376  -0.759  0.00  0.00     0.117 H 
ENDROOT
BRANCH   1   8
ATOM      8  C2  <0> d           0.625   3.061   0.012  0.00  0.00     0.033 A 
ATOM      9  C1  <0> d           1.071   1.772   0.001  0.00  0.00     0.009 A 
ATOM     10  N2  <0> d          -0.011   0.966   0.007  0.00  0.00    -0.289 N 
ATOM     11  H3  <0> d           2.103   1.454  -0.010  0.00  0.00     0.115 H 
ATOM     12  N1  <0> d          -1.156   1.772   0.017  0.00  0.00    -0.187 NA
ATOM     13  H1  <0> d           0.117  -0.127   0.005  0.00  0.00     0.188 HD
ATOM     14  C3  <0> d          -0.782   3.024   0.024  0.00  0.00     0.035 A 
ATOM     15  H4  <0> d          -1.439   3.881   0.035  0.00  0.00     0.118 H 
ENDBRANCH   1   8
BRANCH   2  16
ATOM     16  N5  <0> d           0.011   5.770  -1.393  0.00  0.00    -0.396 N 
ATOM     17  H6  <0> d          -0.124   6.759  -1.855  0.00  0.00     0.156 HD
ATOM     18  H7  <0> d          -0.757   4.993  -1.521  0.00  0.00     0.156 HD
ENDBRANCH   2  16
TORSDOF 2
