REMARK  0 active torsions:
REMARK  status: ('A' for Active; 'I' for Inactive)
ROOT
ATOM      1  C1  <0> d           3.237   3.376  -0.010  0.00  0.00    -0.081 A 
ATOM      2  C2  <0> d           4.109   2.305  -0.024  0.00  0.00    -0.062 A 
ATOM      3  C3  <0> d           3.612   0.997  -0.027  0.00  0.00     0.054 A 
ATOM      4  C4  <0> d           2.239   0.784  -0.015  0.00  0.00     0.003 A 
ATOM      5  C5  <0> d           1.361   1.867  -0.001  0.00  0.00     0.049 A 
ATOM      6  C6  <0> d           1.872   3.168   0.002  0.00  0.00    -0.066 A 
ATOM      7  C7  <0> d          -0.016   1.339   0.009  0.00  0.00     0.294 A 
ATOM      8  O1  <0> d          -1.022   2.021   0.018  0.00  0.00    -0.259 OA
ATOM      9  O2  <0> d           0.002  -0.004   0.002  0.00  0.00    -0.313 OA
ATOM     10  C8  <0> d           1.383  -0.458  -0.014  0.00  0.00     0.055 A 
ATOM     11  C9  <0> d           4.513  -0.116  -0.041  0.00  0.00     0.100 C 
ATOM     12  N1  <0> d           5.228  -0.998  -0.052  0.00  0.00    -0.191 NA
ATOM     13  H1  <0> d           3.626   4.383  -0.007  0.00  0.00     0.083 H 
ATOM     14  H2  <0> d           5.175   2.477  -0.033  0.00  0.00     0.085 H 
ATOM     15  H3  <0> d           1.199   4.012   0.012  0.00  0.00     0.085 H 
ATOM     16  H4  <0> d           1.594  -1.049  -0.917  0.00  0.00     0.082 H 
ATOM     17  H5  <0> d           1.611  -1.059   0.879  0.00  0.00     0.082 H 
ENDROOT
TORSDOF 0
