REMARK  1 active torsions:
REMARK  status: ('A' for Active; 'I' for Inactive)
REMARK    1  A    between atoms: C1_1  and  N1_2 
ROOT
ATOM      1  N1  <0> d           0.002  -0.004   0.002  0.00  0.00    -0.281 N 
ATOM      2  C2  <0> d          -1.157  -0.697   0.004  0.00  0.00     0.253 A 
ATOM      3  O1  <0> d          -2.229  -0.114   0.012  0.00  0.00    -0.268 OA
ATOM      4  C3  <0> d          -1.105  -2.101  -0.005  0.00  0.00     0.022 A 
ATOM      5  C4  <0> d           0.116  -2.715  -0.014  0.00  0.00     0.135 A 
ATOM      6  N2  <0> d           1.231  -1.983  -0.015  0.00  0.00    -0.194 NA
ATOM      7  C5  <0> d           1.187  -0.669  -0.013  0.00  0.00     0.283 A 
ATOM      8  O2  <0> d           2.339   0.032  -0.020  0.00  0.00    -0.149 OA
ATOM      9 Cl1  <0> d           0.215  -4.448  -0.024  0.00  0.00    -0.062 Cl
ATOM     10  H4  <0> d          -2.013  -2.684  -0.003  0.00  0.00     0.097 H 
ENDROOT
BRANCH   1  11
ATOM     11  C1  <0> d          -0.018   1.461   0.010  0.00  0.00    -0.008 C 
ATOM     12  H1  <0> d           1.005   1.838   0.002  0.00  0.00     0.057 H 
ATOM     13  H2  <0> d          -0.545   1.822  -0.873  0.00  0.00     0.057 H 
ATOM     14  H3  <0> d          -0.528   1.812   0.907  0.00  0.00     0.057 H 
ENDBRANCH   1  11
TORSDOF 1
