REMARK  3 active torsions:
REMARK  status: ('A' for Active; 'I' for Inactive)
REMARK    1  A    between atoms: C1_1  and  C2_2 
REMARK    2  A    between atoms: C3_3  and  C5_8 
REMARK    3  A    between atoms: C4_6  and  N2_7 
ROOT
ATOM      1  C2  <0> d          -0.928   2.859   1.606  0.00  0.00     0.017 A 
ATOM      2  C3  <0> d          -0.718   1.572   1.248  0.00  0.00     0.084 A 
ATOM      3  O1  <0> d          -1.255   0.812   2.214  0.00  0.00    -0.216 OA
ATOM      4  N1  <0> d          -1.754   1.484   3.087  0.00  0.00    -0.110 NA
ATOM      5  C4  <0> d          -1.628   2.762   2.839  0.00  0.00     0.157 A 
ENDROOT
BRANCH   1   6
ATOM      6  C1  <0> d          -0.515   4.106   0.868  0.00  0.00    -0.045 C 
ATOM      7  H1  <0> d          -1.310   4.403   0.184  0.00  0.00     0.033 H 
ATOM      8  H2  <0> d          -0.334   4.909   1.584  0.00  0.00     0.033 H 
ATOM      9  H3  <0> d           0.396   3.910   0.304  0.00  0.00     0.033 H 
ENDBRANCH   1   6
BRANCH   5  10
ATOM     10  N2  <0> d          -2.082   3.814   3.626  0.00  0.00    -0.382 N 
ATOM     11  H4  <0> d          -2.549   3.632   4.457  0.00  0.00     0.157 HD
ATOM     12  H5  <0> d          -1.933   4.730   3.345  0.00  0.00     0.157 HD
ENDBRANCH   5  10
BRANCH   2  13
ATOM     13  C5  <0> d          -0.013   1.086   0.008  0.00  0.00    -0.029 C 
ATOM     14  H6  <0> d           0.002  -0.004   0.002  0.00  0.00     0.036 H 
ATOM     15  H7  <0> d           1.010   1.463   0.000  0.00  0.00     0.036 H 
ATOM     16  H8  <0> d          -0.540   1.447  -0.875  0.00  0.00     0.036 H 
ENDBRANCH   2  13
TORSDOF 3
