REMARK  5 active torsions:
REMARK  status: ('A' for Active; 'I' for Inactive)
REMARK    1  A    between atoms: C1_1  and  C2_2 
REMARK    2  A    between atoms: C2_2  and  C3_3 
REMARK    3  A    between atoms: C3_3  and  O1_4 
REMARK    4  A    between atoms: O1_4  and  C4_5 
REMARK    5  A    between atoms: C6_8  and  N3_11 
ROOT
ATOM      1  C4  <0> d          -0.148   1.182   2.381  0.00  0.00     0.104 A 
ATOM      2  C5  <0> d           0.993   0.391   2.439  0.00  0.00     0.054 A 
ATOM      3  N1  <0> d           1.487   0.058   3.621  0.00  0.00    -0.073 NA
ATOM      4  C6  <0> d           0.901   0.462   4.738  0.00  0.00     0.719 A 
ATOM      5  N2  <0> d          -0.190   1.212   4.720  0.00  0.00    -0.073 NA
ATOM      6  C7  <0> d          -0.736   1.587   3.574  0.00  0.00     0.054 A 
ATOM      7  H8  <0> d           1.473   0.054   1.532  0.00  0.00     0.120 H 
ATOM      8  H9  <0> d          -1.625   2.199   3.566  0.00  0.00     0.120 H 
ENDROOT
BRANCH   1   9
ATOM      9  O1  <0> d          -0.682   1.547   1.184  0.00  0.00    -0.348 OA
BRANCH   9  10
ATOM     10  C3  <0> d          -0.013   1.086   0.008  0.00  0.00     0.026 C 
ATOM     11  H6  <0> d           0.002  -0.004   0.002  0.00  0.00     0.075 H 
ATOM     12  H7  <0> d           1.010   1.463   0.000  0.00  0.00     0.075 H 
BRANCH  10  13
ATOM     13  C2  <0> d          -0.753   1.593  -1.232  0.00  0.00    -0.048 C 
ATOM     14  H4  <0> d          -1.775   1.215  -1.224  0.00  0.00     0.035 H 
ATOM     15  H5  <0> d          -0.767   2.683  -1.226  0.00  0.00     0.035 H 
BRANCH  13  16
ATOM     16  C1  <0> d          -0.037   1.099  -2.490  0.00  0.00    -0.075 C 
ATOM     17  H1  <0> d          -0.564   1.460  -3.373  0.00  0.00     0.027 H 
ATOM     18  H2  <0> d           0.986   1.476  -2.498  0.00  0.00     0.027 H 
ATOM     19  H3  <0> d          -0.022   0.009  -2.496  0.00  0.00     0.027 H 
ENDBRANCH  13  16
ENDBRANCH  10  13
ENDBRANCH   9  10
ENDBRANCH   1   9
BRANCH   4  20
ATOM     20  N3  <0> d           1.445   0.090   5.958  0.00  0.00    -0.231 N 
ATOM     21  H10 <0> d           1.026   0.379   6.784  0.00  0.00     0.174 HD
ATOM     22  H11 <0> d           2.244  -0.459   5.986  0.00  0.00     0.174 HD
ENDBRANCH   4  20
TORSDOF 5
