REMARK  2 active torsions:
REMARK  status: ('A' for Active; 'I' for Inactive)
REMARK    1  A    between atoms: C4_5  and  C5_6 
REMARK    2  A    between atoms: C5_6  and  C6_7 
REMARK       I    between atoms: C6_7  and  N1_9 
ROOT
ATOM      1  C1  <0> d          -0.017   1.378   0.010  0.00  0.00    -0.070 A 
ATOM      2  C2  <0> d           1.160   2.051   0.002  0.00  0.00    -0.045 A 
ATOM      3  S1  <0> d           2.348   0.719  -0.017  0.00  0.00    -0.113 SA
ATOM      4  C3  <0> d           1.196  -0.645  -0.013  0.00  0.00    -0.039 A 
ATOM      5  C4  <0> d           0.002  -0.004   0.002  0.00  0.00    -0.043 A 
ATOM      6  H1  <0> d          -0.955   1.913   0.026  0.00  0.00     0.085 H 
ATOM      7  H2  <0> d           1.333   3.117   0.006  0.00  0.00     0.095 H 
ATOM      8  H3  <0> d           1.399  -1.706  -0.021  0.00  0.00     0.095 H 
ENDROOT
BRANCH   5   9
ATOM      9  C5  <0> d          -1.286  -0.786   0.011  0.00  0.00     0.033 C 
ATOM     10  H4  <0> d          -1.129  -1.738   0.518  0.00  0.00     0.054 H 
ATOM     11  H5  <0> d          -2.053  -0.217   0.535  0.00  0.00     0.054 H 
BRANCH   9  12
ATOM     12  C6  <0> d          -1.729  -1.040  -1.407  0.00  0.00     0.219 C 
ATOM     13  O1  <0> d          -1.065  -0.625  -2.333  0.00  0.00    -0.273 OA
ATOM     14  N1  <0> d          -2.864  -1.726  -1.646  0.00  0.00    -0.370 N 
ATOM     15  H6  <0> d          -3.396  -2.057  -0.905  0.00  0.00     0.159 HD
ATOM     16  H7  <0> d          -3.150  -1.889  -2.559  0.00  0.00     0.159 HD
ENDBRANCH   9  12
ENDBRANCH   5   9
TORSDOF 2
