REMARK  3 active torsions:
REMARK  status: ('A' for Active; 'I' for Inactive)
REMARK    1  A    between atoms: C1_1  and  C2_2 
REMARK    2  A    between atoms: C6_6  and  C8_8 
REMARK    3  A    between atoms: C8_8  and  C9_9 
ROOT
ATOM      1  C9  <0> d           1.502  -3.083   2.921  0.00  0.00     0.018 C 
ATOM      2  C10 <0> d           1.518  -3.826   4.192  0.00  0.00     0.059 C 
ATOM      3  N1  <0> d           1.530  -4.399   5.173  0.00  0.00    -0.197 NA
ATOM      4  H10 <0> d           2.019  -3.661   2.156  0.00  0.00     0.055 H 
ATOM      5  H11 <0> d           2.004  -2.125   3.054  0.00  0.00     0.055 H 
ENDROOT
BRANCH   1   6
ATOM      6  C8  <0> d           0.054  -2.845   2.489  0.00  0.00    -0.030 C 
ATOM      7  H8  <0> d          -0.464  -2.266   3.254  0.00  0.00     0.041 H 
ATOM      8  H9  <0> d          -0.448  -3.803   2.356  0.00  0.00     0.041 H 
BRANCH   6   9
ATOM      9  C6  <0> d           0.037  -2.084   1.188  0.00  0.00    -0.057 A 
ATOM     10  C5  <0> d           0.040  -2.768  -0.013  0.00  0.00    -0.077 A 
ATOM     11  C4  <0> d           0.025  -2.071  -1.207  0.00  0.00    -0.082 A 
ATOM     12  H6  <0> d           0.054  -3.848  -0.019  0.00  0.00     0.084 H 
ATOM     13  C3  <0> d           0.006  -0.689  -1.199  0.00  0.00    -0.077 A 
ATOM     14  H5  <0> d           0.027  -2.606  -2.145  0.00  0.00     0.083 H 
ATOM     15  C2  <0> d           0.002  -0.004   0.002  0.00  0.00    -0.061 A 
ATOM     16  H4  <0> d          -0.006  -0.144  -2.131  0.00  0.00     0.084 H 
ATOM     17  C7  <0> d           0.023  -0.702   1.195  0.00  0.00    -0.071 A 
ATOM     18  H7  <0> d           0.025  -0.167   2.133  0.00  0.00     0.085 H 
BRANCH  15  19
ATOM     19  C1  <0> d          -0.018   1.503   0.010  0.00  0.00    -0.051 C 
ATOM     20  H1  <0> d           1.004   1.880   0.003  0.00  0.00     0.033 H 
ATOM     21  H2  <0> d          -0.545   1.864  -0.873  0.00  0.00     0.033 H 
ATOM     22  H3  <0> d          -0.529   1.854   0.907  0.00  0.00     0.033 H 
ENDBRANCH  15  19
ENDBRANCH   6   9
ENDBRANCH   1   6
TORSDOF 3
