REMARK  1 active torsions:
REMARK  status: ('A' for Active; 'I' for Inactive)
REMARK    1  A    between atoms: C2_2  and  O3_13 
ROOT
ATOM      1  C1  <0> d          -2.137   2.035  -0.796  0.00  0.00    -0.035 C 
ATOM      2  C2  <0> d          -2.071   2.279   0.717  0.00  0.00     0.038 C 
ATOM      3  H1  <0> d          -2.080   3.350   0.921  0.00  0.00     0.083 H 
ATOM      4  C3  <0> d          -0.756   1.653   1.230  0.00  0.00    -0.016 C 
ATOM      5  C4  <0> d          -0.013   1.086   0.008  0.00  0.00     0.054 C 
ATOM      6  H2  <0> d           0.002  -0.004   0.002  0.00  0.00     0.085 H 
ATOM      7  C5  <0> d          -0.718   1.674  -1.244  0.00  0.00    -0.018 C 
ATOM      8  H3  <0> d          -0.698   0.999  -2.099  0.00  0.00     0.044 H 
ATOM      9  C6  <0> d           0.117   2.958  -1.475  0.00  0.00     0.021 C 
ATOM     10  C7  <0> d           1.503   2.477  -1.057  0.00  0.00     0.259 C 
ATOM     11  O1  <0> d           2.554   2.773  -1.575  0.00  0.00    -0.265 OA
ATOM     12  O2  <0> d           1.332   1.659  -0.002  0.00  0.00    -0.316 OA
ATOM     13  H4  <0> d          -2.470   2.940  -1.306  0.00  0.00     0.037 H 
ATOM     14  H5  <0> d          -2.818   1.212  -1.013  0.00  0.00     0.037 H 
ATOM     15  H6  <0> d          -0.962   0.852   1.941  0.00  0.00     0.040 H 
ATOM     16  H7  <0> d          -0.150   2.423   1.706  0.00  0.00     0.040 H 
ATOM     17  H8  <0> d          -0.226   3.771  -0.836  0.00  0.00     0.048 H 
ATOM     18  H9  <0> d           0.104   3.253  -2.524  0.00  0.00     0.048 H 
ENDROOT
BRANCH   2  19
ATOM     19  O3  <0> d          -3.182   1.650   1.359  0.00  0.00    -0.395 OA
ATOM     20  H10 <0> d          -3.199   1.766   2.319  0.00  0.00     0.210 HD
ENDBRANCH   2  19
TORSDOF 1
