REMARK  2 active torsions:
REMARK  status: ('A' for Active; 'I' for Inactive)
REMARK    1  A    between atoms: C1_1  and  C2_2 
REMARK    2  A    between atoms: C3_5  and  O1_6 
ROOT
ATOM      1  C2  <0> d           0.002  -0.004   0.002  0.00  0.00     0.028 A 
ATOM      2  N1  <0> d           0.023  -0.805   1.088  0.00  0.00    -0.280 N 
ATOM      3  N2  <0> d           0.036  -2.134   0.647  0.00  0.00    -0.149 NA
ATOM      4  C3  <0> d           0.024  -2.130  -0.664  0.00  0.00     0.183 A 
ATOM      5  C4  <0> d          -0.003  -0.795  -1.095  0.00  0.00    -0.008 A 
ATOM      6  H4  <0> d           0.028  -0.511   2.013  0.00  0.00     0.189 HD
ATOM      7  H6  <0> d          -0.022  -0.459  -2.122  0.00  0.00     0.093 H 
ENDROOT
BRANCH   1   8
ATOM      8  C1  <0> d          -0.018   1.503   0.010  0.00  0.00    -0.036 C 
ATOM      9  H1  <0> d           1.004   1.880   0.003  0.00  0.00     0.035 H 
ATOM     10  H2  <0> d          -0.545   1.864  -0.873  0.00  0.00     0.035 H 
ATOM     11  H3  <0> d          -0.529   1.854   0.907  0.00  0.00     0.035 H 
ENDBRANCH   1   8
BRANCH   4  12
ATOM     12  O1  <0> d           0.030  -3.228  -1.467  0.00  0.00    -0.344 OA
ATOM     13  H5  <0> d          -0.851  -3.557  -1.690  0.00  0.00     0.219 HD
ENDBRANCH   4  12
TORSDOF 2
