REMARK  3 active torsions:
REMARK  status: ('A' for Active; 'I' for Inactive)
REMARK    1  A    between atoms: C1_1  and  S1_2 
REMARK    2  A    between atoms: S1_2  and  C2_3 
REMARK    3  A    between atoms: C5_6  and  N3_9 
ROOT
ATOM      1  C2  <0> d           1.095   1.999   0.002  0.00  0.00     0.115 A 
ATOM      2  C3  <0> d           2.337   1.361  -0.013  0.00  0.00    -0.043 A 
ATOM      3  C4  <0> d           2.355  -0.022  -0.021  0.00  0.00    -0.035 A 
ATOM      4  C5  <0> d           1.131  -0.693  -0.013  0.00  0.00     0.143 A 
ATOM      5  N1  <0> d           0.002  -0.004   0.002  0.00  0.00    -0.132 NA
ATOM      6  N2  <0> d          -0.015   1.279   0.009  0.00  0.00    -0.141 NA
ATOM      7  H4  <0> d           3.255   1.929  -0.018  0.00  0.00     0.088 H 
ATOM      8  H5  <0> d           3.288  -0.567  -0.032  0.00  0.00     0.089 H 
ENDROOT
BRANCH   1   9
ATOM      9  S1  <0> d           1.007   3.759   0.012  0.00  0.00    -0.113 SA
BRANCH   9  10
ATOM     10  C1  <0> d          -0.773   4.109   0.030  0.00  0.00    -0.029 C 
ATOM     11  H1  <0> d          -0.931   5.187   0.037  0.00  0.00     0.042 H 
ATOM     12  H2  <0> d          -1.237   3.679  -0.857  0.00  0.00     0.042 H 
ATOM     13  H3  <0> d          -1.220   3.670   0.922  0.00  0.00     0.042 H 
ENDBRANCH   9  10
ENDBRANCH   1   9
BRANCH   4  14
ATOM     14  N3  <0> d           1.098  -2.087  -0.019  0.00  0.00    -0.383 N 
ATOM     15  H6  <0> d           0.247  -2.552  -0.013  0.00  0.00     0.157 HD
ATOM     16  H7  <0> d           1.927  -2.591  -0.030  0.00  0.00     0.157 HD
ENDBRANCH   4  14
TORSDOF 3
