REMARK  2 active torsions:
REMARK  status: ('A' for Active; 'I' for Inactive)
REMARK    1  A    between atoms: C3_3  and  C6_8 
REMARK    2  A    between atoms: C6_8  and  O2_9 
ROOT
ATOM      1  C1  <0> d           2.383   5.250   0.046  0.00  0.00    -0.045 C 
ATOM      2  C2  <0> d           2.531   3.727   0.116  0.00  0.00    -0.056 C 
ATOM      3  C3  <0> d           1.145   3.085   0.008  0.00  0.00    -0.013 C 
ATOM      4  H1  <0> d           0.534   3.389   0.858  0.00  0.00     0.046 H 
ATOM      5  C4  <0> d           0.478   3.545  -1.291  0.00  0.00     0.025 C 
ATOM      6  O1  <0> d           0.399   4.972  -1.306  0.00  0.00    -0.391 OA
ATOM      7  C5  <0> d           1.669   5.627  -1.254  0.00  0.00     0.019 C 
ATOM      8  H2  <0> d           3.370   5.713   0.067  0.00  0.00     0.036 H 
ATOM      9  H3  <0> d           1.799   5.600   0.897  0.00  0.00     0.036 H 
ATOM     10  H4  <0> d           2.989   3.449   1.065  0.00  0.00     0.033 H 
ATOM     11  H5  <0> d           3.158   3.384  -0.708  0.00  0.00     0.033 H 
ATOM     12  H6  <0> d           1.067   3.205  -2.143  0.00  0.00     0.075 H 
ATOM     13  H7  <0> d          -0.526   3.125  -1.353  0.00  0.00     0.075 H 
ATOM     14  H8  <0> d           2.273   5.314  -2.105  0.00  0.00     0.074 H 
ATOM     15  H9  <0> d           1.522   6.706  -1.290  0.00  0.00     0.074 H 
ENDROOT
BRANCH   3  16
ATOM     16  C6  <0> d           1.286   1.562  -0.002  0.00  0.00     0.022 C 
ATOM     17  H10 <0> d           1.840   1.243   0.881  0.00  0.00     0.074 H 
ATOM     18  H11 <0> d           1.823   1.252  -0.899  0.00  0.00     0.074 H 
BRANCH  16  19
ATOM     19  O2  <0> d          -0.011   0.963   0.007  0.00  0.00    -0.400 OA
ATOM     20  H12 <0> d           0.002  -0.004   0.002  0.00  0.00     0.209 HD
ENDBRANCH  16  19
ENDBRANCH   3  16
TORSDOF 2
