REMARK  3 active torsions:
REMARK  status: ('A' for Active; 'I' for Inactive)
REMARK    1  A    between atoms: C1_1  and  C2_2 
REMARK    2  A    between atoms: C2_2  and  N1_3 
REMARK    3  A    between atoms: N1_3  and  C3_4 
ROOT
ATOM      1  C3  <0> d           0.832  -1.845  -1.433  0.00  0.00     0.212 A 
ATOM      2  C4  <0> d           1.524  -2.333  -2.637  0.00  0.00     0.296 A 
ATOM      3  O1  <0> d           1.980  -1.547  -3.447  0.00  0.00    -0.264 OA
ATOM      4  N2  <0> d           1.647  -3.662  -2.830  0.00  0.00    -0.271 N 
ATOM      5  H1  <0> d           2.101  -3.998  -3.619  0.00  0.00     0.174 HD
ATOM      6  C5  <0> d           1.141  -4.524  -1.928  0.00  0.00     0.343 A 
ATOM      7  O2  <0> d           1.259  -5.721  -2.113  0.00  0.00    -0.245 OA
ATOM      8  N3  <0> d           0.508  -4.085  -0.826  0.00  0.00    -0.226 N 
ATOM      9  H2  <0> d           0.153  -4.727  -0.191  0.00  0.00     0.194 HD
ATOM     10  N4  <0> d           0.359  -2.715  -0.579  0.00  0.00    -0.147 NA
ENDROOT
BRANCH   1  11
ATOM     11  N1  <0> d           0.688  -0.476  -1.203  0.00  0.00    -0.369 N 
ATOM     12  H8  <0> d           1.042   0.162  -1.842  0.00  0.00     0.161 HD
BRANCH  11  13
ATOM     13  C2  <0> d           0.002  -0.004   0.002  0.00  0.00    -0.009 C 
ATOM     14  H6  <0> d           0.529  -0.365   0.885  0.00  0.00     0.063 H 
ATOM     15  H7  <0> d          -1.020  -0.381   0.010  0.00  0.00     0.063 H 
BRANCH  13  16
ATOM     16  C1  <0> d          -0.019   1.526   0.010  0.00  0.00    -0.061 C 
ATOM     17  H3  <0> d           1.004   1.903   0.003  0.00  0.00     0.029 H 
ATOM     18  H4  <0> d          -0.546   1.887  -0.873  0.00  0.00     0.029 H 
ATOM     19  H5  <0> d          -0.529   1.877   0.907  0.00  0.00     0.029 H 
ENDBRANCH  13  16
ENDBRANCH  11  13
ENDBRANCH   1  11
TORSDOF 3
