REMARK  2 active torsions:
REMARK  status: ('A' for Active; 'I' for Inactive)
REMARK    1  A    between atoms: C1_1  and  C2_2 
REMARK    2  A    between atoms: C2_2  and  C8_10 
ROOT
ATOM      1  C2  <0> d           0.002  -0.004   0.002  0.00  0.00     0.073 C 
ATOM      2  C3  <0> d           0.753  -0.502  -1.216  0.00  0.00     0.142 C 
ATOM      3  O1  <0> d           0.167  -1.000  -2.147  0.00  0.00    -0.297 OA
ATOM      4  C4  <0> d           2.259  -0.358  -1.233  0.00  0.00    -0.008 C 
ATOM      5  C5  <0> d           2.838  -1.022   0.020  0.00  0.00    -0.053 C 
ATOM      6  C6  <0> d           2.238  -0.372   1.270  0.00  0.00    -0.008 C 
ATOM      7  C7  <0> d           0.733  -0.516   1.226  0.00  0.00     0.142 C 
ATOM      8  O2  <0> d           0.132  -1.025   2.142  0.00  0.00    -0.297 OA
ATOM      9  H4  <0> d           2.662  -0.843  -2.122  0.00  0.00     0.044 H 
ATOM     10  H5  <0> d           2.524   0.699  -1.241  0.00  0.00     0.044 H 
ATOM     11  H6  <0> d           2.596  -2.085   0.012  0.00  0.00     0.034 H 
ATOM     12  H7  <0> d           3.920  -0.896   0.029  0.00  0.00     0.034 H 
ATOM     13  H8  <0> d           2.626  -0.867   2.160  0.00  0.00     0.044 H 
ATOM     14  H9  <0> d           2.503   0.685   1.294  0.00  0.00     0.044 H 
ENDROOT
BRANCH   1  15
ATOM     15  C1  <0> d          -0.019   1.526   0.010  0.00  0.00    -0.056 C 
ATOM     16  H1  <0> d           1.004   1.903   0.003  0.00  0.00     0.029 H 
ATOM     17  H2  <0> d          -0.546   1.887  -0.873  0.00  0.00     0.029 H 
ATOM     18  H3  <0> d          -0.529   1.877   0.907  0.00  0.00     0.029 H 
ENDBRANCH   1  15
BRANCH   1  19
ATOM     19  C8  <0> d          -1.430  -0.543  -0.012  0.00  0.00    -0.056 C 
ATOM     20  H10 <0> d          -1.944  -0.185  -0.904  0.00  0.00     0.029 H 
ATOM     21  H11 <0> d          -1.408  -1.633  -0.018  0.00  0.00     0.029 H 
ATOM     22  H12 <0> d          -1.958  -0.195   0.876  0.00  0.00     0.029 H 
ENDBRANCH   1  19
TORSDOF 2
