REMARK  2 active torsions:
REMARK  status: ('A' for Active; 'I' for Inactive)
REMARK    1  A    between atoms: C1_1  and  C2_2 
REMARK    2  A    between atoms: C2_2  and  N1_3 
ROOT
ATOM      1  N1  <0> d          -0.704   1.998   1.216  0.00  0.00    -0.356 N 
ATOM      2  C3  <0> d          -2.028   2.340   1.284  0.00  0.00    -0.019 A 
ATOM      3  C4  <0> d          -2.336   2.726   2.532  0.00  0.00    -0.056 A 
ATOM      4  C5  <0> d          -1.108   2.634   3.325  0.00  0.00    -0.008 A 
ATOM      5  C6  <0> d          -0.112   2.171   2.447  0.00  0.00     0.044 A 
ATOM      6  C7  <0> d           1.181   1.981   2.922  0.00  0.00    -0.056 A 
ATOM      7  C8  <0> d           1.471   2.249   4.242  0.00  0.00    -0.081 A 
ATOM      8  C9  <0> d           0.485   2.706   5.105  0.00  0.00    -0.082 A 
ATOM      9  C10 <0> d          -0.792   2.899   4.659  0.00  0.00    -0.071 A 
ATOM     10  H6  <0> d          -2.722   2.301   0.458  0.00  0.00     0.111 H 
ATOM     11  H7  <0> d          -3.305   3.048   2.884  0.00  0.00     0.086 H 
ATOM     12  H8  <0> d           1.956   1.626   2.258  0.00  0.00     0.087 H 
ATOM     13  H9  <0> d           2.476   2.101   4.609  0.00  0.00     0.083 H 
ATOM     14  H10 <0> d           0.729   2.910   6.137  0.00  0.00     0.083 H 
ATOM     15  H11 <0> d          -1.555   3.254   5.337  0.00  0.00     0.084 H 
ENDROOT
BRANCH   1  16
ATOM     16  C2  <0> d          -0.019   1.526   0.010  0.00  0.00    -0.004 C 
ATOM     17  H4  <0> d           1.004   1.903   0.003  0.00  0.00     0.064 H 
ATOM     18  H5  <0> d          -0.546   1.887  -0.873  0.00  0.00     0.064 H 
BRANCH  16  19
ATOM     19  C1  <0> d           0.002  -0.004   0.002  0.00  0.00    -0.061 C 
ATOM     20  H1  <0> d           0.529  -0.365   0.885  0.00  0.00     0.029 H 
ATOM     21  H2  <0> d          -1.020  -0.381   0.010  0.00  0.00     0.029 H 
ATOM     22  H3  <0> d           0.512  -0.356  -0.895  0.00  0.00     0.029 H 
ENDBRANCH  16  19
ENDBRANCH   1  16
TORSDOF 2
