REMARK  2 active torsions:
REMARK  status: ('A' for Active; 'I' for Inactive)
REMARK    1  A    between atoms: C1_1  and  C2_2 
REMARK    2  A    between atoms: N3_6  and  C4_7 
ROOT
ATOM      1  C4  <0> d          -0.017   1.384   0.010  0.00  0.00     0.060 A 
ATOM      2  C5  <0> d           1.177   2.092   0.002  0.00  0.00    -0.055 A 
ATOM      3  C6  <0> d           2.381   1.413  -0.013  0.00  0.00    -0.081 A 
ATOM      4  C7  <0> d           2.396   0.031  -0.021  0.00  0.00    -0.083 A 
ATOM      5  C8  <0> d           1.208  -0.677  -0.013  0.00  0.00    -0.081 A 
ATOM      6  C9  <0> d           0.002  -0.004   0.002  0.00  0.00    -0.055 A 
ATOM      7  H5  <0> d           1.166   3.172   0.008  0.00  0.00     0.087 H 
ATOM      8  H6  <0> d           3.310   1.963  -0.018  0.00  0.00     0.083 H 
ATOM      9  H7  <0> d           3.338  -0.498  -0.033  0.00  0.00     0.083 H 
ATOM     10  H8  <0> d           1.224  -1.757  -0.019  0.00  0.00     0.083 H 
ATOM     11  H9  <0> d          -0.925  -0.557   0.008  0.00  0.00     0.087 H 
ENDROOT
BRANCH   1  12
ATOM     12  N3  <0> d          -1.240   2.070   0.019  0.00  0.00    -0.219 N 
ATOM     13  C2  <0> d          -1.492   3.245   0.659  0.00  0.00     0.053 A 
ATOM     14  C3  <0> d          -2.788   3.540   0.402  0.00  0.00     0.049 A 
ATOM     15  N1  <0> d          -3.259   2.552  -0.367  0.00  0.00    -0.142 NA
ATOM     16  H4  <0> d          -3.335   4.403   0.751  0.00  0.00     0.120 H 
ATOM     17  N2  <0> d          -2.318   1.701  -0.580  0.00  0.00    -0.061 NA
BRANCH  13  18
ATOM     18  C1  <0> d          -0.525   4.053   1.485  0.00  0.00    -0.034 C 
ATOM     19  H1  <0> d          -0.007   4.766   0.844  0.00  0.00     0.035 H 
ATOM     20  H2  <0> d          -1.071   4.590   2.261  0.00  0.00     0.035 H 
ATOM     21  H3  <0> d           0.202   3.386   1.948  0.00  0.00     0.035 H 
ENDBRANCH  13  18
ENDBRANCH   1  12
TORSDOF 2
