REMARK  2 active torsions:
REMARK  status: ('A' for Active; 'I' for Inactive)
REMARK    1  A    between atoms: C4_4  and  S1_7 
REMARK    2  A    between atoms: S1_7  and  C7_8 
ROOT
ATOM      1  C1  <0> d          -0.017   1.379   0.010  0.00  0.00    -0.083 A 
ATOM      2  C2  <0> d           1.169   2.090   0.002  0.00  0.00    -0.082 A 
ATOM      3  C3  <0> d           2.377   1.421  -0.013  0.00  0.00    -0.067 A 
ATOM      4  C4  <0> d           2.400   0.031  -0.021  0.00  0.00     0.001 A 
ATOM      5  C5  <0> d           1.206  -0.680  -0.013  0.00  0.00    -0.067 A 
ATOM      6  C6  <0> d           0.002  -0.004   0.002  0.00  0.00    -0.082 A 
ATOM      7  H1  <0> d          -0.960   1.905   0.017  0.00  0.00     0.083 H 
ATOM      8  H2  <0> d           1.151   3.170   0.008  0.00  0.00     0.083 H 
ATOM      9  H3  <0> d           3.303   1.977  -0.019  0.00  0.00     0.085 H 
ATOM     10  H4  <0> d           1.220  -1.760  -0.019  0.00  0.00     0.085 H 
ATOM     11  H5  <0> d          -0.926  -0.556   0.007  0.00  0.00     0.083 H 
ENDROOT
BRANCH   4  12
ATOM     12  S1  <0> d           3.939  -0.827  -0.041  0.00  0.00    -0.125 SA
BRANCH  12  13
ATOM     13  C7  <0> d           5.179   0.497  -0.045  0.00  0.00    -0.004 A 
ATOM     14  C9  <0> d           6.650   0.087   0.055  0.00  0.00    -0.052 A 
ATOM     15  C8  <0> d           6.089   0.609  -1.270  0.00  0.00    -0.052 A 
ATOM     16  H9  <0> d           7.319   0.744   0.611  0.00  0.00     0.034 H 
ATOM     17  H10 <0> d           6.872  -0.978   0.123  0.00  0.00     0.034 H 
ATOM     18  H7  <0> d           5.941  -0.113  -2.074  0.00  0.00     0.034 H 
ATOM     19  H8  <0> d           6.388   1.609  -1.585  0.00  0.00     0.034 H 
ATOM     20  H6  <0> d           4.880   1.423   0.446  0.00  0.00     0.057 H 
ENDBRANCH  12  13
ENDBRANCH   4  12
TORSDOF 2
