REMARK  4 active torsions:
REMARK  status: ('A' for Active; 'I' for Inactive)
REMARK    1  A    between atoms: C3_3  and  C8_10 
REMARK    2  A    between atoms: C4_4  and  C7_8 
REMARK    3  A    between atoms: C7_8  and  O1_9 
REMARK    4  A    between atoms: C8_10  and  O2_11 
ROOT
ATOM      1  C1  <0> d           1.208  -0.679  -0.013  0.00  0.00    -0.045 A 
ATOM      2  C2  <0> d           0.002  -0.004   0.002  0.00  0.00    -0.071 A 
ATOM      3  C3  <0> d          -0.017   1.378   0.010  0.00  0.00    -0.026 A 
ATOM      4  C4  <0> d           1.171   2.087   0.002  0.00  0.00    -0.024 A 
ATOM      5  C5  <0> d           2.377   1.414  -0.013  0.00  0.00    -0.037 A 
ATOM      6  C6  <0> d           2.397   0.029  -0.021  0.00  0.00     0.117 A 
ATOM      7  F1  <0> d           3.577  -0.630  -0.035  0.00  0.00    -0.206 F 
ATOM      8  H1  <0> d           1.222  -1.759  -0.019  0.00  0.00     0.088 H 
ATOM      9  H2  <0> d          -0.926  -0.556   0.007  0.00  0.00     0.084 H 
ATOM     10  H3  <0> d           3.305   1.968  -0.019  0.00  0.00     0.089 H 
ENDROOT
BRANCH   3  11
ATOM     11  C8  <0> d          -1.332   2.113   0.020  0.00  0.00     0.041 C 
ATOM     12  H7  <0> d          -1.395   2.734   0.913  0.00  0.00     0.081 H 
ATOM     13  H8  <0> d          -1.403   2.744  -0.866  0.00  0.00     0.081 H 
BRANCH  11  14
ATOM     14  O2  <0> d          -2.405   1.169   0.020  0.00  0.00    -0.396 OA
ATOM     15  H9  <0> d          -3.284   1.573   0.026  0.00  0.00     0.209 HD
ENDBRANCH  11  14
ENDBRANCH   3  11
BRANCH   4  16
ATOM     16  C7  <0> d           1.149   3.594   0.010  0.00  0.00     0.041 C 
ATOM     17  H4  <0> d           0.621   3.954  -0.873  0.00  0.00     0.081 H 
ATOM     18  H5  <0> d           0.638   3.944   0.907  0.00  0.00     0.081 H 
BRANCH  16  19
ATOM     19  O1  <0> d           2.489   4.090   0.000  0.00  0.00    -0.396 OA
ATOM     20  H6  <0> d           2.551   5.055   0.005  0.00  0.00     0.209 HD
ENDBRANCH  16  19
ENDBRANCH   4  16
TORSDOF 4
