REMARK  1 active torsions:
REMARK  status: ('A' for Active; 'I' for Inactive)
REMARK    1  A    between atoms: C1_1  and  C2_2 
ROOT
ATOM      1  C2  <0> d           0.002  -0.004   0.002  0.00  0.00     0.028 A 
ATOM      2  C3  <0> d           0.006  -0.674  -1.173  0.00  0.00     0.007 A 
ATOM      3  C4  <0> d           0.025  -2.084  -1.171  0.00  0.00     0.286 A 
ATOM      4  O1  <0> d           0.029  -2.698  -2.223  0.00  0.00    -0.266 OA
ATOM      5  N1  <0> d           0.039  -2.748  -0.001  0.00  0.00    -0.022 N 
ATOM      6  C5  <0> d           0.036  -2.067   1.177  0.00  0.00     0.732 A 
ATOM      7  N2  <0> d           0.023  -0.692   1.179  0.00  0.00    -0.192 N 
ATOM      8  H1  <0> d           0.024  -0.209   2.021  0.00  0.00     0.184 HD
ATOM      9  N3  <0> d           0.052  -2.958   2.148  0.00  0.00    -0.054 NA
ATOM     10  C6  <0> d           0.066  -4.186   1.633  0.00  0.00     0.126 A 
ATOM     11  N4  <0> d           0.059  -4.110   0.328  0.00  0.00    -0.142 NA
ATOM     12  H5  <0> d          -0.006  -0.132  -2.107  0.00  0.00     0.095 H 
ATOM     13  H6  <0> d           0.080  -5.102   2.205  0.00  0.00     0.150 H 
ENDROOT
BRANCH   1  14
ATOM     14  C1  <0> d          -0.018   1.503   0.010  0.00  0.00    -0.037 C 
ATOM     15  H2  <0> d           1.004   1.880   0.003  0.00  0.00     0.035 H 
ATOM     16  H3  <0> d          -0.545   1.864  -0.873  0.00  0.00     0.035 H 
ATOM     17  H4  <0> d          -0.529   1.854   0.907  0.00  0.00     0.035 H 
ENDBRANCH   1  14
TORSDOF 1
