REMARK  3 active torsions:
REMARK  status: ('A' for Active; 'I' for Inactive)
REMARK    1  A    between atoms: C2_2  and  O3_9 
REMARK    2  A    between atoms: C4_4  and  O2_8 
REMARK    3  A    between atoms: C6_6  and  O1_7 
ROOT
ATOM      1  C1  <0> d          -0.017   1.383   0.010  0.00  0.00    -0.019 A 
ATOM      2  C2  <0> d           1.175   2.092   0.002  0.00  0.00     0.070 A 
ATOM      3  C3  <0> d           2.385   1.415  -0.013  0.00  0.00    -0.019 A 
ATOM      4  C4  <0> d           2.404   0.029  -0.020  0.00  0.00     0.070 A 
ATOM      5  C5  <0> d           1.212  -0.681  -0.012  0.00  0.00    -0.019 A 
ATOM      6  C6  <0> d           0.002  -0.004   0.002  0.00  0.00     0.070 A 
ATOM      7  H1  <0> d          -0.959   1.910   0.026  0.00  0.00     0.092 H 
ATOM      8  H2  <0> d           3.313   1.968  -0.020  0.00  0.00     0.092 H 
ATOM      9  H3  <0> d           1.227  -1.761  -0.018  0.00  0.00     0.092 H 
ENDROOT
BRANCH   2  10
ATOM     10  O3  <0> d           1.156   3.451   0.009  0.00  0.00    -0.361 OA
ATOM     11  H6  <0> d           1.159   3.840   0.894  0.00  0.00     0.217 HD
ENDBRANCH   2  10
BRANCH   6  12
ATOM     12  O1  <0> d          -1.165  -0.700   0.010  0.00  0.00    -0.361 OA
ATOM     13  H4  <0> d          -1.512  -0.896  -0.871  0.00  0.00     0.217 HD
ENDBRANCH   6  12
BRANCH   4  14
ATOM     14  O2  <0> d           3.590  -0.635  -0.036  0.00  0.00    -0.361 OA
ATOM     15  H5  <0> d           3.942  -0.831   0.843  0.00  0.00     0.217 HD
ENDBRANCH   4  14
TORSDOF 3
