REMARK  4 active torsions:
REMARK  status: ('A' for Active; 'I' for Inactive)
REMARK    1  A    between atoms: C1_1  and  C2_2 
REMARK    2  A    between atoms: C2_2  and  O1_3 
REMARK    3  A    between atoms: O1_3  and  C3_4 
REMARK    4  A    between atoms: C3_4  and  C4_6 
ROOT
ATOM      1  C4  <0> d          -0.018   1.473   0.010  0.00  0.00     0.039 A 
ATOM      2  C5  <0> d          -1.235   2.158   0.020  0.00  0.00    -0.067 A 
ATOM      3  C6  <0> d          -1.246   3.537   0.033  0.00  0.00    -0.082 A 
ATOM      4  C7  <0> d          -0.056   4.242   0.025  0.00  0.00    -0.083 A 
ATOM      5  C8  <0> d           1.154   3.570   0.010  0.00  0.00    -0.082 A 
ATOM      6  C9  <0> d           1.180   2.191   0.003  0.00  0.00    -0.067 A 
ATOM      7  H6  <0> d          -2.165   1.609   0.021  0.00  0.00     0.085 H 
ATOM      8  H7  <0> d          -2.187   4.068   0.045  0.00  0.00     0.083 H 
ATOM      9  H8  <0> d          -0.070   5.322   0.031  0.00  0.00     0.083 H 
ATOM     10  H9  <0> d           2.079   4.126   0.005  0.00  0.00     0.083 H 
ATOM     11  H10 <0> d           2.124   1.667  -0.010  0.00  0.00     0.085 H 
ENDROOT
BRANCH   1  12
ATOM     12  C3  <0> d           0.002  -0.004   0.002  0.00  0.00     0.293 C 
ATOM     13  O2  <0> d           1.062  -0.597  -0.011  0.00  0.00    -0.259 OA
BRANCH  12  14
ATOM     14  O1  <0> d          -1.155  -0.693   0.009  0.00  0.00    -0.318 OA
BRANCH  14  15
ATOM     15  C2  <0> d          -1.060  -2.142   0.001  0.00  0.00     0.026 C 
ATOM     16  H4  <0> d          -0.531  -2.466  -0.896  0.00  0.00     0.074 H 
ATOM     17  H5  <0> d          -0.514  -2.476   0.884  0.00  0.00     0.074 H 
BRANCH  15  18
ATOM     18  C1  <0> d          -2.465  -2.746   0.011  0.00  0.00    -0.056 C 
ATOM     19  H1  <0> d          -3.010  -2.413  -0.872  0.00  0.00     0.030 H 
ATOM     20  H2  <0> d          -2.393  -3.834   0.004  0.00  0.00     0.030 H 
ATOM     21  H3  <0> d          -2.993  -2.422   0.908  0.00  0.00     0.030 H 
ENDBRANCH  15  18
ENDBRANCH  14  15
ENDBRANCH  12  14
ENDBRANCH   1  12
TORSDOF 4
