REMARK  4 active torsions:
REMARK  status: ('A' for Active; 'I' for Inactive)
REMARK    1  A    between atoms: C1_1  and  C2_2 
REMARK    2  A    between atoms: C2_2  and  O1_3 
REMARK    3  A    between atoms: O1_3  and  C3_4 
REMARK    4  A    between atoms: C6_7  and  N3_10 
ROOT
ATOM      1  C3  <0> d           1.093   1.999   0.002  0.00  0.00     0.185 A 
ATOM      2  C4  <0> d           2.334   1.363  -0.013  0.00  0.00    -0.027 A 
ATOM      3  C5  <0> d           2.354  -0.021  -0.021  0.00  0.00    -0.033 A 
ATOM      4  C6  <0> d           1.132  -0.693  -0.013  0.00  0.00     0.143 A 
ATOM      5  N1  <0> d           0.002  -0.004   0.002  0.00  0.00    -0.130 NA
ATOM      6  N2  <0> d          -0.015   1.279   0.009  0.00  0.00    -0.123 NA
ATOM      7  H6  <0> d           3.251   1.934  -0.018  0.00  0.00     0.090 H 
ATOM      8  H7  <0> d           3.288  -0.563  -0.032  0.00  0.00     0.089 H 
ENDROOT
BRANCH   1   9
ATOM      9  O1  <0> d           1.023   3.355   0.010  0.00  0.00    -0.334 OA
BRANCH   9  10
ATOM     10  C2  <0> d          -0.281   3.938   0.025  0.00  0.00     0.024 C 
ATOM     11  H4  <0> d          -0.831   3.621  -0.862  0.00  0.00     0.074 H 
ATOM     12  H5  <0> d          -0.814   3.612   0.918  0.00  0.00     0.074 H 
BRANCH  10  13
ATOM     13  C1  <0> d          -0.159   5.463   0.032  0.00  0.00    -0.056 C 
ATOM     14  H1  <0> d          -1.154   5.907   0.043  0.00  0.00     0.030 H 
ATOM     15  H2  <0> d           0.391   5.779   0.918  0.00  0.00     0.030 H 
ATOM     16  H3  <0> d           0.374   5.788  -0.862  0.00  0.00     0.030 H 
ENDBRANCH  10  13
ENDBRANCH   9  10
ENDBRANCH   1   9
BRANCH   4  17
ATOM     17  N3  <0> d           1.100  -2.086  -0.019  0.00  0.00    -0.383 N 
ATOM     18  H8  <0> d           0.250  -2.552  -0.013  0.00  0.00     0.157 HD
ATOM     19  H9  <0> d           1.929  -2.589  -0.030  0.00  0.00     0.157 HD
ENDBRANCH   4  17
TORSDOF 4
