REMARK  0 active torsions:
REMARK  status: ('A' for Active; 'I' for Inactive)
ROOT
ATOM      1  C1  <0> d           2.395   1.348  -0.014  0.00  0.00    -0.036 A 
ATOM      2  C2  <0> d           1.175   2.040   0.002  0.00  0.00     0.061 A 
ATOM      3  C3  <0> d          -0.016   1.313   0.009  0.00  0.00    -0.001 A 
ATOM      4  N1  <0> d           0.002  -0.004   0.002  0.00  0.00    -0.342 N 
ATOM      5  C4  <0> d           1.136  -0.686  -0.013  0.00  0.00     0.200 A 
ATOM      6  C5  <0> d           2.365  -0.033  -0.021  0.00  0.00     0.089 A 
ATOM      7 Cl1  <0> d           3.844  -0.942  -0.040  0.00  0.00    -0.080 Cl
ATOM      8  O1  <0> d           1.100  -2.042  -0.019  0.00  0.00    -0.170 OA
ATOM      9  C6  <0> d           1.152   3.472   0.009  0.00  0.00     0.101 C 
ATOM     10  N2  <0> d           1.134   4.608   0.015  0.00  0.00    -0.191 NA
ATOM     11  H1  <0> d           3.334   1.881  -0.020  0.00  0.00     0.088 H 
ATOM     12  H2  <0> d          -0.961   1.835   0.017  0.00  0.00     0.113 H 
ATOM     13  H3  <0> d          -0.943  -0.567   0.008  0.00  0.00     0.167 HD
ENDROOT
TORSDOF 0
