REMARK  5 active torsions:
REMARK  status: ('A' for Active; 'I' for Inactive)
REMARK    1  A    between atoms: C1_1  and  C2_2 
REMARK    2  A    between atoms: C2_2  and  O1_3 
REMARK    3  A    between atoms: O1_3  and  C3_4 
REMARK    4  A    between atoms: C3_4  and  C4_6 
REMARK    5  A    between atoms: C7_11  and  C8_12 
ROOT
ATOM      1  C4  <0> d           0.573   3.251   0.013  0.00  0.00     0.062 A 
ATOM      2  C5  <0> d          -0.802   3.157   0.025  0.00  0.00    -0.007 A 
ATOM      3  N1  <0> d          -1.135   1.852   0.017  0.00  0.00    -0.374 N 
ATOM      4  H1  <0> d          -2.043   1.512   0.019  0.00  0.00     0.164 HD
ATOM      5  C6  <0> d          -0.013   1.076   0.008  0.00  0.00    -0.017 A 
ATOM      6  C7  <0> d           1.072   1.871   0.002  0.00  0.00    -0.029 A 
ATOM      7  H7  <0> d          -1.493   3.986   0.035  0.00  0.00     0.112 H 
ATOM      8  H8  <0> d           0.002  -0.004   0.002  0.00  0.00     0.112 H 
ENDROOT
BRANCH   1   9
ATOM      9  C3  <0> d           1.377   4.483   0.013  0.00  0.00     0.295 C 
ATOM     10  O2  <0> d           2.591   4.417   0.002  0.00  0.00    -0.259 OA
BRANCH   9  11
ATOM     11  O1  <0> d           0.767   5.685   0.024  0.00  0.00    -0.318 OA
BRANCH  11  12
ATOM     12  C2  <0> d           1.623   6.858   0.022  0.00  0.00     0.026 C 
ATOM     13  H5  <0> d           2.260   6.844   0.907  0.00  0.00     0.074 H 
ATOM     14  H6  <0> d           2.245   6.853  -0.873  0.00  0.00     0.074 H 
BRANCH  12  15
ATOM     15  C1  <0> d           0.759   8.120   0.036  0.00  0.00    -0.056 C 
ATOM     16  H2  <0> d           0.122   8.134  -0.848  0.00  0.00     0.030 H 
ATOM     17  H3  <0> d           0.137   8.125   0.932  0.00  0.00     0.030 H 
ATOM     18  H4  <0> d           1.401   9.001   0.035  0.00  0.00     0.030 H 
ENDBRANCH  12  15
ENDBRANCH  11  12
ENDBRANCH   9  11
ENDBRANCH   1   9
BRANCH   6  19
ATOM     19  C8  <0> d           2.513   1.431  -0.014  0.00  0.00    -0.049 C 
ATOM     20  H9  <0> d           2.851   1.330  -1.045  0.00  0.00     0.033 H 
ATOM     21  H10 <0> d           3.125   2.174   0.498  0.00  0.00     0.033 H 
ATOM     22  H11 <0> d           2.606   0.471   0.494  0.00  0.00     0.033 H 
ENDBRANCH   6  19
TORSDOF 5
