REMARK  1 active torsions:
REMARK  status: ('A' for Active; 'I' for Inactive)
REMARK    1  A    between atoms: C4_4  and  N3_10 
ROOT
ATOM      1  C1  <0> d          -0.017   1.387   0.010  0.00  0.00    -0.065 A 
ATOM      2  C2  <0> d           1.149   2.097   0.002  0.00  0.00    -0.066 A 
ATOM      3  C3  <0> d           2.367   1.382  -0.013  0.00  0.00     0.033 A 
ATOM      4  C4  <0> d           3.696   1.788  -0.024  0.00  0.00     0.034 A 
ATOM      5  C5  <0> d           4.510   0.512  -0.040  0.00  0.00     0.032 A 
ATOM      6  N1  <0> d           3.539  -0.587  -0.036  0.00  0.00    -0.368 N 
ATOM      7  C6  <0> d           2.319  -0.089  -0.021  0.00  0.00     0.135 A 
ATOM      8  N2  <0> d           1.115  -0.695  -0.012  0.00  0.00    -0.243 NA
ATOM      9  C7  <0> d           0.002  -0.004   0.002  0.00  0.00     0.004 A 
ATOM     10  H1  <0> d          -0.962   1.910   0.026  0.00  0.00     0.085 H 
ATOM     11  H2  <0> d           1.141   3.177   0.008  0.00  0.00     0.085 H 
ATOM     12  H3  <0> d           5.123   0.469  -0.940  0.00  0.00     0.073 H 
ATOM     13  H4  <0> d           5.141   0.459   0.848  0.00  0.00     0.073 H 
ATOM     14  H5  <0> d          -0.938  -0.535   0.008  0.00  0.00     0.114 H 
ATOM     15  H8  <0> d           3.761  -1.531  -0.043  0.00  0.00     0.161 HD
ENDROOT
BRANCH   4  16
ATOM     16  N3  <0> d           4.162   3.051  -0.023  0.00  0.00    -0.400 N 
ATOM     17  H6  <0> d           3.542   3.797  -0.013  0.00  0.00     0.156 HD
ATOM     18  H7  <0> d           5.118   3.215  -0.032  0.00  0.00     0.156 HD
ENDBRANCH   4  16
TORSDOF 1
