REMARK  3 active torsions:
REMARK  status: ('A' for Active; 'I' for Inactive)
REMARK    1  A    between atoms: C1_1  and  C2_2 
REMARK    2  A    between atoms: C4_4  and  C8_10 
REMARK    3  A    between atoms: C5_6  and  C6_7 
ROOT
ATOM      1  C6  <0> d          -2.355   4.080   0.047  0.00  0.00     0.045 C 
ATOM      2  C7  <0> d          -2.718   4.386   1.440  0.00  0.00     0.064 C 
ATOM      3  N1  <0> d          -2.999   4.622   2.516  0.00  0.00    -0.197 NA
ATOM      4  H5  <0> d          -2.071   4.999  -0.464  0.00  0.00     0.063 H 
ATOM      5  H6  <0> d          -3.208   3.631  -0.461  0.00  0.00     0.063 H 
ENDROOT
BRANCH   1   6
ATOM      6  C5  <0> d          -1.196   3.116   0.030  0.00  0.00     0.002 A 
ATOM      7  C2  <0> d          -1.213   1.761   0.017  0.00  0.00    -0.047 A 
ATOM      8  C3  <0> d          -0.013   1.076   0.008  0.00  0.00    -0.064 A 
ATOM      9  C4  <0> d           1.146   1.780   0.001  0.00  0.00    -0.020 A 
ATOM     10  H4  <0> d           0.002  -0.004   0.002  0.00  0.00     0.086 H 
ATOM     11  S1  <0> d           0.555   3.464   0.015  0.00  0.00    -0.098 SA
BRANCH   7  12
ATOM     12  C1  <0> d          -2.521   1.012   0.019  0.00  0.00    -0.050 C 
ATOM     13  H1  <0> d          -2.832   0.826   1.047  0.00  0.00     0.033 H 
ATOM     14  H2  <0> d          -3.281   1.607  -0.488  0.00  0.00     0.033 H 
ATOM     15  H3  <0> d          -2.396   0.062  -0.501  0.00  0.00     0.033 H 
ENDBRANCH   7  12
BRANCH   9  16
ATOM     16  C8  <0> d           2.565   1.272  -0.016  0.00  0.00    -0.045 C 
ATOM     17  H7  <0> d           2.897   1.155  -1.048  0.00  0.00     0.034 H 
ATOM     18  H8  <0> d           3.212   1.984   0.496  0.00  0.00     0.034 H 
ATOM     19  H9  <0> d           2.612   0.308   0.492  0.00  0.00     0.034 H 
ENDBRANCH   9  16
ENDBRANCH   1   6
TORSDOF 3
