REMARK  2 active torsions:
REMARK  status: ('A' for Active; 'I' for Inactive)
REMARK    1  A    between atoms: N1_4  and  C4_7 
REMARK    2  A    between atoms: C4_7  and  O2_8 
ROOT
ATOM      1  C1  <0> d          -0.018   1.478   0.010  0.00  0.00     0.186 C 
ATOM      2  C2  <0> d           1.440   1.884  -0.002  0.00  0.00     0.251 C 
ATOM      3  O1  <0> d           1.873   2.980   0.284  0.00  0.00    -0.271 OA
ATOM      4  N1  <0> d           2.176   0.821  -0.383  0.00  0.00    -0.303 N 
ATOM      5  C3  <0> d           1.292  -0.320  -0.652  0.00  0.00     0.175 C 
ATOM      6  N2  <0> d           0.002  -0.004   0.002  0.00  0.00     0.109 N 
ATOM      7  H1  <0> d          -0.507   1.846   0.912  0.00  0.00     0.094 H 
ATOM      8  H2  <0> d          -0.524   1.856  -0.878  0.00  0.00     0.094 H 
ATOM      9  H3  <0> d           1.149  -0.439  -1.726  0.00  0.00     0.112 H 
ATOM     10  H4  <0> d           1.715  -1.230  -0.227  0.00  0.00     0.112 H 
ATOM     11  H5  <0> d          -0.027  -0.371   0.941  0.00  0.00     0.318 HD
ENDROOT
BRANCH   4  12
ATOM     12  C4  <0> d           3.636   0.807  -0.511  0.00  0.00     0.081 C 
ATOM     13  H6  <0> d           3.942  -0.071  -1.079  0.00  0.00     0.107 H 
ATOM     14  H7  <0> d           3.964   1.708  -1.029  0.00  0.00     0.107 H 
BRANCH  12  15
ATOM     15  O2  <0> d           4.227   0.762   0.789  0.00  0.00    -0.382 OA
ATOM     16  H8  <0> d           5.194   0.751   0.781  0.00  0.00     0.211 HD
ENDBRANCH  12  15
ENDBRANCH   4  12
TORSDOF 2
