REMARK  1 active torsions:
REMARK  status: ('A' for Active; 'I' for Inactive)
REMARK    1  A    between atoms: C2_2  and  N3_11 
ROOT
ATOM      1  C1  <0> d           1.157   2.057   0.002  0.00  0.00     0.012 A 
ATOM      2  C2  <0> d           2.340   1.400  -0.013  0.00  0.00     0.110 A 
ATOM      3  C3  <0> d           2.339  -0.021  -0.021  0.00  0.00     0.277 A 
ATOM      4  O1  <0> d           3.390  -0.635  -0.035  0.00  0.00    -0.266 OA
ATOM      5  N1  <0> d           1.164  -0.682  -0.013  0.00  0.00    -0.274 N 
ATOM      6  H1  <0> d           1.157  -1.682  -0.019  0.00  0.00     0.173 HD
ATOM      7  C4  <0> d           0.002  -0.004   0.002  0.00  0.00     0.327 A 
ATOM      8  O2  <0> d          -1.048  -0.617   0.009  0.00  0.00    -0.247 OA
ATOM      9  N2  <0> d          -0.016   1.341   0.009  0.00  0.00    -0.316 N 
ATOM     10  H2  <0> d          -0.891   1.825   0.020  0.00  0.00     0.170 HD
ATOM     11  H3  <0> d           1.134   3.136   0.008  0.00  0.00     0.115 H 
ENDROOT
BRANCH   2  12
ATOM     12  N3  <0> d           3.552   2.114  -0.020  0.00  0.00    -0.394 N 
ATOM     13  H4  <0> d           4.396   1.636  -0.031  0.00  0.00     0.156 HD
ATOM     14  H5  <0> d           3.544   3.083  -0.014  0.00  0.00     0.156 HD
ENDBRANCH   2  12
TORSDOF 1
