REMARK  2 active torsions:
REMARK  status: ('A' for Active; 'I' for Inactive)
REMARK    1  A    between atoms: C3_3  and  C6_9 
REMARK    2  A    between atoms: C4_5  and  O1_8 
REMARK       I    between atoms: C6_9  and  N1_11 
ROOT
ATOM      1  C1  <0> d          -0.029   1.510   0.009  0.00  0.00    -0.062 C 
ATOM      2  C2  <0> d           1.473   1.884  -0.019  0.00  0.00    -0.051 C 
ATOM      3  C3  <0> d           2.139   0.844   0.906  0.00  0.00     0.048 C 
ATOM      4  H1  <0> d           2.252   1.254   1.909  0.00  0.00     0.058 H 
ATOM      5  C4  <0> d           1.205  -0.378   0.938  0.00  0.00     0.047 C 
ATOM      6  H2  <0> d           0.864  -0.561   1.956  0.00  0.00     0.084 H 
ATOM      7  C5  <0> d           0.004  -0.039   0.031  0.00  0.00    -0.040 C 
ATOM      8  H3  <0> d          -0.507   1.898   0.909  0.00  0.00     0.033 H 
ATOM      9  H4  <0> d          -0.535   1.873  -0.885  0.00  0.00     0.033 H 
ATOM     10  H5  <0> d           1.868   1.802  -1.032  0.00  0.00     0.034 H 
ATOM     11  H6  <0> d           1.623   2.891   0.370  0.00  0.00     0.034 H 
ATOM     12  H7  <0> d          -0.919  -0.434   0.456  0.00  0.00     0.036 H 
ATOM     13  H8  <0> d           0.161  -0.431  -0.974  0.00  0.00     0.036 H 
ENDROOT
BRANCH   3  14
ATOM     14  C6  <0> d           3.486   0.451   0.355  0.00  0.00     0.222 C 
ATOM     15  O2  <0> d           3.662   0.406  -0.844  0.00  0.00    -0.273 OA
ATOM     16  N1  <0> d           4.496   0.150   1.196  0.00  0.00    -0.370 N 
ATOM     17  H10 <0> d           4.356   0.186   2.155  0.00  0.00     0.159 HD
ATOM     18  H11 <0> d           5.363  -0.103   0.841  0.00  0.00     0.159 HD
ENDBRANCH   3  14
BRANCH   5  19
ATOM     19  O1  <0> d           1.888  -1.529   0.436  0.00  0.00    -0.395 OA
ATOM     20  H9  <0> d           1.351  -2.334   0.431  0.00  0.00     0.210 HD
ENDBRANCH   5  19
TORSDOF 2
