REMARK  3 active torsions:
REMARK  status: ('A' for Active; 'I' for Inactive)
REMARK    1  A    between atoms: C1_1  and  C2_2 
REMARK    2  A    between atoms: C2_2  and  C3_4 
REMARK    3  A    between atoms: C3_4  and  C7_10 
ROOT
ATOM      1  C3  <0> d          -0.821   1.628  -1.192  0.00  0.00     0.106 C 
ATOM      2  C4  <0> d          -0.013   1.086   0.008  0.00  0.00    -0.022 C 
ATOM      3  C5  <0> d          -0.797   1.614   1.228  0.00  0.00     0.030 C 
ATOM      4  O2  <0> d          -1.633   2.692   0.700  0.00  0.00    -0.320 OA
ATOM      5  C6  <0> d          -1.972   2.388  -0.566  0.00  0.00     0.274 C 
ATOM      6  O3  <0> d          -3.013   2.673  -1.110  0.00  0.00    -0.264 OA
ATOM      7  H4  <0> d           0.002  -0.004   0.002  0.00  0.00     0.038 H 
ATOM      8  H5  <0> d           1.002   1.484   0.001  0.00  0.00     0.038 H 
ATOM      9  H6  <0> d          -1.419   0.824   1.649  0.00  0.00     0.075 H 
ATOM     10  H7  <0> d          -0.110   1.999   1.982  0.00  0.00     0.075 H 
ENDROOT
BRANCH   1  11
ATOM     11  C2  <0> d           0.031   2.551  -2.025  0.00  0.00     0.141 C 
ATOM     12  O1  <0> d           1.176   2.768  -1.707  0.00  0.00    -0.297 OA
BRANCH  11  13
ATOM     13  C1  <0> d          -0.546   3.203  -3.255  0.00  0.00    -0.020 C 
ATOM     14  H1  <0> d          -1.331   3.766  -2.996  0.00  0.00     0.037 H 
ATOM     15  H2  <0> d           0.213   3.830  -3.723  0.00  0.00     0.037 H 
ATOM     16  H3  <0> d          -0.866   2.434  -3.958  0.00  0.00     0.037 H 
ENDBRANCH  11  13
ENDBRANCH   1  11
BRANCH   1  17
ATOM     17  C7  <0> d          -1.346   0.472  -2.046  0.00  0.00    -0.053 C 
ATOM     18  H8  <0> d          -1.993  -0.163  -1.441  0.00  0.00     0.029 H 
ATOM     19  H9  <0> d          -1.913   0.871  -2.888  0.00  0.00     0.029 H 
ATOM     20  H10 <0> d          -0.507  -0.115  -2.420  0.00  0.00     0.029 H 
ENDBRANCH   1  17
TORSDOF 3
