REMARK  5 active torsions:
REMARK  status: ('A' for Active; 'I' for Inactive)
REMARK    1  A    between atoms: C1_1  and  C2_2 
REMARK    2  A    between atoms: C2_2  and  O1_3 
REMARK    3  A    between atoms: O1_3  and  C3_4 
REMARK    4  A    between atoms: C3_4  and  C4_6 
REMARK    5  A    between atoms: C4_6  and  C5_8 
ROOT
ATOM      1  C4  <0> d          -1.329   1.940   0.019  0.00  0.00     0.110 C 
ATOM      2  H1  <0> d          -1.391   2.561   0.913  0.00  0.00     0.078 H 
ATOM      3  C6  <0> d          -2.435   0.968   0.019  0.00  0.00     0.073 C 
ATOM      4  N1  <0> d          -3.289   0.218   0.019  0.00  0.00    -0.196 NA
ENDROOT
BRANCH   1   5
ATOM      5  C3  <0> d          -0.014   1.204   0.009  0.00  0.00     0.276 C 
ATOM      6  O2  <0> d           0.002  -0.004   0.002  0.00  0.00    -0.264 OA
BRANCH   5   7
ATOM      7  O1  <0> d           1.139   1.891   0.001  0.00  0.00    -0.321 OA
BRANCH   7   8
ATOM      8  C2  <0> d           2.367   1.117  -0.015  0.00  0.00     0.025 C 
ATOM      9  H5  <0> d           2.409   0.484   0.872  0.00  0.00     0.074 H 
ATOM     10  H6  <0> d           2.392   0.493  -0.908  0.00  0.00     0.074 H 
BRANCH   8  11
ATOM     11  C1  <0> d           3.568   2.065  -0.021  0.00  0.00    -0.056 C 
ATOM     12  H2  <0> d           3.526   2.698  -0.907  0.00  0.00     0.030 H 
ATOM     13  H3  <0> d           3.543   2.689   0.873  0.00  0.00     0.030 H 
ATOM     14  H4  <0> d           4.490   1.484  -0.033  0.00  0.00     0.030 H 
ENDBRANCH   8  11
ENDBRANCH   7   8
ENDBRANCH   5   7
ENDBRANCH   1   5
BRANCH   1  15
ATOM     15  C5  <0> d          -1.428   2.825  -1.225  0.00  0.00    -0.052 C 
ATOM     16  H7  <0> d          -2.380   3.357  -1.218  0.00  0.00     0.029 H 
ATOM     17  H8  <0> d          -0.610   3.545  -1.225  0.00  0.00     0.029 H 
ATOM     18  H9  <0> d          -1.366   2.204  -2.119  0.00  0.00     0.029 H 
ENDBRANCH   1  15
TORSDOF 5
