REMARK  3 active torsions:
REMARK  status: ('A' for Active; 'I' for Inactive)
REMARK    1  A    between atoms: C1_1  and  C2_2 
REMARK    2  A    between atoms: C2_2  and  C3_4 
REMARK    3  A    between atoms: C2_2  and  N1_6 
REMARK       I    between atoms: N1_6  and  C4_7 
REMARK       I    between atoms: C4_7  and  N2_9 
ROOT
ATOM      1  C2  <0> d          -2.484   3.687   0.034  0.00  0.00     0.094 C 
ATOM      2  H1  <0> d          -3.215   3.132  -0.555  0.00  0.00     0.089 H 
ENDROOT
BRANCH   1   3
ATOM      3  C1  <0> d          -2.984   3.818   1.474  0.00  0.00    -0.048 C 
ATOM      4  H2  <0> d          -2.253   4.372   2.063  0.00  0.00     0.030 H 
ATOM      5  H3  <0> d          -3.935   4.350   1.481  0.00  0.00     0.030 H 
ATOM      6  H4  <0> d          -3.119   2.825   1.904  0.00  0.00     0.030 H 
ENDBRANCH   1   3
BRANCH   1   7
ATOM      7  C3  <0> d          -2.297   5.059  -0.560  0.00  0.00     0.196 C 
ATOM      8  O1  <0> d          -1.207   5.404  -0.952  0.00  0.00    -0.646 OA
ATOM      9  O3  <0> d          -3.340   5.898  -0.654  0.00  0.00    -0.646 OA
ENDBRANCH   1   7
BRANCH   1  10
ATOM     10  N1  <0> d          -1.206   2.971   0.024  0.00  0.00    -0.329 N 
ATOM     11  C4  <0> d          -1.187   1.624   0.017  0.00  0.00     0.314 C 
ATOM     12  O2  <0> d          -2.232   1.002   0.018  0.00  0.00    -0.248 OA
ATOM     13  N2  <0> d          -0.011   0.966   0.007  0.00  0.00    -0.352 N 
ATOM     14  H6  <0> d           0.002  -0.004   0.002  0.00  0.00     0.160 HD
ATOM     15  H7  <0> d           0.822   1.462   0.002  0.00  0.00     0.160 HD
ATOM     16  H5  <0> d          -0.372   3.468   0.023  0.00  0.00     0.165 HD
ENDBRANCH   1  10
TORSDOF 3
