REMARK  0 active torsions:
REMARK  status: ('A' for Active; 'I' for Inactive)
ROOT
ATOM      1  C1  <0> d           1.135   2.130   0.003  0.00  0.00    -0.082 A 
ATOM      2  C2  <0> d           2.373   1.491  -0.013  0.00  0.00    -0.082 A 
ATOM      3  C3  <0> d           2.442   0.135  -0.021  0.00  0.00    -0.072 A 
ATOM      4  C4  <0> d           1.261  -0.641  -0.014  0.00  0.00    -0.019 A 
ATOM      5  C5  <0> d           1.414  -2.045  -0.022  0.00  0.00    -0.034 A 
ATOM      6  S1  <0> d          -0.057  -2.954  -0.013  0.00  0.00    -0.113 SA
ATOM      7  C6  <0> d          -1.476  -1.964   0.005  0.00  0.00    -0.044 A 
ATOM      8  C7  <0> d          -1.253  -0.628   0.011  0.00  0.00    -0.066 A 
ATOM      9  C8  <0> d           0.002  -0.004   0.002  0.00  0.00    -0.025 A 
ATOM     10  C9  <0> d          -0.017   1.417   0.010  0.00  0.00    -0.072 A 
ATOM     11  H1  <0> d           1.092   3.209   0.009  0.00  0.00     0.083 H 
ATOM     12  H2  <0> d           3.281   2.076  -0.019  0.00  0.00     0.083 H 
ATOM     13  H3  <0> d           3.405  -0.353  -0.034  0.00  0.00     0.084 H 
ATOM     14  H4  <0> d           2.385  -2.519  -0.034  0.00  0.00     0.096 H 
ATOM     15  H5  <0> d          -2.472  -2.383   0.013  0.00  0.00     0.095 H 
ATOM     16  H6  <0> d          -2.121   0.015   0.022  0.00  0.00     0.085 H 
ATOM     17  H7  <0> d          -0.964   1.936   0.017  0.00  0.00     0.084 H 
ENDROOT
TORSDOF 0
