REMARK  0 active torsions:
REMARK  status: ('A' for Active; 'I' for Inactive)
ROOT
ATOM      1  C1  <0> d          -0.019   1.520   0.010  0.00  0.00    -0.062 C 
ATOM      2  C2  <0> d           1.417   2.057  -0.000  0.00  0.00    -0.050 C 
ATOM      3  C3  <0> d           1.981   2.142   1.381  0.00  0.00    -0.103 C 
ATOM      4  C4  <0> d           1.609   1.782   2.539  0.00  0.00    -0.087 C 
ATOM      5  C5  <0> d           0.448   1.054   3.013  0.00  0.00    -0.087 C 
ATOM      6  C6  <0> d           0.029  -0.065   2.439  0.00  0.00    -0.103 C 
ATOM      7  C7  <0> d           0.718  -0.587   1.199  0.00  0.00    -0.050 C 
ATOM      8  C8  <0> d           0.002  -0.004   0.002  0.00  0.00    -0.062 C 
ATOM      9  H1  <0> d          -0.530   1.871   0.907  0.00  0.00     0.033 H 
ATOM     10  H2  <0> d          -0.547   1.880  -0.872  0.00  0.00     0.033 H 
ATOM     11  H3  <0> d           2.040   1.393  -0.600  0.00  0.00     0.038 H 
ATOM     12  H4  <0> d           1.422   3.050  -0.449  0.00  0.00     0.038 H 
ATOM     13  H5  <0> d           2.944   2.631   1.397  0.00  0.00     0.076 H 
ATOM     14  H6  <0> d           2.290   2.074   3.325  0.00  0.00     0.083 H 
ATOM     15  H7  <0> d          -0.095   1.437   3.864  0.00  0.00     0.083 H 
ATOM     16  H8  <0> d          -0.806  -0.606   2.860  0.00  0.00     0.076 H 
ATOM     17  H9  <0> d           1.762  -0.274   1.195  0.00  0.00     0.038 H 
ATOM     18  H10 <0> d           0.657  -1.675   1.172  0.00  0.00     0.038 H 
ATOM     19  H11 <0> d          -1.025  -0.369  -0.006  0.00  0.00     0.033 H 
ATOM     20  H12 <0> d           0.501  -0.344  -0.906  0.00  0.00     0.033 H 
ENDROOT
TORSDOF 0
