REMARK  8 active torsions:
REMARK  status: ('A' for Active; 'I' for Inactive)
REMARK    1  A    between atoms: C1_1  and  C2_2 
REMARK    2  A    between atoms: C2_2  and  C3_3 
REMARK    3  A    between atoms: C3_3  and  C4_5 
REMARK    4  A    between atoms: C3_3  and  O1_7 
REMARK    5  A    between atoms: O1_7  and  C6_8 
REMARK    6  A    between atoms: C6_8  and  C7_10 
REMARK    7  A    between atoms: C7_10  and  C8_11 
REMARK    8  A    between atoms: C7_10  and  C9_12 
ROOT
ATOM      1  C3  <0> d          -1.433  -0.534   0.013  0.00  0.00     0.063 C 
ATOM      2  H1  <0> d          -1.986  -0.102  -0.821  0.00  0.00     0.090 H 
ENDROOT
BRANCH   1   3
ATOM      3  C2  <0> d           0.002  -0.004   0.002  0.00  0.00    -0.041 C 
ATOM      4  H5  <0> d           0.512  -0.356  -0.895  0.00  0.00     0.036 H 
ATOM      5  H6  <0> d           0.529  -0.365   0.885  0.00  0.00     0.036 H 
BRANCH   3   6
ATOM      6  C1  <0> d          -0.019   1.526   0.010  0.00  0.00    -0.074 C 
ATOM      7  H2  <0> d           1.004   1.903   0.003  0.00  0.00     0.027 H 
ATOM      8  H3  <0> d          -0.546   1.887  -0.873  0.00  0.00     0.027 H 
ATOM      9  H4  <0> d          -0.529   1.877   0.907  0.00  0.00     0.027 H 
ENDBRANCH   3   6
ENDBRANCH   1   3
BRANCH   1  10
ATOM     10  C4  <0> d          -1.416  -2.035  -0.119  0.00  0.00    -0.084 C 
ATOM     11  C5  <0> d          -2.014  -2.610  -1.133  0.00  0.00    -0.122 C 
ATOM     12  H8  <0> d          -2.002  -3.686  -1.227  0.00  0.00     0.066 H 
ATOM     13  H9  <0> d          -2.520  -2.009  -1.874  0.00  0.00     0.066 H 
ATOM     14  H7  <0> d          -0.910  -2.636   0.622  0.00  0.00     0.079 H 
ENDBRANCH   1  10
BRANCH   1  15
ATOM     15  O1  <0> d          -2.066  -0.171   1.242  0.00  0.00    -0.312 OA
BRANCH  15  16
ATOM     16  C6  <0> d          -2.715   1.003   1.270  0.00  0.00     0.263 C 
ATOM     17  O2  <0> d          -2.746   1.700   0.283  0.00  0.00    -0.265 OA
BRANCH  16  18
ATOM     18  C7  <0> d          -3.406   1.453   2.531  0.00  0.00     0.023 C 
ATOM     19  H10 <0> d          -2.675   1.537   3.336  0.00  0.00     0.054 H 
BRANCH  18  20
ATOM     20  C8  <0> d          -4.064   2.814   2.296  0.00  0.00    -0.065 C 
ATOM     21  H11 <0> d          -4.795   2.729   1.491  0.00  0.00     0.028 H 
ATOM     22  H12 <0> d          -4.564   3.139   3.208  0.00  0.00     0.028 H 
ATOM     23  H13 <0> d          -3.302   3.543   2.019  0.00  0.00     0.028 H 
ENDBRANCH  18  20
BRANCH  18  24
ATOM     24  C9  <0> d          -4.475   0.429   2.919  0.00  0.00    -0.065 C 
ATOM     25  H14 <0> d          -5.206   0.345   2.115  0.00  0.00     0.028 H 
ATOM     26  H15 <0> d          -4.007  -0.540   3.087  0.00  0.00     0.028 H 
ATOM     27  H16 <0> d          -4.975   0.754   3.832  0.00  0.00     0.028 H 
ENDBRANCH  18  24
ENDBRANCH  16  18
ENDBRANCH  15  16
ENDBRANCH   1  15
TORSDOF 8
