REMARK  4 active torsions:
REMARK  status: ('A' for Active; 'I' for Inactive)
REMARK    1  A    between atoms: C1_1  and  C2_2 
REMARK    2  A    between atoms: C2_2  and  C3_3 
REMARK    3  A    between atoms: C2_2  and  C5_5 
REMARK    4  A    between atoms: C3_3  and  C4_4 
ROOT
ATOM      1  C5  <0> d           0.000  -0.692  -1.205  0.00  0.00    -0.023 A 
ATOM      2  C6  <0> d          -0.015   0.015  -2.431  0.00  0.00    -0.072 A 
ATOM      3  C7  <0> d          -0.017  -0.675  -3.608  0.00  0.00    -0.082 A 
ATOM      4  C8  <0> d          -0.004  -2.062  -3.608  0.00  0.00    -0.083 A 
ATOM      5  C9  <0> d           0.011  -2.769  -2.414  0.00  0.00    -0.082 A 
ATOM      6  C10 <0> d           0.019  -2.107  -1.221  0.00  0.00    -0.072 A 
ATOM      7  H6  <0> d          -0.026   1.095  -2.434  0.00  0.00     0.084 H 
ATOM      8  H7  <0> d          -0.029  -0.138  -4.545  0.00  0.00     0.083 H 
ATOM      9  H8  <0> d          -0.006  -2.597  -4.546  0.00  0.00     0.083 H 
ATOM     10  H9  <0> d           0.021  -3.849  -2.429  0.00  0.00     0.083 H 
ATOM     11  H10 <0> d           0.035  -2.660  -0.293  0.00  0.00     0.084 H 
ENDROOT
BRANCH   1  12
ATOM     12  C2  <0> d           0.002  -0.004   0.002  0.00  0.00    -0.011 C 
BRANCH  12  13
ATOM     13  C1  <0> d          -0.018   1.503   0.010  0.00  0.00    -0.044 C 
ATOM     14  H1  <0> d           1.004   1.880   0.003  0.00  0.00     0.034 H 
ATOM     15  H2  <0> d          -0.545   1.864  -0.873  0.00  0.00     0.034 H 
ATOM     16  H3  <0> d          -0.529   1.854   0.907  0.00  0.00     0.034 H 
ENDBRANCH  12  13
BRANCH  12  17
ATOM     17  C3  <0> d           0.022  -0.664   1.130  0.00  0.00    -0.147 C 
BRANCH  17  18
ATOM     18  C4  <0> d           0.041  -1.323   2.259  0.00  0.00    -0.007 C 
ATOM     19  H4  <0> d           0.985  -1.583   2.716  0.00  0.00     0.052 H 
ATOM     20  H5  <0> d          -0.886  -1.608   2.733  0.00  0.00     0.052 H 
ENDBRANCH  17  18
ENDBRANCH  12  17
ENDBRANCH   1  12
TORSDOF 4
