REMARK  5 active torsions:
REMARK  status: ('A' for Active; 'I' for Inactive)
REMARK    1  A    between atoms: C1_1  and  C2_2 
REMARK    2  A    between atoms: C2_2  and  C3_3 
REMARK    3  A    between atoms: C3_3  and  C4_4 
REMARK    4  A    between atoms: C4_4  and  C5_5 
REMARK    5  A    between atoms: C5_5  and  C6_7 
ROOT
ATOM      1  C4  <0> d           1.280   1.981   0.001  0.00  0.00    -0.003 C 
ATOM      2  H8  <0> d           1.318   2.561  -0.813  0.00  0.00     0.044 H 
ATOM      3  H9  <0> d           1.338   2.604   0.893  0.00  0.00     0.044 H 
ENDROOT
BRANCH   1   4
ATOM      4  C3  <0> d           2.457   1.003  -0.016  0.00  0.00    -0.059 C 
ATOM      5  H6  <0> d           2.416   0.371   0.871  0.00  0.00     0.033 H 
ATOM      6  H7  <0> d           2.399   0.381  -0.909  0.00  0.00     0.033 H 
BRANCH   4   7
ATOM      7  C2  <0> d           3.771   1.786  -0.024  0.00  0.00    -0.068 C 
ATOM      8  H4  <0> d           3.812   2.418  -0.911  0.00  0.00     0.032 H 
ATOM      9  H5  <0> d           3.829   2.409   0.869  0.00  0.00     0.032 H 
BRANCH   7  10
ATOM     10  C1  <0> d           4.947   0.808  -0.041  0.00  0.00    -0.077 C 
ATOM     11  H1  <0> d           4.907   0.176   0.846  0.00  0.00     0.027 H 
ATOM     12  H2  <0> d           4.889   0.185  -0.934  0.00  0.00     0.027 H 
ATOM     13  H3  <0> d           5.884   1.365  -0.047  0.00  0.00     0.027 H 
ENDBRANCH   7  10
ENDBRANCH   4   7
ENDBRANCH   1   4
BRANCH   1  14
ATOM     14  C5  <0> d          -0.014   1.210   0.009  0.00  0.00     0.182 C 
ATOM     15  O1  <0> d           0.002  -0.004   0.002  0.00  0.00    -0.290 OA
BRANCH  14  16
ATOM     16  C6  <0> d          -1.248   1.900   0.018  0.00  0.00     0.120 A 
ATOM     17  O2  <0> d          -1.410   3.240   0.032  0.00  0.00    -0.319 OA
ATOM     18  C9  <0> d          -2.716   3.531   0.034  0.00  0.00     0.019 A 
ATOM     19  C8  <0> d          -3.425   2.379   0.031  0.00  0.00    -0.059 A 
ATOM     20  H12 <0> d          -3.137   4.526   0.042  0.00  0.00     0.123 H 
ATOM     21  C7  <0> d          -2.502   1.324   0.021  0.00  0.00    -0.045 A 
ATOM     22  H11 <0> d          -4.501   2.288   0.035  0.00  0.00     0.086 H 
ATOM     23  H10 <0> d          -2.728   0.268   0.016  0.00  0.00     0.088 H 
ENDBRANCH  14  16
ENDBRANCH   1  14
TORSDOF 5
