REMARK  3 active torsions:
REMARK  status: ('A' for Active; 'I' for Inactive)
REMARK    1  A    between atoms: C1_1  and  O1_2 
REMARK    2  A    between atoms: O1_2  and  C2_3 
REMARK    3  A    between atoms: C2_3  and  C3_5 
ROOT
ATOM      1  C3  <0> d          -0.019   1.541   0.011  0.00  0.00     0.096 C 
ATOM      2  H1  <0> d          -0.511   1.906   0.912  0.00  0.00     0.088 H 
ATOM      3  C4  <0> d           0.002  -0.004   0.002  0.00  0.00    -0.029 C 
ATOM      4  C5  <0> d           1.367  -0.297  -0.662  0.00  0.00     0.011 C 
ATOM      5  C6  <0> d           2.190   0.940  -0.380  0.00  0.00     0.218 C 
ATOM      6  O3  <0> d           3.397   1.010  -0.482  0.00  0.00    -0.274 OA
ATOM      7  N1  <0> d           1.390   1.951  -0.001  0.00  0.00    -0.347 N 
ATOM      8  H5  <0> d          -0.031  -0.400   1.017  0.00  0.00     0.037 H 
ATOM      9  H6  <0> d          -0.817  -0.402  -0.597  0.00  0.00     0.037 H 
ATOM     10  H7  <0> d           1.831  -1.175  -0.211  0.00  0.00     0.047 H 
ATOM     11  H8  <0> d           1.246  -0.438  -1.736  0.00  0.00     0.047 H 
ATOM     12  H9  <0> d           1.703   2.838   0.235  0.00  0.00     0.163 HD
ENDROOT
BRANCH   1  13
ATOM     13  C2  <0> d          -0.723   2.059  -1.217  0.00  0.00     0.281 C 
ATOM     14  O2  <0> d          -0.080   2.453  -2.161  0.00  0.00    -0.263 OA
BRANCH  13  15
ATOM     15  O1  <0> d          -2.064   2.084  -1.260  0.00  0.00    -0.325 OA
BRANCH  15  16
ATOM     16  C1  <0> d          -2.675   2.597  -2.474  0.00  0.00     0.013 C 
ATOM     17  H2  <0> d          -2.357   3.627  -2.633  0.00  0.00     0.067 H 
ATOM     18  H3  <0> d          -2.365   1.986  -3.322  0.00  0.00     0.067 H 
ATOM     19  H4  <0> d          -3.760   2.562  -2.378  0.00  0.00     0.067 H 
ENDBRANCH  15  16
ENDBRANCH  13  15
ENDBRANCH   1  13
TORSDOF 3
