REMARK  4 active torsions:
REMARK  status: ('A' for Active; 'I' for Inactive)
REMARK    1  A    between atoms: C1_1  and  C2_2 
REMARK    2  A    between atoms: C6_9  and  C7_10 
REMARK    3  A    between atoms: C6_9  and  C8_11 
REMARK    4  A    between atoms: C10_13  and  O1_15 
ROOT
ATOM      1  C2  <0> d           1.263   3.576   0.201  0.00  0.00    -0.029 C 
ATOM      2  H1  <0> d           0.289   3.963  -0.160  0.00  0.00     0.043 H 
ATOM      3  C3  <0> d           2.338   4.023  -0.788  0.00  0.00    -0.041 C 
ATOM      4  H2  <0> d           2.564   5.098  -0.739  0.00  0.00     0.042 H 
ATOM      5  C4  <0> d           1.976   3.524  -2.207  0.00  0.00    -0.057 C 
ATOM      6  C5  <0> d           2.651   2.215  -1.755  0.00  0.00    -0.044 C 
ATOM      7  H3  <0> d           3.167   1.671  -2.558  0.00  0.00     0.041 H 
ATOM      8  C6  <0> d           3.562   3.108  -0.896  0.00  0.00    -0.040 C 
ATOM      9  C9  <0> d           1.703   1.344  -0.932  0.00  0.00    -0.037 C 
ATOM     10  C10 <0> d           1.157   2.060   0.296  0.00  0.00     0.039 C 
ATOM     11  H4  <0> d           1.679   1.707   1.195  0.00  0.00     0.083 H 
ATOM     12  H8  <0> d           0.899   3.427  -2.364  0.00  0.00     0.034 H 
ATOM     13  H9  <0> d           2.474   4.047  -3.013  0.00  0.00     0.034 H 
ATOM     14  H16 <0> d           2.224   0.428  -0.622  0.00  0.00     0.037 H 
ATOM     15  H17 <0> d           0.861   1.030  -1.569  0.00  0.00     0.037 H 
ENDROOT
BRANCH   8  16
ATOM     16  C7  <0> d           4.721   3.733  -1.698  0.00  0.00    -0.069 C 
ATOM     17  H10 <0> d           5.042   4.656  -1.214  0.00  0.00     0.028 H 
ATOM     18  H11 <0> d           5.555   3.034  -1.736  0.00  0.00     0.028 H 
ATOM     19  H12 <0> d           4.384   3.953  -2.711  0.00  0.00     0.028 H 
ENDBRANCH   8  16
BRANCH   8  20
ATOM     20  C8  <0> d           4.074   2.473   0.393  0.00  0.00    -0.069 C 
ATOM     21  H13 <0> d           3.337   1.761   0.765  0.00  0.00     0.028 H 
ATOM     22  H14 <0> d           5.012   1.955   0.196  0.00  0.00     0.028 H 
ATOM     23  H15 <0> d           4.237   3.250   1.140  0.00  0.00     0.028 H 
ENDBRANCH   8  20
BRANCH   1  24
ATOM     24  C1  <0> d           1.504   4.191   1.583  0.00  0.00    -0.070 C 
ATOM     25  H5  <0> d           2.432   3.799   1.998  0.00  0.00     0.028 H 
ATOM     26  H6  <0> d           1.576   5.275   1.490  0.00  0.00     0.028 H 
ATOM     27  H7  <0> d           0.674   3.938   2.243  0.00  0.00     0.028 H 
ENDBRANCH   1  24
BRANCH  10  28
ATOM     28  O1  <0> d          -0.230   1.704   0.459  0.00  0.00    -0.395 OA
ATOM     29  H18 <0> d          -0.386   0.752   0.528  0.00  0.00     0.210 HD
ENDBRANCH  10  28
TORSDOF 4
