REMARK  3 active torsions:
REMARK  status: ('A' for Active; 'I' for Inactive)
REMARK    1  A    between atoms: C1_1  and  N6_9 
REMARK    2  A    between atoms: C2_3  and  N5_8 
REMARK    3  A    between atoms: C3_5  and  N4_7 
ROOT
ATOM      1  C1  <0> d          -0.016   1.325   0.009  0.00  0.00     0.751 A 
ATOM      2  N1  <0> d           1.126   2.005   0.002  0.00  0.00     0.130 NA
ATOM      3  C2  <0> d           2.286   1.357  -0.012  0.00  0.00     0.751 A 
ATOM      4  N2  <0> d           2.304   0.027  -0.020  0.00  0.00     0.130 NA
ATOM      5  C3  <0> d           1.162  -0.653  -0.012  0.00  0.00     0.751 A 
ATOM      6  N3  <0> d           0.002  -0.004   0.002  0.00  0.00     0.130 NA
ENDROOT
BRANCH   1   7
ATOM      7  N6  <0> d          -1.220   1.999   0.030  0.00  0.00    -0.230 N 
ATOM      8  H5  <0> d          -2.054   1.502   0.040  0.00  0.00     0.174 HD
ATOM      9  H6  <0> d          -1.234   2.969   0.035  0.00  0.00     0.174 HD
ENDBRANCH   1   7
BRANCH   5  10
ATOM     10  N4  <0> d           1.181  -2.033  -0.020  0.00  0.00    -0.230 N 
ATOM     11  H1  <0> d           2.027  -2.506  -0.031  0.00  0.00     0.174 HD
ATOM     12  H2  <0> d           0.348  -2.529  -0.014  0.00  0.00     0.174 HD
ENDBRANCH   5  10
BRANCH   3  13
ATOM     13  N5  <0> d           3.472   2.063  -0.020  0.00  0.00    -0.230 N 
ATOM     14  H3  <0> d           3.459   3.033  -0.015  0.00  0.00     0.174 HD
ATOM     15  H4  <0> d           4.318   1.589  -0.031  0.00  0.00     0.174 HD
ENDBRANCH   3  13
TORSDOF 3
