REMARK  5 active torsions:
REMARK  status: ('A' for Active; 'I' for Inactive)
REMARK    1  A    between atoms: C1_1  and  C2_2 
REMARK    2  A    between atoms: C3_3  and  C9_11 
REMARK    3  A    between atoms: C4_4  and  O1_10 
REMARK    4  A    between atoms: C5_5  and  C8_9 
REMARK    5  A    between atoms: C6_7  and  C7_8 
ROOT
ATOM      1  C2  <0> d          -0.718   1.572   1.248  0.00  0.00    -0.029 A 
ATOM      2  C3  <0> d          -0.005   1.809   2.413  0.00  0.00    -0.019 A 
ATOM      3  C4  <0> d          -0.699   2.257   3.532  0.00  0.00     0.096 A 
ATOM      4  C5  <0> d          -2.070   2.449   3.443  0.00  0.00     0.064 A 
ATOM      5  N1  <0> d          -2.711   2.212   2.316  0.00  0.00    -0.255 NA
ATOM      6  C6  <0> d          -2.083   1.792   1.235  0.00  0.00     0.037 A 
ENDROOT
BRANCH   1   7
ATOM      7  C1  <0> d          -0.013   1.086   0.008  0.00  0.00    -0.049 C 
ATOM      8  H1  <0> d           0.002  -0.004   0.002  0.00  0.00     0.033 H 
ATOM      9  H2  <0> d           1.010   1.463   0.000  0.00  0.00     0.033 H 
ATOM     10  H3  <0> d          -0.540   1.447  -0.875  0.00  0.00     0.033 H 
ENDBRANCH   1   7
BRANCH   6  11
ATOM     11  C7  <0> d          -2.864   1.543  -0.029  0.00  0.00    -0.035 C 
ATOM     12  H4  <0> d          -3.212   0.510  -0.044  0.00  0.00     0.035 H 
ATOM     13  H5  <0> d          -3.721   2.216  -0.065  0.00  0.00     0.035 H 
ATOM     14  H6  <0> d          -2.224   1.723  -0.893  0.00  0.00     0.035 H 
ENDBRANCH   6  11
BRANCH   2  15
ATOM     15  C9  <0> d           1.484   1.587   2.465  0.00  0.00    -0.048 C 
ATOM     16  H11 <0> d           1.998   2.507   2.184  0.00  0.00     0.033 H 
ATOM     17  H12 <0> d           1.774   1.303   3.476  0.00  0.00     0.033 H 
ATOM     18  H13 <0> d           1.758   0.792   1.771  0.00  0.00     0.033 H 
ENDBRANCH   2  15
BRANCH   3  19
ATOM     19  O1  <0> d          -0.042   2.503   4.696  0.00  0.00    -0.358 OA
ATOM     20  H10 <0> d           0.281   3.410   4.781  0.00  0.00     0.217 HD
ENDBRANCH   3  19
BRANCH   4  21
ATOM     21  C8  <0> d          -2.835   2.933   4.648  0.00  0.00    -0.033 C 
ATOM     22  H7  <0> d          -2.864   4.023   4.646  0.00  0.00     0.035 H 
ATOM     23  H8  <0> d          -3.852   2.542   4.614  0.00  0.00     0.035 H 
ATOM     24  H9  <0> d          -2.342   2.584   5.556  0.00  0.00     0.035 H 
ENDBRANCH   4  21
TORSDOF 5
