REMARK  7 active torsions:
REMARK  status: ('A' for Active; 'I' for Inactive)
REMARK    1  A    between atoms: C1_1  and  C2_2 
REMARK    2  A    between atoms: C2_2  and  C3_3 
REMARK    3  A    between atoms: C3_3  and  C4_4 
REMARK    4  A    between atoms: C3_3  and  C5_5 
REMARK    5  A    between atoms: C3_3  and  N1_9 
REMARK    6  A    between atoms: C5_5  and  O2_7 
REMARK    7  A    between atoms: O2_7  and  C6_8 
ROOT
ATOM      1  C3  <0> d           0.718  -0.497  -1.257  0.00  0.00     0.237 C 
ENDROOT
BRANCH   1   2
ATOM      2  C2  <0> d           0.002  -0.004   0.002  0.00  0.00    -0.026 C 
ATOM      3  H4  <0> d           0.529  -0.365   0.885  0.00  0.00     0.036 H 
ATOM      4  H5  <0> d          -1.020  -0.381   0.010  0.00  0.00     0.036 H 
BRANCH   2   5
ATOM      5  C1  <0> d          -0.019   1.526   0.010  0.00  0.00    -0.074 C 
ATOM      6  H1  <0> d           1.004   1.903   0.003  0.00  0.00     0.027 H 
ATOM      7  H2  <0> d          -0.546   1.887  -0.873  0.00  0.00     0.027 H 
ATOM      8  H3  <0> d          -0.529   1.877   0.907  0.00  0.00     0.027 H 
ENDBRANCH   2   5
ENDBRANCH   1   2
BRANCH   1   9
ATOM      9  C4  <0> d          -0.022   0.009  -2.496  0.00  0.00    -0.034 C 
ATOM     10  H6  <0> d          -0.037   1.099  -2.490  0.00  0.00     0.031 H 
ATOM     11  H7  <0> d           0.488  -0.342  -3.393  0.00  0.00     0.031 H 
ATOM     12  H8  <0> d          -1.044  -0.368  -2.489  0.00  0.00     0.031 H 
ENDBRANCH   1   9
BRANCH   1  13
ATOM     13  C5  <0> d           0.739  -2.004  -1.265  0.00  0.00     0.297 C 
ATOM     14  O1  <0> d          -0.104  -2.623  -0.660  0.00  0.00    -0.262 OA
BRANCH  13  15
ATOM     15  O2  <0> d           1.694  -2.659  -1.944  0.00  0.00    -0.324 OA
BRANCH  15  16
ATOM     16  C6  <0> d           1.652  -4.087  -1.909  0.00  0.00     0.013 C 
ATOM     17  H9  <0> d           2.477  -4.489  -2.497  0.00  0.00     0.067 H 
ATOM     18  H10 <0> d           1.741  -4.427  -0.877  0.00  0.00     0.067 H 
ATOM     19  H11 <0> d           0.706  -4.433  -2.325  0.00  0.00     0.067 H 
ENDBRANCH  15  16
ENDBRANCH  13  15
ENDBRANCH   1  13
BRANCH   1  20
ATOM     20  N1  <0> d           2.096   0.011  -1.267  0.00  0.00     0.097 N 
ATOM     21  H12 <0> d           2.110   1.018  -1.327  0.00  0.00     0.314 HD
ATOM     22  H13 <0> d           2.606  -0.310  -0.458  0.00  0.00     0.314 HD
ENDBRANCH   1  20
TORSDOF 7
