REMARK  0 active torsions:
REMARK  status: ('A' for Active; 'I' for Inactive)
ROOT
ATOM      1  C1  <0> d           1.187   1.769   0.000  0.00  0.00    -0.065 A 
ATOM      2  C2  <0> d           1.172   3.152   0.008  0.00  0.00    -0.064 A 
ATOM      3  C3  <0> d          -0.068   3.795   0.023  0.00  0.00     0.062 A 
ATOM      4  C4  <0> d          -1.244   3.026   0.030  0.00  0.00     0.207 A 
ATOM      5  N1  <0> d          -1.170   1.703   0.017  0.00  0.00    -0.234 NA
ATOM      6  C5  <0> d          -0.013   1.076   0.008  0.00  0.00     0.005 A 
ATOM      7  O1  <0> d          -2.278   3.891   0.045  0.00  0.00    -0.191 OA
ATOM      8  N2  <0> d          -1.785   5.215   0.048  0.00  0.00    -0.113 NA
ATOM      9  C6  <0> d          -0.486   5.200   0.035  0.00  0.00     0.168 A 
ATOM     10 Cl1  <0> d           0.559   6.585   0.032  0.00  0.00    -0.059 Cl
ATOM     11  H1  <0> d           2.126   1.235  -0.012  0.00  0.00     0.085 H 
ATOM     12  H2  <0> d           2.092   3.717   0.002  0.00  0.00     0.085 H 
ATOM     13  H3  <0> d           0.002  -0.004   0.002  0.00  0.00     0.114 H 
ENDROOT
TORSDOF 0
