REMARK  0 active torsions:
REMARK  status: ('A' for Active; 'I' for Inactive)
ROOT
ATOM      1  C1  <0> d          -0.760   3.425   0.632  0.00  0.00    -0.057 C 
ATOM      2  C2  <0> d           0.659   3.564   0.024  0.00  0.00    -0.043 C 
ATOM      3  C3  <0> d           1.193   2.117   0.002  0.00  0.00     0.087 C 
ATOM      4  H1  <0> d           1.745   1.978  -0.821  0.00  0.00     0.074 H 
ATOM      5  C4  <0> d          -0.014   1.203   0.009  0.00  0.00     0.144 C 
ATOM      6  O1  <0> d           0.002  -0.004   0.002  0.00  0.00    -0.297 OA
ATOM      7  C5  <0> d          -1.250   2.087   0.018  0.00  0.00    -0.008 C 
ATOM      8  C6  <0> d           2.019   1.868   1.195  0.00  0.00     0.071 C 
ATOM      9  N1  <0> d           2.657   1.676   2.115  0.00  0.00    -0.196 NA
ATOM     10  H2  <0> d          -0.711   3.362   1.719  0.00  0.00     0.033 H 
ATOM     11  H3  <0> d          -1.398   4.252   0.321  0.00  0.00     0.033 H 
ATOM     12  H4  <0> d           1.286   4.195   0.654  0.00  0.00     0.035 H 
ATOM     13  H5  <0> d           0.606   3.968  -0.988  0.00  0.00     0.035 H 
ATOM     14  H6  <0> d          -1.609   2.253  -0.899  0.00  0.00     0.044 H 
ATOM     15  H7  <0> d          -2.028   1.645   0.641  0.00  0.00     0.044 H 
ENDROOT
TORSDOF 0
