REMARK  0 active torsions:
REMARK  status: ('A' for Active; 'I' for Inactive)
ROOT
ATOM      1  C1  <0> d           1.158   2.040   0.002  0.00  0.00    -0.046 A 
ATOM      2  C2  <0> d          -0.016   1.315   0.009  0.00  0.00     0.007 A 
ATOM      3  N1  <0> d           0.002  -0.004   0.002  0.00  0.00    -0.233 NA
ATOM      4  C3  <0> d           1.131  -0.689  -0.012  0.00  0.00     0.211 A 
ATOM      5  C4  <0> d           2.354  -0.041  -0.020  0.00  0.00    -0.007 A 
ATOM      6  C5  <0> d           2.380   1.357  -0.013  0.00  0.00     0.050 A 
ATOM      7  C6  <0> d           3.621   2.070  -0.021  0.00  0.00     0.099 C 
ATOM      8  N2  <0> d           4.607   2.635  -0.027  0.00  0.00    -0.191 NA
ATOM      9  F1  <0> d           1.091  -2.039  -0.019  0.00  0.00    -0.184 F 
ATOM     10  H1  <0> d           1.135   3.120   0.008  0.00  0.00     0.088 H 
ATOM     11  H2  <0> d          -0.963   1.834   0.017  0.00  0.00     0.114 H 
ATOM     12  H3  <0> d           3.274  -0.607  -0.032  0.00  0.00     0.093 H 
ENDROOT
TORSDOF 0
