REMARK  4 active torsions:
REMARK  status: ('A' for Active; 'I' for Inactive)
REMARK    1  A    between atoms: C1_1  and  C2_2 
REMARK    2  A    between atoms: C2_2  and  C3_3 
REMARK    3  A    between atoms: C2_2  and  C4_4 
REMARK    4  A    between atoms: C9_9  and  N1_10 
ROOT
ATOM      1  C4  <0> d           1.208  -0.683  -0.118  0.00  0.00    -0.029 A 
ATOM      2  C5  <0> d           1.223  -2.064  -0.127  0.00  0.00    -0.074 A 
ATOM      3  C6  <0> d           0.040  -2.771  -0.014  0.00  0.00    -0.082 A 
ATOM      4  C7  <0> d          -1.163  -2.098   0.108  0.00  0.00    -0.081 A 
ATOM      5  C8  <0> d          -1.184  -0.717   0.122  0.00  0.00    -0.057 A 
ATOM      6  C9  <0> d           0.002  -0.004   0.004  0.00  0.00     0.032 A 
ATOM      7  H8  <0> d           2.160  -2.593  -0.221  0.00  0.00     0.084 H 
ATOM      8  H9  <0> d           0.054  -3.851  -0.020  0.00  0.00     0.083 H 
ATOM      9  H10 <0> d          -2.085  -2.653   0.196  0.00  0.00     0.083 H 
ATOM     10  H11 <0> d          -2.123  -0.192   0.221  0.00  0.00     0.086 H 
ENDROOT
BRANCH   1  11
ATOM     11  C2  <0> d           2.498   0.086  -0.240  0.00  0.00    -0.033 C 
ATOM     12  H4  <0> d           2.298   1.151  -0.127  0.00  0.00     0.046 H 
BRANCH  11  13
ATOM     13  C1  <0> d           3.469  -0.370   0.851  0.00  0.00    -0.069 C 
ATOM     14  H1  <0> d           3.669  -1.435   0.738  0.00  0.00     0.028 H 
ATOM     15  H2  <0> d           4.402   0.187   0.763  0.00  0.00     0.028 H 
ATOM     16  H3  <0> d           3.027  -0.185   1.831  0.00  0.00     0.028 H 
ENDBRANCH  11  13
BRANCH  11  17
ATOM     17  C3  <0> d           3.118  -0.173  -1.615  0.00  0.00    -0.069 C 
ATOM     18  H5  <0> d           2.426   0.152  -2.392  0.00  0.00     0.028 H 
ATOM     19  H6  <0> d           4.051   0.384  -1.703  0.00  0.00     0.028 H 
ATOM     20  H7  <0> d           3.318  -1.238  -1.728  0.00  0.00     0.028 H 
ENDBRANCH  11  17
ENDBRANCH   1  11
BRANCH   6  21
ATOM     21  N1  <0> d          -0.017   1.393   0.013  0.00  0.00    -0.399 N 
ATOM     22  H12 <0> d           0.817   1.889   0.029  0.00  0.00     0.156 HD
ATOM     23  H13 <0> d          -0.863   1.866   0.000  0.00  0.00     0.156 HD
ENDBRANCH   6  21
TORSDOF 4
