REMARK  0 active torsions:
REMARK  status: ('A' for Active; 'I' for Inactive)
ROOT
ATOM      1  C1  <0> d          -0.017   1.367   0.010  0.00  0.00    -0.045 A 
ATOM      2  C2  <0> d           1.209   2.044   0.002  0.00  0.00     0.032 A 
ATOM      3  C3  <0> d           1.594   3.451   0.005  0.00  0.00     0.035 A 
ATOM      4  N1  <0> d           2.895   3.504  -0.007  0.00  0.00    -0.185 NA
ATOM      5  N2  <0> d           3.429   2.212  -0.019  0.00  0.00    -0.261 N 
ATOM      6  H1  <0> d           4.374   1.994  -0.029  0.00  0.00     0.191 HD
ATOM      7  C4  <0> d           2.406   1.302  -0.014  0.00  0.00     0.155 A 
ATOM      8  N3  <0> d           2.362  -0.025  -0.020  0.00  0.00    -0.239 NA
ATOM      9  C5  <0> d           1.219  -0.674  -0.012  0.00  0.00     0.025 A 
ATOM     10  C6  <0> d           0.002  -0.004   0.002  0.00  0.00     0.052 A 
ATOM     11 Cl1  <0> d          -1.486  -0.897   0.012  0.00  0.00    -0.083 Cl
ATOM     12  H2  <0> d          -0.950   1.909   0.026  0.00  0.00     0.087 H 
ATOM     13  H3  <0> d           0.921   4.296   0.016  0.00  0.00     0.118 H 
ATOM     14  H4  <0> d           1.226  -1.754  -0.018  0.00  0.00     0.117 H 
ENDROOT
TORSDOF 0
