REMARK  5 active torsions:
REMARK  status: ('A' for Active; 'I' for Inactive)
REMARK    1  A    between atoms: C1_1  and  C2_2 
REMARK    2  A    between atoms: C2_2  and  C3_3 
REMARK    3  A    between atoms: C3_3  and  C4_4 
REMARK    4  A    between atoms: C4_4  and  C5_5 
REMARK    5  A    between atoms: C7_8  and  N3_11 
ROOT
ATOM      1  C4  <0> d          -4.870   3.684   0.046  0.00  0.00    -0.038 C 
ATOM      2  H8  <0> d          -5.632   3.082  -0.472  0.00  0.00     0.040 H 
ATOM      3  H9  <0> d          -4.755   4.650  -0.468  0.00  0.00     0.040 H 
ENDROOT
BRANCH   1   4
ATOM      4  C3  <0> d          -5.308   3.925   1.492  0.00  0.00    -0.062 C 
ATOM      5  H6  <0> d          -4.547   4.527   2.010  0.00  0.00     0.033 H 
ATOM      6  H7  <0> d          -5.424   2.960   2.006  0.00  0.00     0.033 H 
BRANCH   4   7
ATOM      7  C2  <0> d          -6.644   4.672   1.503  0.00  0.00    -0.068 C 
ATOM      8  H4  <0> d          -7.405   4.070   0.985  0.00  0.00     0.032 H 
ATOM      9  H5  <0> d          -6.528   5.638   0.989  0.00  0.00     0.032 H 
BRANCH   7  10
ATOM     10  C1  <0> d          -7.081   4.913   2.949  0.00  0.00    -0.077 C 
ATOM     11  H1  <0> d          -8.041   5.450   2.957  0.00  0.00     0.027 H 
ATOM     12  H2  <0> d          -6.320   5.515   3.467  0.00  0.00     0.027 H 
ATOM     13  H3  <0> d          -7.197   3.948   3.463  0.00  0.00     0.027 H 
ENDBRANCH   7  10
ENDBRANCH   4   7
ENDBRANCH   1   4
BRANCH   1  14
ATOM     14  C5  <0> d          -3.555   2.948   0.035  0.00  0.00    -0.022 A 
ATOM     15  C8  <0> d          -2.356   3.643   0.033  0.00  0.00     0.028 A 
ATOM     16  N2  <0> d          -1.219   2.966   0.029  0.00  0.00    -0.075 NA
ATOM     17  H11 <0> d          -2.349   4.723   0.038  0.00  0.00     0.116 H 
ATOM     18  C7  <0> d          -1.219   1.641   0.017  0.00  0.00     0.719 A 
ATOM     19  N1  <0> d          -2.348   0.948   0.018  0.00  0.00    -0.075 NA
ATOM     20  C6  <0> d          -3.519   1.563   0.027  0.00  0.00     0.028 A 
ATOM     21  H10 <0> d          -4.436   0.992   0.029  0.00  0.00     0.116 H 
BRANCH  18  22
ATOM     22  N3  <0> d          -0.011   0.966   0.007  0.00  0.00    -0.231 N 
ATOM     23  H12 <0> d           0.934   1.529   0.006  0.00  0.00     0.174 HD
ATOM     24  H13 <0> d           0.004  -0.134   0.001  0.00  0.00     0.174 HD
ENDBRANCH  18  22
ENDBRANCH   1  14
TORSDOF 5
