REMARK  2 active torsions:
REMARK  status: ('A' for Active; 'I' for Inactive)
REMARK       I    between atoms: N1_3  and  C5_7 
REMARK    1  A    between atoms: C5_7  and  C6_9 
REMARK    2  A    between atoms: C6_9  and  O2_10 
ROOT
ATOM      1  C1  <0> d          -0.018   1.465   0.010  0.00  0.00     0.126 C 
ATOM      2  C2  <0> d           1.421   1.992  -0.001  0.00  0.00     0.022 C 
ATOM      3  N1  <0> d           2.132   1.386  -1.137  0.00  0.00    -0.347 N 
ATOM      4  C3  <0> d           2.082  -0.076  -1.289  0.00  0.00     0.022 C 
ATOM      5  C4  <0> d           0.617  -0.522  -1.228  0.00  0.00     0.126 C 
ATOM      6  N2  <0> d           0.002  -0.004   0.002  0.00  0.00     0.086 N 
ATOM      7  C5  <0> d           2.812   2.150  -2.014  0.00  0.00     0.243 C 
ATOM      8  O1  <0> d           2.843   3.354  -1.873  0.00  0.00    -0.271 OA
ATOM      9  H1  <0> d          -0.527   1.817   0.907  0.00  0.00     0.082 H 
ATOM     10  H2  <0> d          -0.544   1.826  -0.873  0.00  0.00     0.082 H 
ATOM     11  H3  <0> d           1.413   3.076  -0.110  0.00  0.00     0.067 H 
ATOM     12  H4  <0> d           1.918   1.719   0.930  0.00  0.00     0.067 H 
ATOM     13  H5  <0> d           2.510  -0.359  -2.251  0.00  0.00     0.067 H 
ATOM     14  H6  <0> d           2.642  -0.548  -0.482  0.00  0.00     0.067 H 
ATOM     15  H7  <0> d           0.082  -0.133  -2.094  0.00  0.00     0.082 H 
ATOM     16  H8  <0> d           0.568  -1.611  -1.228  0.00  0.00     0.082 H 
ATOM     17  H9  <0> d           0.471  -0.364   0.820  0.00  0.00     0.316 HD
ENDROOT
BRANCH   7  18
ATOM     18  C6  <0> d           3.534   1.508  -3.171  0.00  0.00     0.090 C 
ATOM     19  H10 <0> d           4.282   0.813  -2.792  0.00  0.00     0.088 H 
ATOM     20  H11 <0> d           2.818   0.968  -3.791  0.00  0.00     0.088 H 
BRANCH  18  21
ATOM     21  O2  <0> d           4.174   2.518  -3.953  0.00  0.00    -0.392 OA
ATOM     22  H12 <0> d           4.659   2.176  -4.717  0.00  0.00     0.210 HD
ENDBRANCH  18  21
ENDBRANCH   7  18
TORSDOF 2
