REMARK  4 active torsions:
REMARK  status: ('A' for Active; 'I' for Inactive)
REMARK    1  A    between atoms: C3_4  and  C6_12 
REMARK    2  A    between atoms: C4_6  and  O3_11 
REMARK    3  A    between atoms: C5_8  and  O2_10 
REMARK    4  A    between atoms: C6_12  and  O4_13 
ROOT
ATOM      1  C1  <0> d           3.244   2.034  -1.448  0.00  0.00    -0.052 C 
ATOM      2  C2  <0> d           3.382   3.170  -0.817  0.00  0.00     0.012 C 
ATOM      3  O1  <0> d           2.465   3.656   0.047  0.00  0.00    -0.353 OA
ATOM      4  C3  <0> d           1.151   3.091   0.008  0.00  0.00     0.091 C 
ATOM      5  H1  <0> d           0.636   3.420  -0.895  0.00  0.00     0.091 H 
ATOM      6  C4  <0> d           1.286   1.562  -0.002  0.00  0.00     0.091 C 
ATOM      7  H2  <0> d           1.848   1.237   0.874  0.00  0.00     0.091 H 
ATOM      8  C5  <0> d           2.034   1.156  -1.277  0.00  0.00     0.081 C 
ATOM      9  H3  <0> d           1.376   1.274  -2.137  0.00  0.00     0.093 H 
ATOM     10  H4  <0> d           4.029   1.712  -2.117  0.00  0.00     0.083 H 
ATOM     11  H5  <0> d           4.276   3.750  -0.996  0.00  0.00     0.122 H 
ENDROOT
BRANCH   4  12
ATOM     12  C6  <0> d           0.362   3.531   1.242  0.00  0.00     0.044 C 
ATOM     13  H8  <0> d          -0.596   3.012   1.266  0.00  0.00     0.078 H 
ATOM     14  H9  <0> d           0.929   3.288   2.141  0.00  0.00     0.078 H 
BRANCH  12  15
ATOM     15  O4  <0> d           0.139   4.942   1.187  0.00  0.00    -0.398 OA
ATOM     16  H10 <0> d          -0.357   5.292   1.940  0.00  0.00     0.209 HD
ENDBRANCH  12  15
ENDBRANCH   4  12
BRANCH   6  17
ATOM     17  O3  <0> d          -0.011   0.963   0.007  0.00  0.00    -0.390 OA
ATOM     18  H7  <0> d           0.002  -0.004   0.002  0.00  0.00     0.210 HD
ENDBRANCH   6  17
BRANCH   8  19
ATOM     19  O2  <0> d           2.446  -0.208  -1.174  0.00  0.00    -0.389 OA
ATOM     20  H6  <0> d           2.926  -0.533  -1.948  0.00  0.00     0.210 HD
ENDBRANCH   8  19
TORSDOF 4
