REMARK  0 active torsions:
REMARK  status: ('A' for Active; 'I' for Inactive)
ROOT
ATOM      1  C1  <0> d           2.281   0.956  -0.015  0.00  0.00    -0.065 A 
ATOM      2  C2  <0> d           1.761  -0.266  -0.016  0.00  0.00    -0.043 A 
ATOM      3  S1  <0> d           0.002  -0.004   0.002  0.00  0.00    -0.101 SA
ATOM      4  C3  <0> d          -0.022   1.784   0.012  0.00  0.00     0.022 A 
ATOM      5  C4  <0> d           1.390   2.133   0.000  0.00  0.00    -0.012 A 
ATOM      6  C5  <0> d           1.658   3.515   0.005  0.00  0.00    -0.034 A 
ATOM      7  S2  <0> d           0.046   4.259   0.025  0.00  0.00    -0.111 SA
ATOM      8  C6  <0> d          -0.948   2.784   0.031  0.00  0.00    -0.028 A 
ATOM      9  H1  <0> d           3.352   1.088  -0.024  0.00  0.00     0.085 H 
ATOM     10  H2  <0> d           2.288  -1.209  -0.026  0.00  0.00     0.095 H 
ATOM     11  H3  <0> d           2.620   4.007  -0.001  0.00  0.00     0.096 H 
ATOM     12  H4  <0> d          -2.024   2.701   0.045  0.00  0.00     0.097 H 
ENDROOT
TORSDOF 0
