REMARK  5 active torsions:
REMARK  status: ('A' for Active; 'I' for Inactive)
REMARK    1  A    between atoms: C1_1  and  C2_2 
REMARK    2  A    between atoms: C3_3  and  N3_10 
REMARK    3  A    between atoms: N1_5  and  C5_7 
REMARK    4  A    between atoms: C5_7  and  C6_8 
REMARK    5  A    between atoms: C5_7  and  C7_9 
ROOT
ATOM      1  C2  <0> d          -3.287  -1.292   0.758  0.00  0.00     0.078 A 
ATOM      2  C3  <0> d          -3.357  -1.175  -0.638  0.00  0.00     0.069 A 
ATOM      3  C4  <0> d          -2.167  -0.693  -1.076  0.00  0.00     0.026 A 
ATOM      4  N1  <0> d          -1.372  -0.511   0.012  0.00  0.00    -0.274 N 
ATOM      5  N2  <0> d          -2.099  -0.901   1.145  0.00  0.00    -0.175 NA
ATOM      6  H4  <0> d          -1.900  -0.489  -2.102  0.00  0.00     0.117 H 
ENDROOT
BRANCH   4   7
ATOM      7  C5  <0> d           0.002  -0.004   0.002  0.00  0.00     0.027 C 
ATOM      8  H5  <0> d           0.529  -0.365   0.885  0.00  0.00     0.074 H 
BRANCH   7   9
ATOM      9  C6  <0> d          -0.019   1.526   0.010  0.00  0.00    -0.056 C 
ATOM     10  H6  <0> d           1.004   1.903   0.003  0.00  0.00     0.030 H 
ATOM     11  H7  <0> d          -0.546   1.887  -0.873  0.00  0.00     0.030 H 
ATOM     12  H8  <0> d          -0.529   1.877   0.907  0.00  0.00     0.030 H 
ENDBRANCH   7   9
BRANCH   7  13
ATOM     13  C7  <0> d           0.718  -0.497  -1.257  0.00  0.00    -0.056 C 
ATOM     14  H9  <0> d           1.741  -0.120  -1.264  0.00  0.00     0.030 H 
ATOM     15  H10 <0> d           0.733  -1.587  -1.263  0.00  0.00     0.030 H 
ATOM     16  H11 <0> d           0.191  -0.136  -2.140  0.00  0.00     0.030 H 
ENDBRANCH   7  13
ENDBRANCH   4   7
BRANCH   2  17
ATOM     17  N3  <0> d          -4.466  -1.502  -1.442  0.00  0.00    -0.396 N 
ATOM     18  H12 <0> d          -4.418  -1.386  -2.404  0.00  0.00     0.156 HD
ATOM     19  H13 <0> d          -5.278  -1.842  -1.034  0.00  0.00     0.156 HD
ENDBRANCH   2  17
BRANCH   1  20
ATOM     20  C1  <0> d          -4.388  -1.790   1.658  0.00  0.00    -0.032 C 
ATOM     21  H1  <0> d          -4.299  -2.870   1.777  0.00  0.00     0.035 H 
ATOM     22  H2  <0> d          -4.306  -1.309   2.633  0.00  0.00     0.035 H 
ATOM     23  H3  <0> d          -5.355  -1.551   1.216  0.00  0.00     0.035 H 
ENDBRANCH   1  20
TORSDOF 5
