REMARK  5 active torsions:
REMARK  status: ('A' for Active; 'I' for Inactive)
REMARK    1  A    between atoms: C1_1  and  C2_2 
REMARK    2  A    between atoms: C2_2  and  C3_3 
REMARK    3  A    between atoms: C3_3  and  N1_4 
REMARK    4  A    between atoms: C5_6  and  N3_10 
REMARK    5  A    between atoms: C6_7  and  C7_9 
ROOT
ATOM      1  N1  <0> d           2.072   0.735  -0.014  0.00  0.00    -0.278 N 
ATOM      2  C4  <0> d           1.269   1.832  -0.000  0.00  0.00     0.026 A 
ATOM      3  C5  <0> d          -0.017   1.398   0.010  0.00  0.00     0.069 A 
ATOM      4  C6  <0> d           0.002  -0.004   0.002  0.00  0.00     0.078 A 
ATOM      5  N2  <0> d           1.250  -0.399  -0.012  0.00  0.00    -0.176 NA
ATOM      6  H8  <0> d           1.595   2.861   0.002  0.00  0.00     0.117 H 
ENDROOT
BRANCH   1   7
ATOM      7  C3  <0> d           3.537   0.738  -0.027  0.00  0.00     0.016 C 
ATOM      8  H6  <0> d           3.892   0.309  -0.964  0.00  0.00     0.067 H 
ATOM      9  H7  <0> d           3.899   1.762   0.064  0.00  0.00     0.067 H 
BRANCH   7  10
ATOM     10  C2  <0> d           4.059  -0.094   1.146  0.00  0.00    -0.052 C 
ATOM     11  H4  <0> d           3.704   0.335   2.082  0.00  0.00     0.035 H 
ATOM     12  H5  <0> d           3.697  -1.118   1.054  0.00  0.00     0.035 H 
BRANCH  10  13
ATOM     13  C1  <0> d           5.589  -0.091   1.131  0.00  0.00    -0.075 C 
ATOM     14  H1  <0> d           5.945  -0.520   0.195  0.00  0.00     0.027 H 
ATOM     15  H2  <0> d           5.951   0.933   1.222  0.00  0.00     0.027 H 
ATOM     16  H3  <0> d           5.962  -0.683   1.967  0.00  0.00     0.027 H 
ENDBRANCH  10  13
ENDBRANCH   7  10
ENDBRANCH   1   7
BRANCH   4  17
ATOM     17  C7  <0> d          -1.208  -0.902   0.008  0.00  0.00    -0.032 C 
ATOM     18  H9  <0> d          -1.509  -1.114  -1.018  0.00  0.00     0.035 H 
ATOM     19  H10 <0> d          -0.964  -1.836   0.515  0.00  0.00     0.035 H 
ATOM     20  H11 <0> d          -2.026  -0.407   0.532  0.00  0.00     0.035 H 
ENDBRANCH   4  17
BRANCH   3  21
ATOM     21  N3  <0> d          -1.166   2.211   0.020  0.00  0.00    -0.396 N 
ATOM     22  H12 <0> d          -2.047   1.806   0.022  0.00  0.00     0.156 HD
ATOM     23  H13 <0> d          -1.077   3.177   0.025  0.00  0.00     0.156 HD
ENDBRANCH   3  21
TORSDOF 5
