REMARK  1 active torsions:
REMARK  status: ('A' for Active; 'I' for Inactive)
REMARK    1  A    between atoms: C3_3  and  N5_11 
ROOT
ATOM      1  C1  <0> d          -0.016   1.299   0.009  0.00  0.00     0.039 A 
ATOM      2  C2  <0> d           1.317   1.764  -0.001  0.00  0.00     0.077 A 
ATOM      3  C3  <0> d           2.200   2.930  -0.004  0.00  0.00     0.157 A 
ATOM      4  N1  <0> d           3.432   2.491  -0.018  0.00  0.00    -0.154 NA
ATOM      5  N2  <0> d           3.431   1.093  -0.025  0.00  0.00    -0.259 N 
ATOM      6  H1  <0> d           4.222   0.531  -0.036  0.00  0.00     0.191 HD
ATOM      7  C4  <0> d           2.145   0.643  -0.015  0.00  0.00     0.153 A 
ATOM      8  N3  <0> d           1.330  -0.449  -0.013  0.00  0.00    -0.261 N 
ATOM      9  H2  <0> d           1.619  -1.375  -0.020  0.00  0.00     0.191 HD
ATOM     10  N4  <0> d           0.002  -0.004   0.002  0.00  0.00    -0.184 NA
ATOM     11  H3  <0> d          -0.900   1.918   0.025  0.00  0.00     0.119 H 
ENDROOT
BRANCH   3  12
ATOM     12  N5  <0> d           1.800   4.269   0.007  0.00  0.00    -0.382 N 
ATOM     13  H4  <0> d           0.856   4.493   0.017  0.00  0.00     0.157 HD
ATOM     14  H5  <0> d           2.466   4.974   0.004  0.00  0.00     0.157 HD
ENDBRANCH   3  12
TORSDOF 1
