REMARK  4 active torsions:
REMARK  status: ('A' for Active; 'I' for Inactive)
REMARK    1  A    between atoms: C1_1  and  C2_2 
REMARK    2  A    between atoms: C3_3  and  C5_9 
REMARK    3  A    between atoms: C4_4  and  O1_8 
REMARK    4  A    between atoms: C5_9  and  C6_10 
ROOT
ATOM      1  C2  <0> d          -3.054   0.413   1.112  0.00  0.00     0.035 A 
ATOM      2  C3  <0> d          -2.462   0.945   0.019  0.00  0.00     0.030 A 
ATOM      3  C4  <0> d          -3.091   0.411  -1.115  0.00  0.00     0.190 A 
ATOM      4  N1  <0> d          -4.023  -0.419  -0.711  0.00  0.00    -0.149 NA
ATOM      5  N2  <0> d          -4.020  -0.430   0.690  0.00  0.00    -0.280 N 
ATOM      6  H1  <0> d          -4.626  -0.969   1.275  0.00  0.00     0.189 HD
ENDROOT
BRANCH   2   7
ATOM      7  C5  <0> d          -1.329   1.940   0.019  0.00  0.00     0.045 C 
ATOM      8  H6  <0> d          -1.391   2.561   0.913  0.00  0.00     0.056 H 
ATOM      9  H7  <0> d          -1.400   2.570  -0.867  0.00  0.00     0.056 H 
BRANCH   7  10
ATOM     10  C6  <0> d          -0.014   1.204   0.009  0.00  0.00     0.177 C 
ATOM     11  O2  <0> d           0.002  -0.004   0.002  0.00  0.00    -0.648 OA
ATOM     12  O3  <0> d           1.139   1.891   0.001  0.00  0.00    -0.648 OA
ENDBRANCH   7  10
ENDBRANCH   2   7
BRANCH   1  13
ATOM     13  C1  <0> d          -2.700   0.710   2.547  0.00  0.00    -0.035 C 
ATOM     14  H2  <0> d          -3.292   1.554   2.901  0.00  0.00     0.035 H 
ATOM     15  H3  <0> d          -2.911  -0.166   3.161  0.00  0.00     0.035 H 
ATOM     16  H4  <0> d          -1.640   0.955   2.616  0.00  0.00     0.035 H 
ENDBRANCH   1  13
BRANCH   3  17
ATOM     17  O1  <0> d          -2.787   0.700  -2.409  0.00  0.00    -0.343 OA
ATOM     18  H5  <0> d          -3.388   0.182  -3.017  0.00  0.00     0.219 HD
ENDBRANCH   3  17
TORSDOF 4
