REMARK  4 active torsions:
REMARK  status: ('A' for Active; 'I' for Inactive)
REMARK    1  A    between atoms: C1_1  and  N1_2 
REMARK    2  A    between atoms: C4_6  and  N3_7 
REMARK    3  A    between atoms: N3_7  and  C5_8 
REMARK    4  A    between atoms: C5_8  and  C6_9 
ROOT
ATOM      1  N3  <0> d           1.507   4.238   0.010  0.00  0.00    -0.224 N 
ATOM      2  H6  <0> d           1.126   5.130   0.018  0.00  0.00     0.177 HD
ENDROOT
BRANCH   1   3
ATOM      3  C4  <0> d           0.676   3.130   0.012  0.00  0.00     0.701 A 
ATOM      4  N1  <0> d          -0.684   3.156   0.024  0.00  0.00    -0.195 N 
ATOM      5  C2  <0> d          -1.113   1.848   0.017  0.00  0.00     0.014 A 
ATOM      6  C3  <0> d          -0.013   1.076   0.008  0.00  0.00     0.036 A 
ATOM      7  H4  <0> d          -2.137   1.507   0.019  0.00  0.00     0.114 H 
ATOM      8  N2  <0> d           1.066   1.877   0.002  0.00  0.00    -0.076 NA
ATOM      9  H5  <0> d           0.002  -0.004   0.002  0.00  0.00     0.117 H 
BRANCH   4  10
ATOM     10  C1  <0> d          -1.533   4.350   0.038  0.00  0.00     0.002 C 
ATOM     11  H1  <0> d          -1.753   4.652  -0.986  0.00  0.00     0.058 H 
ATOM     12  H2  <0> d          -2.464   4.128   0.559  0.00  0.00     0.058 H 
ATOM     13  H3  <0> d          -1.013   5.159   0.551  0.00  0.00     0.058 H 
ENDBRANCH   4  10
ENDBRANCH   1   3
BRANCH   1  14
ATOM     14  C5  <0> d           2.961   4.062  -0.004  0.00  0.00     0.013 C 
ATOM     15  H7  <0> d           3.268   3.503   0.880  0.00  0.00     0.065 H 
ATOM     16  H8  <0> d           3.252   3.513  -0.899  0.00  0.00     0.065 H 
BRANCH  14  17
ATOM     17  C6  <0> d           3.641   5.433  -0.003  0.00  0.00    -0.038 A 
ATOM     18  C8  <0> d           5.167   5.465   0.102  0.00  0.00    -0.060 A 
ATOM     19  C7  <0> d           4.484   5.804  -1.224  0.00  0.00    -0.060 A 
ATOM     20  H12 <0> d           5.616   6.285   0.662  0.00  0.00     0.033 H 
ATOM     21  H13 <0> d           5.687   4.509   0.171  0.00  0.00     0.033 H 
ATOM     22  H10 <0> d           4.555   5.072  -2.029  0.00  0.00     0.033 H 
ATOM     23  H11 <0> d           4.484   6.848  -1.537  0.00  0.00     0.033 H 
ATOM     24  H9  <0> d           3.086   6.232   0.488  0.00  0.00     0.042 H 
ENDBRANCH  14  17
ENDBRANCH   1  14
TORSDOF 4
