REMARK  3 active torsions:
REMARK  status: ('A' for Active; 'I' for Inactive)
REMARK    1  A    between atoms: C1_1  and  C2_2 
REMARK    2  A    between atoms: C4_5  and  C5_7 
REMARK    3  A    between atoms: C5_7  and  C6_8 
ROOT
ATOM      1  C2  <0> d          -4.424  -0.775  -0.428  0.00  0.00     0.071 A 
ATOM      2  N1  <0> d          -4.079  -0.484   0.804  0.00  0.00    -0.258 NA
ATOM      3  C3  <0> d          -3.108   0.367   1.063  0.00  0.00     0.016 A 
ATOM      4  C4  <0> d          -2.462   0.945   0.019  0.00  0.00     0.012 A 
ATOM      5  S1  <0> d          -3.331   0.205  -1.356  0.00  0.00    -0.078 SA
ATOM      6  H4  <0> d          -2.833   0.599   2.081  0.00  0.00     0.116 H 
ENDROOT
BRANCH   4   7
ATOM      7  C5  <0> d          -1.329   1.940   0.019  0.00  0.00     0.047 C 
ATOM      8  H5  <0> d          -1.391   2.561   0.913  0.00  0.00     0.057 H 
ATOM      9  H6  <0> d          -1.400   2.570  -0.867  0.00  0.00     0.057 H 
BRANCH   7  10
ATOM     10  C6  <0> d          -0.014   1.204   0.009  0.00  0.00     0.177 C 
ATOM     11  O1  <0> d           0.002  -0.004   0.002  0.00  0.00    -0.648 OA
ATOM     12  O2  <0> d           1.139   1.891   0.001  0.00  0.00    -0.648 OA
ENDBRANCH   7  10
ENDBRANCH   4   7
BRANCH   1  13
ATOM     13  C1  <0> d          -5.498  -1.715  -0.914  0.00  0.00    -0.029 C 
ATOM     14  H1  <0> d          -6.435  -1.169  -1.024  0.00  0.00     0.036 H 
ATOM     15  H2  <0> d          -5.206  -2.133  -1.877  0.00  0.00     0.036 H 
ATOM     16  H3  <0> d          -5.629  -2.521  -0.192  0.00  0.00     0.036 H 
ENDBRANCH   1  13
TORSDOF 3
