REMARK  4 active torsions:
REMARK  status: ('A' for Active; 'I' for Inactive)
REMARK    1  A    between atoms: C1_1  and  C2_2 
REMARK    2  A    between atoms: C3_3  and  C6_8 
REMARK    3  A    between atoms: N1_5  and  C5_7 
REMARK    4  A    between atoms: C6_8  and  C7_9 
ROOT
ATOM      1  C2  <0> d           0.002  -0.004   0.002  0.00  0.00     0.059 A 
ATOM      2  C3  <0> d           0.008  -0.818  -1.135  0.00  0.00    -0.005 A 
ATOM      3  C4  <0> d           0.028  -2.107  -0.725  0.00  0.00     0.006 A 
ATOM      4  N1  <0> d           0.034  -2.109   0.625  0.00  0.00    -0.284 N 
ATOM      5  N2  <0> d           0.023  -0.777   1.058  0.00  0.00    -0.178 NA
ATOM      6  H4  <0> d           0.037  -2.978  -1.363  0.00  0.00     0.115 H 
ENDROOT
BRANCH   2   7
ATOM      7  C6  <0> d          -0.006  -0.343  -2.566  0.00  0.00     0.043 C 
ATOM      8  H8  <0> d          -0.432  -1.119  -3.202  0.00  0.00     0.056 H 
ATOM      9  H9  <0> d          -0.609   0.562  -2.642  0.00  0.00     0.056 H 
BRANCH   7  10
ATOM     10  C7  <0> d           1.403  -0.047  -3.010  0.00  0.00     0.177 C 
ATOM     11  O1  <0> d           2.333  -0.206  -2.238  0.00  0.00    -0.648 OA
ATOM     12  O2  <0> d           1.613   0.353  -4.143  0.00  0.00    -0.648 OA
ENDBRANCH   7  10
ENDBRANCH   2   7
BRANCH   1  13
ATOM     13  C1  <0> d          -0.018   1.503   0.010  0.00  0.00    -0.033 C 
ATOM     14  H1  <0> d           1.004   1.880   0.003  0.00  0.00     0.035 H 
ATOM     15  H2  <0> d          -0.545   1.864  -0.873  0.00  0.00     0.035 H 
ATOM     16  H3  <0> d          -0.529   1.854   0.907  0.00  0.00     0.035 H 
ENDBRANCH   1  13
BRANCH   4  17
ATOM     17  C5  <0> d           0.055  -3.295   1.485  0.00  0.00     0.002 C 
ATOM     18  H5  <0> d           1.087  -3.575   1.693  0.00  0.00     0.059 H 
ATOM     19  H6  <0> d          -0.458  -3.073   2.421  0.00  0.00     0.059 H 
ATOM     20  H7  <0> d          -0.450  -4.119   0.980  0.00  0.00     0.059 H 
ENDBRANCH   4  17
TORSDOF 4
