REMARK  5 active torsions:
REMARK  status: ('A' for Active; 'I' for Inactive)
REMARK    1  A    between atoms: C1_1  and  C2_2 
REMARK    2  A    between atoms: C2_2  and  O1_3 
REMARK    3  A    between atoms: O1_3  and  C3_4 
REMARK    4  A    between atoms: C3_4  and  C4_6 
REMARK    5  A    between atoms: C6_9  and  C7_11 
ROOT
ATOM      1  C4  <0> d          -0.019   1.526   0.010  0.00  0.00     0.034 A 
ATOM      2  H1  <0> d          -0.307   2.020   0.938  0.00  0.00     0.056 H 
ATOM      3  C5  <0> d           0.002  -0.004   0.002  0.00  0.00    -0.049 A 
ATOM      4  C6  <0> d           1.317   0.779  -0.006  0.00  0.00    -0.045 A 
ATOM      5  H2  <0> d           1.906   0.782   0.910  0.00  0.00     0.040 H 
ATOM      6  H8  <0> d          -0.273  -0.516   0.924  0.00  0.00     0.034 H 
ATOM      7  H9  <0> d          -0.290  -0.506  -0.920  0.00  0.00     0.034 H 
ENDROOT
BRANCH   1   8
ATOM      8  C3  <0> d          -0.442   2.223  -1.257  0.00  0.00     0.263 C 
ATOM      9  O2  <0> d           0.265   2.178  -2.236  0.00  0.00    -0.265 OA
BRANCH   8  10
ATOM     10  O1  <0> d          -1.604   2.893  -1.298  0.00  0.00    -0.322 OA
BRANCH  10  11
ATOM     11  C2  <0> d          -1.948   3.541  -2.551  0.00  0.00     0.025 C 
ATOM     12  H6  <0> d          -1.179   4.271  -2.806  0.00  0.00     0.074 H 
ATOM     13  H7  <0> d          -2.014   2.792  -3.341  0.00  0.00     0.074 H 
BRANCH  11  14
ATOM     14  C1  <0> d          -3.296   4.249  -2.407  0.00  0.00    -0.056 C 
ATOM     15  H3  <0> d          -3.230   4.998  -1.617  0.00  0.00     0.030 H 
ATOM     16  H4  <0> d          -3.554   4.735  -3.348  0.00  0.00     0.030 H 
ATOM     17  H5  <0> d          -4.064   3.519  -2.152  0.00  0.00     0.030 H 
ENDBRANCH  11  14
ENDBRANCH  10  11
ENDBRANCH   8  10
ENDBRANCH   1   8
BRANCH   4  18
ATOM     18  C7  <0> d           2.120   0.797  -1.308  0.00  0.00    -0.072 C 
ATOM     19  H10 <0> d           2.362   1.827  -1.571  0.00  0.00     0.028 H 
ATOM     20  H11 <0> d           3.041   0.229  -1.175  0.00  0.00     0.028 H 
ATOM     21  H12 <0> d           1.528   0.348  -2.106  0.00  0.00     0.028 H 
ENDBRANCH   4  18
TORSDOF 5
