REMARK  2 active torsions:
REMARK  status: ('A' for Active; 'I' for Inactive)
REMARK    1  A    between atoms: C3_3  and  N1_10 
REMARK    2  A    between atoms: C6_6  and  C7_7 
ROOT
ATOM      1  C1  <0> d          -0.017   1.395   0.010  0.00  0.00    -0.064 A 
ATOM      2  C2  <0> d           1.157   2.093   0.002  0.00  0.00    -0.057 A 
ATOM      3  C3  <0> d           2.373   1.413  -0.013  0.00  0.00     0.025 A 
ATOM      4  C4  <0> d           2.396   0.020  -0.021  0.00  0.00    -0.057 A 
ATOM      5  C5  <0> d           1.226  -0.684  -0.014  0.00  0.00    -0.064 A 
ATOM      6  C6  <0> d           0.002  -0.004   0.002  0.00  0.00     0.041 A 
ATOM      7  H1  <0> d          -0.959   1.923   0.026  0.00  0.00     0.085 H 
ATOM      8  H2  <0> d           1.144   3.173   0.008  0.00  0.00     0.086 H 
ATOM      9  H3  <0> d           3.340  -0.504  -0.033  0.00  0.00     0.086 H 
ATOM     10  H4  <0> d           1.244  -1.764  -0.021  0.00  0.00     0.085 H 
ENDROOT
BRANCH   3  11
ATOM     11  N1  <0> d           3.565   2.125  -0.021  0.00  0.00    -0.399 N 
ATOM     12  H5  <0> d           3.551   3.095  -0.015  0.00  0.00     0.156 HD
ATOM     13  H6  <0> d           4.413   1.653  -0.031  0.00  0.00     0.156 HD
ENDBRANCH   3  11
BRANCH   6  14
ATOM     14  C7  <0> d          -1.261  -0.759   0.011  0.00  0.00     0.209 C 
ATOM     15  O1  <0> d          -2.329  -0.163   0.024  0.00  0.00    -0.644 OA
ATOM     16  O2  <0> d          -1.243  -1.982   0.004  0.00  0.00    -0.644 OA
ENDBRANCH   6  14
TORSDOF 2
