REMARK  0 active torsions:
REMARK  status: ('A' for Active; 'I' for Inactive)
ROOT
ATOM      1  C1  <0> d          -1.514   4.347   0.038  0.00  0.00    -0.067 A 
ATOM      2  C2  <0> d          -1.159   5.662   0.042  0.00  0.00    -0.034 A 
ATOM      3  C3  <0> d           0.139   6.217   0.032  0.00  0.00     0.172 A 
ATOM      4  O1  <0> d           0.188   7.439   0.038  0.00  0.00    -0.289 OA
ATOM      5  C4  <0> d           1.385   5.560   0.017  0.00  0.00    -0.032 A 
ATOM      6  C5  <0> d           1.646   4.221   0.008  0.00  0.00    -0.046 A 
ATOM      7  C6  <0> d           0.732   3.160   0.011  0.00  0.00     0.085 A 
ATOM      8  C7  <0> d          -0.671   3.222   0.025  0.00  0.00    -0.000 A 
ATOM      9  C8  <0> d          -1.125   1.831   0.017  0.00  0.00    -0.049 A 
ATOM     10  C9  <0> d          -0.013   1.076   0.008  0.00  0.00     0.020 A 
ATOM     11  O2  <0> d           1.077   1.859   0.002  0.00  0.00    -0.322 OA
ATOM     12  H1  <0> d          -2.575   4.144   0.047  0.00  0.00     0.085 H 
ATOM     13  H2  <0> d          -1.974   6.370   0.053  0.00  0.00     0.089 H 
ATOM     14  H3  <0> d           2.251   6.205   0.012  0.00  0.00     0.089 H 
ATOM     15  H4  <0> d           2.690   3.945  -0.002  0.00  0.00     0.087 H 
ATOM     16  H5  <0> d          -2.147   1.482   0.019  0.00  0.00     0.087 H 
ATOM     17  H6  <0> d           0.002  -0.004   0.002  0.00  0.00     0.123 H 
ENDROOT
TORSDOF 0
