REMARK  2 active torsions:
REMARK  status: ('A' for Active; 'I' for Inactive)
REMARK    1  A    between atoms: C1_1  and  N1_2 
REMARK    2  A    between atoms: N2_5  and  C5_9 
ROOT
ATOM      1  N1  <0> d          -0.018   1.481   0.010  0.00  0.00     0.191 N 
ATOM      2  C2  <0> d           1.412   1.871  -0.001  0.00  0.00     0.147 C 
ATOM      3  C3  <0> d           2.164   0.671  -0.610  0.00  0.00     0.147 C 
ATOM      4  N2  <0> d           1.123  -0.340  -0.913  0.00  0.00     0.191 N 
ATOM      5  C4  <0> d           0.002  -0.004   0.002  0.00  0.00     0.645 C 
ATOM      6  F1  <0> d           0.252  -0.499   1.286  0.00  0.00    -0.147 F 
ATOM      7  F2  <0> d          -1.205  -0.509  -0.494  0.00  0.00    -0.147 F 
ATOM      8  H4  <0> d           1.541   2.776  -0.613  0.00  0.00     0.083 H 
ATOM      9  H5  <0> d           1.746   2.073   1.027  0.00  0.00     0.083 H 
ATOM     10  H6  <0> d           2.689   0.992  -1.521  0.00  0.00     0.083 H 
ATOM     11  H7  <0> d           2.894   0.289   0.119  0.00  0.00     0.083 H 
ENDROOT
BRANCH   1  12
ATOM     12  C1  <0> d          -0.693   1.992   1.211  0.00  0.00     0.105 C 
ATOM     13  H1  <0> d          -0.694   3.092   1.191  0.00  0.00     0.072 H 
ATOM     14  H2  <0> d          -0.161   1.641   2.108  0.00  0.00     0.072 H 
ATOM     15  H3  <0> d          -1.730   1.625   1.233  0.00  0.00     0.072 H 
ENDBRANCH   1  12
BRANCH   4  16
ATOM     16  C5  <0> d           1.620  -1.699  -0.661  0.00  0.00     0.105 C 
ATOM     17  H8  <0> d           0.829  -2.427  -0.894  0.00  0.00     0.072 H 
ATOM     18  H9  <0> d           1.906  -1.794   0.397  0.00  0.00     0.072 H 
ATOM     19  H10 <0> d           2.496  -1.893  -1.297  0.00  0.00     0.072 H 
ENDBRANCH   4  16
TORSDOF 2
