REMARK  4 active torsions:
REMARK  status: ('A' for Active; 'I' for Inactive)
REMARK    1  A    between atoms: C1_1  and  O1_2 
REMARK    2  A    between atoms: O1_2  and  C2_3 
REMARK    3  A    between atoms: C2_3  and  C3_4 
REMARK    4  A    between atoms: C4_7  and  O2_8 
ROOT
ATOM      1  C3  <0> d           0.633  -2.085   1.012  0.00  0.00     0.055 A 
ATOM      2  N1  <0> d           1.165  -2.961   1.890  0.00  0.00    -0.278 N 
ATOM      3  N2  <0> d           0.909  -4.255   1.420  0.00  0.00    -0.149 NA
ATOM      4  C4  <0> d           0.243  -4.157   0.295  0.00  0.00     0.183 A 
ATOM      5  C5  <0> d           0.052  -2.795   0.018  0.00  0.00    -0.005 A 
ATOM      6  H6  <0> d           1.642  -2.734   2.704  0.00  0.00     0.189 HD
ATOM      7  H8  <0> d          -0.465  -2.386  -0.837  0.00  0.00     0.093 H 
ENDROOT
BRANCH   1   8
ATOM      8  C2  <0> d           0.673  -0.582   1.123  0.00  0.00     0.058 C 
ATOM      9  H4  <0> d           1.710  -0.247   1.139  0.00  0.00     0.084 H 
ATOM     10  H5  <0> d           0.177  -0.273   2.043  0.00  0.00     0.084 H 
BRANCH   8  11
ATOM     11  O1  <0> d           0.002  -0.004   0.002  0.00  0.00    -0.390 OA
BRANCH  11  12
ATOM     12  C1  <0> d          -0.017   1.425   0.010  0.00  0.00     0.004 C 
ATOM     13  H1  <0> d           1.005   1.802   0.002  0.00  0.00     0.066 H 
ATOM     14  H2  <0> d          -0.544   1.786  -0.873  0.00  0.00     0.066 H 
ATOM     15  H3  <0> d          -0.527   1.776   0.907  0.00  0.00     0.066 H 
ENDBRANCH  11  12
ENDBRANCH   8  11
ENDBRANCH   1   8
BRANCH   4  16
ATOM     16  O2  <0> d          -0.191  -5.195  -0.469  0.00  0.00    -0.344 OA
ATOM     17  H7  <0> d          -1.077  -5.508  -0.241  0.00  0.00     0.219 HD
ENDBRANCH   4  16
TORSDOF 4
