REMARK  1 active torsions:
REMARK  status: ('A' for Active; 'I' for Inactive)
REMARK    1  A    between atoms: C4_4  and  C8_9 
ROOT
ATOM      1  C1  <0> d          -1.244   3.494   0.032  0.00  0.00    -0.082 A 
ATOM      2  C2  <0> d          -0.058   4.207   0.025  0.00  0.00    -0.082 A 
ATOM      3  C3  <0> d           1.155   3.546   0.010  0.00  0.00    -0.065 A 
ATOM      4  C4  <0> d           1.190   2.153   0.002  0.00  0.00     0.061 A 
ATOM      5  C5  <0> d          -0.017   1.428   0.010  0.00  0.00     0.061 A 
ATOM      6  C6  <0> d          -1.231   2.113   0.019  0.00  0.00    -0.062 A 
ATOM      7  C7  <0> d           0.002  -0.004   0.002  0.00  0.00     0.100 C 
ATOM      8  N1  <0> d           0.018  -1.140  -0.004  0.00  0.00    -0.191 NA
ATOM      9  H1  <0> d          -2.187   4.021   0.043  0.00  0.00     0.083 H 
ATOM     10  H2  <0> d          -0.080   5.286   0.031  0.00  0.00     0.083 H 
ATOM     11  H3  <0> d           2.077   4.109   0.004  0.00  0.00     0.085 H 
ATOM     12  H4  <0> d          -2.161   1.563   0.020  0.00  0.00     0.085 H 
ENDROOT
BRANCH   4  13
ATOM     13  C8  <0> d           2.484   1.442  -0.015  0.00  0.00     0.210 C 
ATOM     14  O1  <0> d           2.510   0.227  -0.022  0.00  0.00    -0.644 OA
ATOM     15  O2  <0> d           3.636   2.140  -0.022  0.00  0.00    -0.644 OA
ENDBRANCH   4  13
TORSDOF 1
