REMARK  1 active torsions:
REMARK  status: ('A' for Active; 'I' for Inactive)
REMARK    1  A    between atoms: C1_1  and  C2_2 
ROOT
ATOM      1  C2  <0> d           1.222   1.867   0.000  0.00  0.00     0.049 A 
ATOM      2  C3  <0> d           2.172   0.959  -0.013  0.00  0.00    -0.066 A 
ATOM      3  C4  <0> d           1.470  -0.386  -0.014  0.00  0.00     0.034 A 
ATOM      4  C5  <0> d           0.002  -0.004   0.002  0.00  0.00     0.267 A 
ATOM      5  O1  <0> d          -0.949  -0.750   0.007  0.00  0.00    -0.265 OA
ATOM      6  O2  <0> d          -0.016   1.339   0.009  0.00  0.00    -0.284 OA
ATOM      7  H4  <0> d           3.237   1.134  -0.023  0.00  0.00     0.081 H 
ATOM      8  H5  <0> d           1.730  -0.957   0.877  0.00  0.00     0.054 H 
ATOM      9  H6  <0> d           1.712  -0.950  -0.915  0.00  0.00     0.054 H 
ENDROOT
BRANCH   1  10
ATOM     10  C1  <0> d           1.491   3.350   0.006  0.00  0.00    -0.032 C 
ATOM     11  H1  <0> d           0.545   3.891   0.018  0.00  0.00     0.036 H 
ATOM     12  H2  <0> d           2.070   3.611   0.891  0.00  0.00     0.036 H 
ATOM     13  H3  <0> d           2.053   3.620  -0.888  0.00  0.00     0.036 H 
ENDBRANCH   1  10
TORSDOF 1
