REMARK  3 active torsions:
REMARK  status: ('A' for Active; 'I' for Inactive)
REMARK    1  A    between atoms: C1_1  and  N1_2 
REMARK    2  A    between atoms: C3_5  and  C5_8 
REMARK    3  A    between atoms: C4_6  and  N3_7 
ROOT
ATOM      1  N1  <0> d          -3.446   2.386   0.031  0.00  0.00    -0.330 N 
ATOM      2  C2  <0> d          -2.731   3.549   0.034  0.00  0.00     0.068 A 
ATOM      3  N2  <0> d          -1.461   3.277   0.026  0.00  0.00    -0.233 NA
ATOM      4  C3  <0> d          -1.291   1.927   0.019  0.00  0.00     0.177 A 
ATOM      5  C4  <0> d          -2.556   1.353   0.016  0.00  0.00     0.138 A 
ATOM      6  H4  <0> d          -3.156   4.541   0.040  0.00  0.00     0.143 H 
ENDROOT
BRANCH   1   7
ATOM      7  C1  <0> d          -4.906   2.269   0.037  0.00  0.00    -0.012 C 
ATOM      8  H1  <0> d          -5.273   2.246  -0.989  0.00  0.00     0.057 H 
ATOM      9  H2  <0> d          -5.195   1.350   0.547  0.00  0.00     0.057 H 
ATOM     10  H3  <0> d          -5.337   3.124   0.557  0.00  0.00     0.057 H 
ENDBRANCH   1   7
BRANCH   5  11
ATOM     11  N3  <0> d          -2.853   0.006   0.004  0.00  0.00    -0.383 N 
ATOM     12  H5  <0> d          -2.137  -0.648  -0.004  0.00  0.00     0.157 HD
ATOM     13  H6  <0> d          -3.778  -0.286   0.003  0.00  0.00     0.157 HD
ENDBRANCH   5  11
BRANCH   4  14
ATOM     14  C5  <0> d          -0.014   1.212   0.009  0.00  0.00     0.232 C 
ATOM     15  O1  <0> d           0.002  -0.004   0.002  0.00  0.00    -0.643 OA
ATOM     16  O2  <0> d           1.145   1.903   0.001  0.00  0.00    -0.643 OA
ENDBRANCH   4  14
TORSDOF 3
