REMARK  2 active torsions:
REMARK  status: ('A' for Active; 'I' for Inactive)
REMARK    1  A    between atoms: C1_1  and  C2_2 
REMARK    2  A    between atoms: C5_5  and  C8_8 
ROOT
ATOM      1  C2  <0> d          -0.729   1.579   1.267  0.00  0.00    -0.058 C 
ATOM      2  C3  <0> d          -0.013   1.086   0.008  0.00  0.00    -0.061 C 
ATOM      3  C4  <0> d          -0.753   1.593  -1.232  0.00  0.00    -0.052 C 
ATOM      4  C5  <0> d          -2.188   1.063  -1.221  0.00  0.00     0.030 C 
ATOM      5  C6  <0> d          -2.904   1.556   0.038  0.00  0.00    -0.052 C 
ATOM      6  C7  <0> d          -2.164   1.050   1.278  0.00  0.00    -0.061 C 
ATOM      7  H4  <0> d          -0.197   1.215   2.158  0.00  0.00     0.039 H 
ATOM      8  H5  <0> d           1.019   1.466   0.000  0.00  0.00     0.033 H 
ATOM      9  H6  <0> d           0.002  -0.014   0.002  0.00  0.00     0.033 H 
ATOM     10  H7  <0> d          -0.768   2.693  -1.225  0.00  0.00     0.034 H 
ATOM     11  H8  <0> d          -0.238   1.238  -2.137  0.00  0.00     0.034 H 
ATOM     12  H9  <0> d          -2.181  -0.037  -1.240  0.00  0.00     0.056 H 
ATOM     13  H10 <0> d          -2.919   2.656   0.044  0.00  0.00     0.034 H 
ATOM     14  H11 <0> d          -3.936   1.176   0.046  0.00  0.00     0.034 H 
ATOM     15  H12 <0> d          -2.149  -0.050   1.272  0.00  0.00     0.033 H 
ATOM     16  H13 <0> d          -2.679   1.405   2.183  0.00  0.00     0.033 H 
ENDROOT
BRANCH   1  17
ATOM     17  C1  <0> d          -0.750   3.109   1.275  0.00  0.00    -0.073 C 
ATOM     18  H1  <0> d           0.282   3.490   1.267  0.00  0.00     0.028 H 
ATOM     19  H2  <0> d          -1.264   3.464   2.180  0.00  0.00     0.028 H 
ATOM     20  H3  <0> d          -1.282   3.473   0.384  0.00  0.00     0.028 H 
ENDBRANCH   1  17
BRANCH   4  21
ATOM     21  C8  <0> d          -2.917   1.562  -2.442  0.00  0.00     0.177 C 
ATOM     22  O1  <0> d          -2.347   2.269  -3.239  0.00  0.00    -0.648 OA
ATOM     23  O2  <0> d          -4.199   1.222  -2.644  0.00  0.00    -0.648 OA
ENDBRANCH   4  21
TORSDOF 2
