REMARK  1 active torsions:
REMARK  status: ('A' for Active; 'I' for Inactive)
REMARK    1  A    between atoms: C3_5  and  C4_7 
REMARK       I    between atoms: C4_7  and  N3_9 
ROOT
ATOM      1  C1  <0> d          -0.691   3.438   0.027  0.00  0.00     0.067 A 
ATOM      2  N1  <0> d          -1.117   2.145   0.018  0.00  0.00    -0.325 N 
ATOM      3  H1  <0> d          -2.069   1.838   0.018  0.00  0.00     0.169 HD
ATOM      4  C2  <0> d          -0.016   1.347   0.009  0.00  0.00     0.224 A 
ATOM      5  C3  <0> d           1.077   2.186   0.004  0.00  0.00     0.181 A 
ATOM      6  N2  <0> d           0.609   3.462   0.015  0.00  0.00    -0.234 NA
ATOM      7  F1  <0> d           0.002  -0.004   0.002  0.00  0.00    -0.183 F 
ATOM      8  H2  <0> d          -1.332   4.307   0.038  0.00  0.00     0.143 H 
ENDROOT
BRANCH   5   9
ATOM      9  C4  <0> d           2.489   1.777  -0.011  0.00  0.00     0.272 C 
ATOM     10  O1  <0> d           2.780   0.596  -0.020  0.00  0.00    -0.266 OA
ATOM     11  N3  <0> d           3.461   2.711  -0.016  0.00  0.00    -0.365 N 
ATOM     12  H3  <0> d           3.229   3.652  -0.009  0.00  0.00     0.159 HD
ATOM     13  H4  <0> d           4.393   2.441  -0.026  0.00  0.00     0.159 HD
ENDBRANCH   5   9
TORSDOF 1
