REMARK  4 active torsions:
REMARK  status: ('A' for Active; 'I' for Inactive)
REMARK    1  A    between atoms: C1_1  and  C2_2 
REMARK    2  A    between atoms: C2_2  and  O2_4 
REMARK    3  A    between atoms: O2_4  and  C3_5 
REMARK    4  A    between atoms: C3_5  and  C4_6 
ROOT
ATOM      1  C3  <0> d          -1.057  -2.117   0.001  0.00  0.00     0.073 C 
ATOM      2  H4  <0> d          -0.529  -2.441  -0.896  0.00  0.00     0.085 H 
ATOM      3  H5  <0> d          -0.512  -2.450   0.884  0.00  0.00     0.085 H 
ENDROOT
BRANCH   1   4
ATOM      4  O2  <0> d          -1.151  -0.691   0.009  0.00  0.00    -0.315 OA
BRANCH   4   5
ATOM      5  C2  <0> d           0.002  -0.004   0.002  0.00  0.00     0.255 C 
ATOM      6  O1  <0> d           1.056  -0.594  -0.011  0.00  0.00    -0.266 OA
BRANCH   5   7
ATOM      7  C1  <0> d          -0.018   1.503   0.010  0.00  0.00     0.004 C 
ATOM      8  H1  <0> d           1.004   1.880   0.003  0.00  0.00     0.041 H 
ATOM      9  H2  <0> d          -0.545   1.864  -0.873  0.00  0.00     0.041 H 
ATOM     10  H3  <0> d          -0.529   1.854   0.907  0.00  0.00     0.041 H 
ENDBRANCH   5   7
ENDBRANCH   4   5
ENDBRANCH   1   4
BRANCH   1  11
ATOM     11  C4  <0> d          -2.442  -2.712   0.011  0.00  0.00     0.076 A 
ATOM     12  O3  <0> d          -3.153  -3.028   1.105  0.00  0.00    -0.325 OA
ATOM     13  C7  <0> d          -4.342  -3.531   0.737  0.00  0.00     0.019 A 
ATOM     14  C6  <0> d          -4.398  -3.550  -0.607  0.00  0.00    -0.059 A 
ATOM     15  H8  <0> d          -5.120  -3.868   1.406  0.00  0.00     0.123 H 
ATOM     16  C5  <0> d          -3.173  -3.021  -1.075  0.00  0.00    -0.050 A 
ATOM     17  H7  <0> d          -5.221  -3.900  -1.212  0.00  0.00     0.086 H 
ATOM     18  H6  <0> d          -2.880  -2.891  -2.107  0.00  0.00     0.087 H 
ENDBRANCH   1  11
TORSDOF 4
