REMARK  1 active torsions:
REMARK  status: ('A' for Active; 'I' for Inactive)
REMARK    1  A    between atoms: C2_2  and  C3_3 
REMARK       I    between atoms: C3_3  and  N1_5 
ROOT
ATOM      1  C1  <0> d          -2.237  -1.338   0.016  0.00  0.00    -0.144 C 
ATOM      2  C2  <0> d          -1.228  -0.737   0.010  0.00  0.00    -0.016 C 
ATOM      3  H1  <0> d          -3.139  -1.875   0.022  0.00  0.00     0.167 H 
ENDROOT
BRANCH   2   4
ATOM      4  C3  <0> d           0.002  -0.004   0.002  0.00  0.00     0.297 C 
ATOM      5  O1  <0> d           1.063  -0.598  -0.011  0.00  0.00    -0.258 OA
ATOM      6  N1  <0> d          -0.016   1.344   0.009  0.00  0.00    -0.341 N 
ATOM      7  C8  <0> d           1.238   2.109   0.002  0.00  0.00    -0.002 C 
ATOM      8  C4  <0> d          -1.290   2.075   0.019  0.00  0.00    -0.002 C 
ATOM      9  C7  <0> d           1.221   3.095   1.174  0.00  0.00    -0.050 C 
ATOM     10  H10 <0> d           2.082   1.429   0.108  0.00  0.00     0.064 H 
ATOM     11  H11 <0> d           1.326   2.656  -0.937  0.00  0.00     0.064 H 
ATOM     12  C6  <0> d          -0.042   3.956   1.094  0.00  0.00    -0.062 C 
ATOM     13  H8  <0> d           1.226   2.542   2.114  0.00  0.00     0.035 H 
ATOM     14  H9  <0> d           2.102   3.735   1.124  0.00  0.00     0.035 H 
ATOM     15  C5  <0> d          -1.279   3.061   1.198  0.00  0.00    -0.050 C 
ATOM     16  H6  <0> d          -0.044   4.675   1.913  0.00  0.00     0.033 H 
ATOM     17  H7  <0> d          -0.058   4.489   0.143  0.00  0.00     0.033 H 
ATOM     18  H4  <0> d          -1.251   2.509   2.137  0.00  0.00     0.035 H 
ATOM     19  H5  <0> d          -2.177   3.677   1.164  0.00  0.00     0.035 H 
ATOM     20  H2  <0> d          -1.405   2.621  -0.917  0.00  0.00     0.064 H 
ATOM     21  H3  <0> d          -2.115   1.371   0.138  0.00  0.00     0.064 H 
ENDBRANCH   2   4
TORSDOF 1
