REMARK  0 active torsions:
REMARK  status: ('A' for Active; 'I' for Inactive)
ROOT
ATOM      1  C1  <0> d           3.099   3.749  -0.008  0.00  0.00    -0.062 A 
ATOM      2  C2  <0> d           1.765   4.102   0.006  0.00  0.00    -0.073 A 
ATOM      3  C3  <0> d           0.784   3.127   0.011  0.00  0.00    -0.030 A 
ATOM      4  C4  <0> d           1.122   1.781   0.001  0.00  0.00     0.035 A 
ATOM      5  C5  <0> d           2.468   1.419  -0.014  0.00  0.00    -0.037 A 
ATOM      6  C6  <0> d           3.457   2.400  -0.019  0.00  0.00     0.046 A 
ATOM      7  C7  <0> d           4.839   2.024  -0.033  0.00  0.00     0.099 C 
ATOM      8  N1  <0> d           5.935   1.727  -0.045  0.00  0.00    -0.191 NA
ATOM      9  N2  <0> d          -0.011   0.966   0.007  0.00  0.00    -0.389 N 
ATOM     10  C8  <0> d          -1.223   1.789   0.017  0.00  0.00    -0.004 A 
ATOM     11  C9  <0> d          -0.724   3.243   0.025  0.00  0.00    -0.024 A 
ATOM     12  H1  <0> d           3.862   4.513  -0.012  0.00  0.00     0.085 H 
ATOM     13  H2  <0> d           1.486   5.145   0.014  0.00  0.00     0.084 H 
ATOM     14  H3  <0> d           2.745   0.375  -0.021  0.00  0.00     0.089 H 
ATOM     15  H4  <0> d           0.002  -0.004   0.002  0.00  0.00     0.159 HD
ATOM     16  H5  <0> d          -1.818   1.597  -0.876  0.00  0.00     0.064 H 
ATOM     17  H6  <0> d          -1.810   1.587   0.913  0.00  0.00     0.064 H 
ATOM     18  H7  <0> d          -1.057   3.757   0.927  0.00  0.00     0.042 H 
ATOM     19  H8  <0> d          -1.074   3.767  -0.864  0.00  0.00     0.042 H 
ENDROOT
TORSDOF 0
