REMARK  4 active torsions:
REMARK  status: ('A' for Active; 'I' for Inactive)
REMARK    1  A    between atoms: C3_3  and  C4_4 
REMARK    2  A    between atoms: C4_4  and  O1_5 
REMARK    3  A    between atoms: O1_5  and  C5_6 
REMARK    4  A    between atoms: C5_6  and  C6_7 
ROOT
ATOM      1  C4  <0> d           1.280   2.024   0.001  0.00  0.00     0.024 C 
ATOM      2  H6  <0> d           1.822   1.711  -0.904  0.00  0.00     0.074 H 
ATOM      3  H7  <0> d           1.839   1.702   0.892  0.00  0.00     0.074 H 
ENDROOT
BRANCH   1   4
ATOM      4  C3  <0> d           1.139   3.547   0.010  0.00  0.00    -0.033 A 
ATOM      5  C1  <0> d           1.659   4.313  -1.208  0.00  0.00    -0.059 A 
ATOM      6  C2  <0> d           2.421   4.375   0.119  0.00  0.00    -0.059 A 
ATOM      7  H1  <0> d           1.868   3.605  -2.024  0.00  0.00     0.033 H 
ATOM      8  H2  <0> d           0.901   5.038  -1.536  0.00  0.00     0.033 H 
ATOM      9  H3  <0> d           3.439   3.985  -0.025  0.00  0.00     0.033 H 
ATOM     10  H4  <0> d           2.473   5.418   0.463  0.00  0.00     0.033 H 
ATOM     11  H5  <0> d           0.186   3.513   0.559  0.00  0.00     0.043 H 
ENDBRANCH   1   4
BRANCH   1  12
ATOM     12  O1  <0> d          -0.017   1.425   0.010  0.00  0.00    -0.380 OA
BRANCH  12  13
ATOM     13  C5  <0> d           0.002  -0.004   0.002  0.00  0.00     0.099 C 
ATOM     14  H8  <0> d           0.517  -0.359  -0.903  0.00  0.00     0.091 H 
ATOM     15  H9  <0> d           0.534  -0.368   0.893  0.00  0.00     0.091 H 
BRANCH  13  16
ATOM     16  C6  <0> d          -1.412  -0.526   0.013  0.00  0.00     0.197 C 
ATOM     17  O2  <0> d          -2.341   0.247   0.026  0.00  0.00    -0.646 OA
ATOM     18  O3  <0> d          -1.639  -1.849   0.008  0.00  0.00    -0.646 OA
ENDBRANCH  13  16
ENDBRANCH  12  13
ENDBRANCH   1  12
TORSDOF 4
