REMARK  3 active torsions:
REMARK  status: ('A' for Active; 'I' for Inactive)
REMARK    1  A    between atoms: C1_1  and  C2_2 
REMARK    2  A    between atoms: C2_2  and  N1_3 
REMARK    3  A    between atoms: C4_5  and  C7_10 
REMARK       I    between atoms: C7_10  and  N2_12 
ROOT
ATOM      1  N1  <0> d           3.464   1.754   0.965  0.00  0.00    -0.352 N 
ATOM      2  C3  <0> d           2.491   1.030   0.139  0.00  0.00     0.009 C 
ATOM      3  C4  <0> d           1.280   1.980   0.001  0.00  0.00     0.047 C 
ATOM      4  H1  <0> d           1.363   2.590  -0.899  0.00  0.00     0.057 H 
ATOM      5  C5  <0> d           1.415   2.849   1.272  0.00  0.00     0.022 C 
ATOM      6  C6  <0> d           2.886   2.777   1.617  0.00  0.00     0.220 C 
ATOM      7  O1  <0> d           3.461   3.533   2.371  0.00  0.00    -0.273 OA
ATOM      8  H7  <0> d           2.190   0.106   0.632  0.00  0.00     0.065 H 
ATOM      9  H8  <0> d           2.915   0.814  -0.842  0.00  0.00     0.065 H 
ATOM     10  H9  <0> d           1.122   3.878   1.064  0.00  0.00     0.048 H 
ATOM     11  H10 <0> d           0.813   2.436   2.082  0.00  0.00     0.048 H 
ENDROOT
BRANCH   1  12
ATOM     12  C2  <0> d           4.884   1.406   1.065  0.00  0.00    -0.006 C 
ATOM     13  H5  <0> d           5.214   0.955   0.130  0.00  0.00     0.063 H 
ATOM     14  H6  <0> d           5.466   2.307   1.260  0.00  0.00     0.063 H 
BRANCH  12  15
ATOM     15  C1  <0> d           5.085   0.411   2.210  0.00  0.00    -0.061 C 
ATOM     16  H2  <0> d           4.503  -0.490   2.016  0.00  0.00     0.029 H 
ATOM     17  H3  <0> d           6.141   0.152   2.285  0.00  0.00     0.029 H 
ATOM     18  H4  <0> d           4.755   0.862   3.146  0.00  0.00     0.029 H 
ENDBRANCH  12  15
ENDBRANCH   1  12
BRANCH   3  19
ATOM     19  C7  <0> d          -0.014   1.209   0.009  0.00  0.00     0.221 C 
ATOM     20  O2  <0> d           0.002  -0.004   0.002  0.00  0.00    -0.273 OA
ATOM     21  N2  <0> d          -1.191   1.867   0.018  0.00  0.00    -0.370 N 
ATOM     22  H11 <0> d          -2.024   1.370   0.019  0.00  0.00     0.159 HD
ATOM     23  H12 <0> d          -1.204   2.837   0.023  0.00  0.00     0.159 HD
ENDBRANCH   3  19
TORSDOF 3
