REMARK  6 active torsions:
REMARK  status: ('A' for Active; 'I' for Inactive)
REMARK    1  A    between atoms: C1_1  and  C2_2 
REMARK    2  A    between atoms: C2_2  and  N1_8 
REMARK    3  A    between atoms: C3_3  and  C4_4 
REMARK    4  A    between atoms: C4_4  and  O2_6 
REMARK    5  A    between atoms: O2_6  and  C5_7 
REMARK       I    between atoms: N1_8  and  C6_9 
REMARK    6  A    between atoms: C6_9  and  C7_11 
ROOT
ATOM      1  C2  <0> d           0.006   0.002   0.004  0.00  0.00     0.014 C 
ATOM      2  C3  <0> d           0.099  -0.603   1.204  0.00  0.00     0.011 C 
ATOM      3  H4  <0> d           0.095  -0.012   2.108  0.00  0.00     0.096 H 
ENDROOT
BRANCH   1   4
ATOM      4  C1  <0> d           0.026   1.506  -0.086  0.00  0.00    -0.037 C 
ATOM      5  H1  <0> d           1.058   1.855  -0.106  0.00  0.00     0.035 H 
ATOM      6  H2  <0> d          -0.482   1.822  -0.997  0.00  0.00     0.035 H 
ATOM      7  H3  <0> d          -0.484   1.928   0.780  0.00  0.00     0.035 H 
ENDBRANCH   1   4
BRANCH   1   8
ATOM      8  N1  <0> d          -0.106  -0.753  -1.138  0.00  0.00    -0.331 N 
ATOM      9  C6  <0> d           0.806  -0.625  -2.123  0.00  0.00     0.217 C 
ATOM     10  O3  <0> d           1.777   0.083  -1.962  0.00  0.00    -0.274 OA
ATOM     11  H8  <0> d          -0.841  -1.378  -1.236  0.00  0.00     0.168 HD
BRANCH   9  12
ATOM     12  C7  <0> d           0.618  -1.362  -3.424  0.00  0.00    -0.003 C 
ATOM     13  H9  <0> d          -0.304  -1.942  -3.383  0.00  0.00     0.040 H 
ATOM     14  H10 <0> d           0.560  -0.645  -4.243  0.00  0.00     0.040 H 
ATOM     15  H11 <0> d           1.462  -2.032  -3.587  0.00  0.00     0.040 H 
ENDBRANCH   9  12
ENDBRANCH   1   8
BRANCH   2  16
ATOM     16  C4  <0> d           0.203  -2.012   1.280  0.00  0.00     0.284 C 
ATOM     17  O1  <0> d           0.115  -2.684   0.270  0.00  0.00    -0.260 OA
BRANCH  16  18
ATOM     18  O2  <0> d           0.398  -2.611   2.474  0.00  0.00    -0.323 OA
BRANCH  18  19
ATOM     19  C5  <0> d           0.493  -4.037   2.477  0.00  0.00     0.013 C 
ATOM     20  H5  <0> d           1.331  -4.346   1.853  0.00  0.00     0.067 H 
ATOM     21  H6  <0> d           0.649  -4.388   3.496  0.00  0.00     0.067 H 
ATOM     22  H7  <0> d          -0.430  -4.463   2.083  0.00  0.00     0.067 H 
ENDBRANCH  18  19
ENDBRANCH  16  18
ENDBRANCH   2  16
TORSDOF 6
