REMARK  4 active torsions:
REMARK  status: ('A' for Active; 'I' for Inactive)
REMARK    1  A    between atoms: C2_2  and  O4_12 
REMARK    2  A    between atoms: C3_4  and  C5_10 
REMARK    3  A    between atoms: C4_7  and  O2_9 
REMARK    4  A    between atoms: C5_10  and  O3_11 
ROOT
ATOM      1  C1  <0> d           2.043   1.234   1.305  0.00  0.00     0.007 C 
ATOM      2  C2  <0> d           1.286   1.562  -0.002  0.00  0.00     0.067 C 
ATOM      3  H1  <0> d           1.855   1.226  -0.869  0.00  0.00     0.087 H 
ATOM      4  C3  <0> d           1.171   3.102   0.007  0.00  0.00     0.086 C 
ATOM      5  H2  <0> d           0.215   3.409   0.431  0.00  0.00     0.090 H 
ATOM      6  O1  <0> d           2.259   3.548   0.847  0.00  0.00    -0.351 OA
ATOM      7  C4  <0> d           2.296   2.615   1.949  0.00  0.00     0.131 C 
ATOM      8  H3  <0> d           1.513   2.848   2.670  0.00  0.00     0.128 H 
ATOM      9  H4  <0> d           1.428   0.615   1.958  0.00  0.00     0.044 H 
ATOM     10  H5  <0> d           2.988   0.737   1.084  0.00  0.00     0.044 H 
ENDROOT
BRANCH   4  11
ATOM     11  C5  <0> d           1.331   3.657  -1.409  0.00  0.00     0.043 C 
ATOM     12  H7  <0> d           2.340   3.453  -1.768  0.00  0.00     0.078 H 
ATOM     13  H8  <0> d           0.607   3.180  -2.070  0.00  0.00     0.078 H 
BRANCH  11  14
ATOM     14  O3  <0> d           1.106   5.068  -1.397  0.00  0.00    -0.398 OA
ATOM     15  H9  <0> d           1.191   5.488  -2.264  0.00  0.00     0.209 HD
ENDBRANCH  11  14
ENDBRANCH   4  11
BRANCH   2  16
ATOM     16  O4  <0> d          -0.011   0.963   0.007  0.00  0.00    -0.393 OA
ATOM     17  H10 <0> d           0.002  -0.004   0.002  0.00  0.00     0.210 HD
ENDBRANCH   2  16
BRANCH   7  18
ATOM     18  O2  <0> d           3.578   2.642   2.580  0.00  0.00    -0.371 OA
ATOM     19  H6  <0> d           3.811   3.500   2.960  0.00  0.00     0.212 HD
ENDBRANCH   7  18
TORSDOF 4
