REMARK  0 active torsions:
REMARK  status: ('A' for Active; 'I' for Inactive)
ROOT
ATOM      1  C1  <0> d          -0.016   1.351   0.009  0.00  0.00    -0.065 A 
ATOM      2  C2  <0> d           1.308   1.801  -0.001  0.00  0.00    -0.050 A 
ATOM      3  C3  <0> d           2.111   0.685  -0.014  0.00  0.00     0.109 A 
ATOM      4  C4  <0> d           3.563   0.488  -0.030  0.00  0.00     0.288 A 
ATOM      5  N1  <0> d           4.032  -0.780  -0.041  0.00  0.00    -0.241 N 
ATOM      6  N2  <0> d           3.137  -1.855  -0.039  0.00  0.00    -0.167 NA
ATOM      7  C5  <0> d           1.859  -1.687  -0.025  0.00  0.00     0.090 A 
ATOM      8  N3  <0> d           1.291  -0.428  -0.013  0.00  0.00    -0.310 N 
ATOM      9  C6  <0> d           0.002  -0.004   0.002  0.00  0.00    -0.013 A 
ATOM     10  O1  <0> d           4.325   1.439  -0.032  0.00  0.00    -0.264 OA
ATOM     11  H1  <0> d          -0.898   1.974   0.025  0.00  0.00     0.085 H 
ATOM     12  H2  <0> d           1.637   2.829   0.001  0.00  0.00     0.087 H 
ATOM     13  H3  <0> d           1.215  -2.554  -0.024  0.00  0.00     0.147 H 
ATOM     14  H4  <0> d          -0.869  -0.643   0.007  0.00  0.00     0.112 H 
ATOM     15  H5  <0> d           4.988  -0.945  -0.052  0.00  0.00     0.192 HD
ENDROOT
TORSDOF 0
