REMARK  2 active torsions:
REMARK  status: ('A' for Active; 'I' for Inactive)
REMARK    1  A    between atoms: C3_3  and  N1_10 
REMARK    2  A    between atoms: C4_4  and  C7_8 
ROOT
ATOM      1  C1  <0> d           1.346   5.836   0.020  0.00  0.00    -0.078 A 
ATOM      2  C2  <0> d           1.332   5.149   1.217  0.00  0.00    -0.056 A 
ATOM      3  C3  <0> d           1.272   3.762   1.224  0.00  0.00     0.046 A 
ATOM      4  C4  <0> d           1.238   3.061   0.007  0.00  0.00     0.105 A 
ATOM      5  C5  <0> d           1.254   3.772  -1.200  0.00  0.00     0.135 A 
ATOM      6  C6  <0> d           1.308   5.152  -1.183  0.00  0.00    -0.044 A 
ATOM      7  F1  <0> d           1.218   3.110  -2.376  0.00  0.00    -0.205 F 
ATOM      8  H1  <0> d           1.388   6.916   0.022  0.00  0.00     0.083 H 
ATOM      9  H2  <0> d           1.362   5.692   2.151  0.00  0.00     0.086 H 
ATOM     10  H3  <0> d           1.321   5.700  -2.114  0.00  0.00     0.088 H 
ENDROOT
BRANCH   3  11
ATOM     11  N1  <0> d           1.250   3.070   2.428  0.00  0.00    -0.398 N 
ATOM     12  H4  <0> d           1.212   2.101   2.430  0.00  0.00     0.156 HD
ATOM     13  H5  <0> d           1.273   3.557   3.267  0.00  0.00     0.156 HD
ENDBRANCH   3  11
BRANCH   4  14
ATOM     14  C7  <0> d           1.181   1.591  -0.001  0.00  0.00     0.214 C 
ATOM     15  O1  <0> d           2.210   0.943  -0.014  0.00  0.00    -0.644 OA
ATOM     16  O2  <0> d          -0.011   0.963   0.007  0.00  0.00    -0.644 OA
ENDBRANCH   4  14
TORSDOF 2
