REMARK  4 active torsions:
REMARK  status: ('A' for Active; 'I' for Inactive)
REMARK    1  A    between atoms: C1_1  and  C2_2 
REMARK    2  A    between atoms: C6_7  and  C7_8 
REMARK    3  A    between atoms: C7_8  and  O2_10 
REMARK    4  A    between atoms: O2_10  and  C8_11 
ROOT
ATOM      1  C2  <0> d           1.179  -2.711  -2.256  0.00  0.00    -0.043 A 
ATOM      2  C3  <0> d           0.997  -4.079  -2.360  0.00  0.00    -0.059 A 
ATOM      3  C4  <0> d           0.521  -4.783  -1.269  0.00  0.00     0.002 A 
ATOM      4  N1  <0> d           0.242  -4.173  -0.132  0.00  0.00    -0.272 NA
ATOM      5  C5  <0> d           0.402  -2.874   0.017  0.00  0.00     0.018 A 
ATOM      6  C6  <0> d           0.879  -2.092  -1.036  0.00  0.00     0.062 A 
ATOM      7  H4  <0> d           1.221  -4.591  -3.284  0.00  0.00     0.086 H 
ATOM      8  H5  <0> d           0.375  -5.850  -1.348  0.00  0.00     0.114 H 
ATOM      9  H6  <0> d           0.163  -2.411   0.963  0.00  0.00     0.116 H 
ENDROOT
BRANCH   6  10
ATOM     10  C7  <0> d           1.060  -0.636  -0.869  0.00  0.00     0.294 C 
ATOM     11  O1  <0> d           1.577   0.018  -1.752  0.00  0.00    -0.259 OA
BRANCH  10  12
ATOM     12  O2  <0> d           0.649  -0.032   0.264  0.00  0.00    -0.322 OA
BRANCH  12  13
ATOM     13  C8  <0> d           0.858   1.401   0.359  0.00  0.00     0.013 C 
ATOM     14  H7  <0> d           0.481   1.763   1.327  0.00  0.00     0.067 H 
ATOM     15  H8  <0> d           0.319   1.906  -0.456  0.00  0.00     0.067 H 
ATOM     16  H9  <0> d           1.933   1.621   0.280  0.00  0.00     0.067 H 
ENDBRANCH  12  13
ENDBRANCH  10  12
ENDBRANCH   6  10
BRANCH   1  17
ATOM     17  C1  <0> d           1.690  -1.909  -3.425  0.00  0.00    -0.050 C 
ATOM     18  H1  <0> d           1.863  -2.577  -4.281  0.00  0.00     0.033 H 
ATOM     19  H2  <0> d           2.635  -1.418  -3.147  0.00  0.00     0.033 H 
ATOM     20  H3  <0> d           0.947  -1.145  -3.699  0.00  0.00     0.033 H 
ENDBRANCH   1  17
TORSDOF 4
