REMARK  5 active torsions:
REMARK  status: ('A' for Active; 'I' for Inactive)
REMARK    1  A    between atoms: C1_1  and  C2_2 
REMARK    2  A    between atoms: C3_3  and  C7_12 
REMARK    3  A    between atoms: C4_5  and  N3_8 
REMARK    4  A    between atoms: C5_9  and  C6_11 
REMARK    5  A    between atoms: C5_9  and  O1_10 
ROOT
ATOM      1  C2  <0> d          -0.587  -0.034  -0.008  0.00  0.00     0.045 A 
ATOM      2  C3  <0> d          -0.378  -0.792   1.065  0.00  0.00     0.045 A 
ATOM      3  N1  <0> d          -0.165  -2.090   0.637  0.00  0.00    -0.192 N 
ATOM      4  C4  <0> d          -0.249  -2.104  -0.712  0.00  0.00     0.707 A 
ATOM      5  N2  <0> d          -0.514  -0.845  -1.126  0.00  0.00    -0.192 N 
ATOM      6  H1  <0> d          -0.631  -0.560  -2.046  0.00  0.00     0.184 HD
ATOM      7  H5  <0> d           0.014  -2.856   1.206  0.00  0.00     0.184 HD
ENDROOT
BRANCH   4   8
ATOM      8  N3  <0> d          -0.101  -3.174  -1.496  0.00  0.00    -0.045 NA
ATOM      9  C5  <0> d          -0.086  -3.032  -2.816  0.00  0.00     0.152 C 
BRANCH   9  10
ATOM     10  C6  <0> d          -0.045  -4.249  -3.704  0.00  0.00    -0.015 C 
ATOM     11  H6  <0> d          -1.062  -4.566  -3.932  0.00  0.00     0.038 H 
ATOM     12  H7  <0> d           0.476  -4.005  -4.629  0.00  0.00     0.038 H 
ATOM     13  H8  <0> d           0.481  -5.054  -3.192  0.00  0.00     0.038 H 
ENDBRANCH   9  10
BRANCH   9  14
ATOM     14  O1  <0> d          -0.106  -1.920  -3.308  0.00  0.00    -0.348 OA
ATOM     15  H12 <0> d           0.628  -1.354  -3.031  0.00  0.00     0.219 HD
ENDBRANCH   9  14
ENDBRANCH   4   8
BRANCH   2  16
ATOM     16  C7  <0> d          -0.372  -0.319   2.496  0.00  0.00    -0.035 C 
ATOM     17  H9  <0> d          -1.379  -0.392   2.906  0.00  0.00     0.035 H 
ATOM     18  H10 <0> d           0.304  -0.942   3.082  0.00  0.00     0.035 H 
ATOM     19  H11 <0> d          -0.038   0.717   2.534  0.00  0.00     0.035 H 
ENDBRANCH   2  16
BRANCH   1  20
ATOM     20  C1  <0> d          -0.862   1.447  -0.006  0.00  0.00    -0.035 C 
ATOM     21  H2  <0> d           0.080   1.992  -0.070  0.00  0.00     0.035 H 
ATOM     22  H3  <0> d          -1.488   1.702  -0.861  0.00  0.00     0.035 H 
ATOM     23  H4  <0> d          -1.377   1.720   0.915  0.00  0.00     0.035 H 
ENDBRANCH   1  20
TORSDOF 5
