REMARK  2 active torsions:
REMARK  status: ('A' for Active; 'I' for Inactive)
REMARK    1  A    between atoms: N2_4  and  C3_6 
REMARK    2  A    between atoms: C3_6  and  C4_7 
ROOT
ATOM      1  C4  <0> d          -0.013   1.086   0.008  0.00  0.00     0.033 C 
ATOM      2  C5  <0> d          -0.725   1.573  -1.185  0.00  0.00     0.060 C 
ATOM      3  N4  <0> d          -1.274   1.950  -2.105  0.00  0.00    -0.197 NA
ATOM      4  H5  <0> d           0.002  -0.004   0.002  0.00  0.00     0.057 H 
ATOM      5  H6  <0> d           1.010   1.463   0.000  0.00  0.00     0.057 H 
ENDROOT
BRANCH   1   6
ATOM      6  C3  <0> d          -0.729   1.579   1.267  0.00  0.00     0.046 C 
ATOM      7  H3  <0> d          -0.744   2.669   1.273  0.00  0.00     0.071 H 
ATOM      8  H4  <0> d          -1.751   1.202   1.275  0.00  0.00     0.071 H 
BRANCH   6   9
ATOM      9  N2  <0> d          -0.020   1.094   2.454  0.00  0.00    -0.188 N 
ATOM     10  N1  <0> d           0.932   1.724   3.045  0.00  0.00    -0.166 NA
ATOM     11  C2  <0> d           1.340   1.009   4.069  0.00  0.00     0.042 A 
ATOM     12  C1  <0> d           0.549  -0.142   4.070  0.00  0.00     0.042 A 
ATOM     13  H2  <0> d           2.125   1.260   4.766  0.00  0.00     0.119 H 
ATOM     14  N3  <0> d          -0.270  -0.018   3.050  0.00  0.00    -0.166 NA
ATOM     15  H1  <0> d           0.597  -0.964   4.769  0.00  0.00     0.119 H 
ENDBRANCH   6   9
ENDBRANCH   1   6
TORSDOF 2
