REMARK  2 active torsions:
REMARK  status: ('A' for Active; 'I' for Inactive)
REMARK    1  A    between atoms: C1_1  and  C2_2 
REMARK    2  A    between atoms: C3_3  and  C5_8 
ROOT
ATOM      1  C2  <0> d          -0.928   2.859   1.607  0.00  0.00     0.027 A 
ATOM      2  C3  <0> d          -0.718   1.572   1.248  0.00  0.00     0.085 A 
ATOM      3  O1  <0> d          -1.255   0.813   2.214  0.00  0.00    -0.215 OA
ATOM      4  N1  <0> d          -1.755   1.486   3.086  0.00  0.00    -0.099 NA
ATOM      5  C4  <0> d          -1.629   2.762   2.837  0.00  0.00     0.234 A 
ATOM      6  O2  <0> d          -2.073   3.789   3.605  0.00  0.00    -0.167 OA
ENDROOT
BRANCH   1   7
ATOM      7  C1  <0> d          -0.515   4.107   0.870  0.00  0.00    -0.045 C 
ATOM      8  H1  <0> d           0.013   3.830  -0.054  0.00  0.00     0.033 H 
ATOM      9  H2  <0> d           0.151   4.706   1.507  0.00  0.00     0.033 H 
ATOM     10  H3  <0> d          -1.409   4.697   0.618  0.00  0.00     0.033 H 
ENDBRANCH   1   7
BRANCH   2  11
ATOM     11  C5  <0> d          -0.013   1.086   0.008  0.00  0.00    -0.029 C 
ATOM     12  H4  <0> d          -0.002  -0.014  -0.001  0.00  0.00     0.036 H 
ATOM     13  H5  <0> d           1.021   1.462   0.003  0.00  0.00     0.036 H 
ATOM     14  H6  <0> d          -0.542   1.454  -0.883  0.00  0.00     0.036 H 
ENDBRANCH   2  11
TORSDOF 2
