REMARK  4 active torsions:
REMARK  status: ('A' for Active; 'I' for Inactive)
REMARK    1  A    between atoms: C3_3  and  C7_9 
REMARK    2  A    between atoms: C4_5  and  C6_7 
REMARK    3  A    between atoms: C6_7  and  O1_8 
REMARK    4  A    between atoms: C7_9  and  O2_10 
ROOT
ATOM      1  C1  <0> d           1.173   1.794   0.001  0.00  0.00    -0.079 A 
ATOM      2  C2  <0> d          -0.013   1.076   0.008  0.00  0.00    -0.057 A 
ATOM      3  C3  <0> d          -1.214   1.759   0.017  0.00  0.00     0.058 A 
ATOM      4  N1  <0> d          -1.240   3.078   0.031  0.00  0.00    -0.254 NA
ATOM      5  C4  <0> d          -0.132   3.793   0.024  0.00  0.00     0.058 A 
ATOM      6  C5  <0> d           1.106   3.179   0.009  0.00  0.00    -0.057 A 
ATOM      7  H1  <0> d           2.127   1.287  -0.012  0.00  0.00     0.083 H 
ATOM      8  H2  <0> d           0.002  -0.004   0.002  0.00  0.00     0.086 H 
ATOM      9  H3  <0> d           2.010   3.770   0.003  0.00  0.00     0.086 H 
ENDROOT
BRANCH   3  10
ATOM     10  C7  <0> d          -2.509   0.989   0.019  0.00  0.00     0.056 C 
ATOM     11  H7  <0> d          -3.080   1.240   0.913  0.00  0.00     0.083 H 
ATOM     12  H8  <0> d          -3.088   1.250  -0.867  0.00  0.00     0.083 H 
BRANCH  10  13
ATOM     13  O2  <0> d          -2.230  -0.412   0.010  0.00  0.00    -0.395 OA
ATOM     14  H9  <0> d          -3.019  -0.971   0.011  0.00  0.00     0.209 HD
ENDBRANCH  10  13
ENDBRANCH   3  10
BRANCH   5  15
ATOM     15  C6  <0> d          -0.217   5.298   0.033  0.00  0.00     0.056 C 
ATOM     16  H4  <0> d          -0.759   5.636  -0.850  0.00  0.00     0.083 H 
ATOM     17  H5  <0> d          -0.742   5.627   0.930  0.00  0.00     0.083 H 
BRANCH  15  18
ATOM     18  O1  <0> d           1.102   5.849   0.023  0.00  0.00    -0.395 OA
ATOM     19  H6  <0> d           1.123   6.816   0.028  0.00  0.00     0.209 HD
ENDBRANCH  15  18
ENDBRANCH   5  15
TORSDOF 4
