REMARK  5 active torsions:
REMARK  status: ('A' for Active; 'I' for Inactive)
REMARK    1  A    between atoms: C1_1  and  C2_2 
REMARK    2  A    between atoms: C2_2  and  C3_3 
REMARK    3  A    between atoms: C3_3  and  C4_4 
REMARK    4  A    between atoms: C4_4  and  C5_5 
REMARK    5  A    between atoms: C5_5  and  N1_6 
ROOT
ATOM      1  C4  <0> d          -0.013   1.086   0.008  0.00  0.00    -0.050 C 
ATOM      2  H8  <0> d           0.002  -0.014   0.002  0.00  0.00     0.035 H 
ATOM      3  H9  <0> d           1.019   1.466   0.000  0.00  0.00     0.035 H 
ENDROOT
BRANCH   1   4
ATOM      4  C3  <0> d          -0.753   1.593  -1.232  0.00  0.00    -0.064 C 
ATOM      5  H6  <0> d          -0.767   2.693  -1.226  0.00  0.00     0.033 H 
ATOM      6  H7  <0> d          -1.785   1.212  -1.224  0.00  0.00     0.033 H 
BRANCH   4   7
ATOM      7  C2  <0> d          -0.037   1.099  -2.490  0.00  0.00    -0.068 C 
ATOM      8  H4  <0> d          -0.022  -0.001  -2.496  0.00  0.00     0.032 H 
ATOM      9  H5  <0> d           0.995   1.480  -2.498  0.00  0.00     0.032 H 
BRANCH   7  10
ATOM     10  C1  <0> d          -0.777   1.606  -3.730  0.00  0.00    -0.077 C 
ATOM     11  H1  <0> d          -0.262   1.251  -4.635  0.00  0.00     0.027 H 
ATOM     12  H2  <0> d          -0.791   2.706  -3.724  0.00  0.00     0.027 H 
ATOM     13  H3  <0> d          -1.809   1.225  -3.722  0.00  0.00     0.027 H 
ENDBRANCH   7  10
ENDBRANCH   4   7
ENDBRANCH   1   4
BRANCH   1  14
ATOM     14  C5  <0> d          -0.729   1.579   1.267  0.00  0.00     0.000 C 
ATOM     15  H10 <0> d          -0.744   2.679   1.273  0.00  0.00     0.064 H 
ATOM     16  H11 <0> d          -1.761   1.198   1.275  0.00  0.00     0.064 H 
BRANCH  14  17
ATOM     17  N1  <0> d          -0.020   1.094   2.454  0.00  0.00    -0.350 N 
ATOM     18  C8  <0> d           0.982   1.725   3.102  0.00  0.00     0.065 A 
ATOM     19  N2  <0> d           1.359   0.986   4.110  0.00  0.00    -0.255 NA
ATOM     20  H14 <0> d           1.403   2.682   2.831  0.00  0.00     0.143 H 
ATOM     21  C7  <0> d           0.618  -0.132   4.140  0.00  0.00     0.018 A 
ATOM     22  C6  <0> d          -0.255  -0.081   3.116  0.00  0.00    -0.003 A 
ATOM     23  H13 <0> d           0.703  -0.930   4.862  0.00  0.00     0.117 H 
ATOM     24  H12 <0> d          -0.996  -0.825   2.864  0.00  0.00     0.113 H 
ENDBRANCH  14  17
ENDBRANCH   1  14
TORSDOF 5
