REMARK  6 active torsions:
REMARK  status: ('A' for Active; 'I' for Inactive)
REMARK    1  A    between atoms: C1_1  and  C2_2 
REMARK    2  A    between atoms: C2_2  and  C3_4 
REMARK    3  A    between atoms: C2_2  and  C6_7 
REMARK       I    between atoms: C6_7  and  N1_9 
REMARK    4  A    between atoms: N1_9  and  C7_10 
REMARK    5  A    between atoms: C7_10  and  C8_11 
REMARK    6  A    between atoms: C7_10  and  C9_12 
ROOT
ATOM      1  C2  <0> d           0.002  -0.004   0.002  0.00  0.00     0.024 C 
ATOM      2  H1  <0> d           0.529  -0.365   0.885  0.00  0.00     0.054 H 
ENDROOT
BRANCH   1   3
ATOM      3  C1  <0> d          -0.019   1.526   0.010  0.00  0.00    -0.064 C 
ATOM      4  H2  <0> d           1.004   1.903   0.003  0.00  0.00     0.028 H 
ATOM      5  H3  <0> d          -0.546   1.887  -0.873  0.00  0.00     0.028 H 
ATOM      6  H4  <0> d          -0.529   1.877   0.907  0.00  0.00     0.028 H 
ENDBRANCH   1   3
BRANCH   1   7
ATOM      7  C3  <0> d           0.718  -0.497  -1.257  0.00  0.00    -0.043 A 
ATOM      8  C5  <0> d           2.175  -0.072  -1.454  0.00  0.00    -0.060 A 
ATOM      9  C4  <0> d           1.844  -1.518  -1.075  0.00  0.00    -0.060 A 
ATOM     10  H8  <0> d           2.510   0.117  -2.473  0.00  0.00     0.033 H 
ATOM     11  H9  <0> d           2.623   0.559  -0.686  0.00  0.00     0.033 H 
ATOM     12  H6  <0> d           2.075  -1.837  -0.059  0.00  0.00     0.033 H 
ATOM     13  H7  <0> d           1.962  -2.279  -1.846  0.00  0.00     0.033 H 
ATOM     14  H5  <0> d           0.096  -0.588  -2.147  0.00  0.00     0.041 H 
ENDBRANCH   1   7
BRANCH   1  15
ATOM     15  C6  <0> d          -1.412  -0.526   0.013  0.00  0.00     0.222 C 
ATOM     16  O1  <0> d          -1.808  -1.223  -0.897  0.00  0.00    -0.273 OA
ATOM     17  N1  <0> d          -2.236  -0.217   1.033  0.00  0.00    -0.357 N 
ATOM     18  H10 <0> d          -1.920   0.341   1.761  0.00  0.00     0.162 HD
BRANCH  17  19
ATOM     19  C7  <0> d          -3.611  -0.724   1.044  0.00  0.00     0.005 C 
ATOM     20  H11 <0> d          -3.992  -0.760   0.023  0.00  0.00     0.071 H 
BRANCH  19  21
ATOM     21  C8  <0> d          -3.631  -2.130   1.646  0.00  0.00    -0.058 C 
ATOM     22  H12 <0> d          -4.654  -2.507   1.654  0.00  0.00     0.030 H 
ATOM     23  H13 <0> d          -3.004  -2.791   1.047  0.00  0.00     0.030 H 
ATOM     24  H14 <0> d          -3.249  -2.094   2.666  0.00  0.00     0.030 H 
ENDBRANCH  19  21
BRANCH  19  25
ATOM     25  C9  <0> d          -4.490   0.204   1.884  0.00  0.00    -0.058 C 
ATOM     26  H15 <0> d          -4.476   1.206   1.455  0.00  0.00     0.030 H 
ATOM     27  H16 <0> d          -5.513  -0.174   1.892  0.00  0.00     0.030 H 
ATOM     28  H17 <0> d          -4.109   0.240   2.905  0.00  0.00     0.030 H 
ENDBRANCH  19  25
ENDBRANCH  17  19
ENDBRANCH   1  15
TORSDOF 6
