REMARK  2 active torsions:
REMARK  status: ('A' for Active; 'I' for Inactive)
REMARK    1  A    between atoms: C1_1  and  C2_2 
REMARK    2  A    between atoms: C2_2  and  C3_3 
ROOT
ATOM      1  C3  <0> d          -2.143   1.058   1.278  0.00  0.00    -0.042 A 
ATOM      2  C4  <0> d          -2.579  -0.157   1.843  0.00  0.00    -0.061 A 
ATOM      3  C5  <0> d          -3.909  -0.242   1.638  0.00  0.00    -0.023 A 
ATOM      4  N1  <0> d          -4.310   0.875   0.966  0.00  0.00    -0.375 N 
ATOM      5  H1  <0> d          -5.218   1.072   0.690  0.00  0.00     0.164 HD
ATOM      6  C6  <0> d          -3.223   1.670   0.753  0.00  0.00    -0.017 A 
ATOM      7  H7  <0> d          -1.962  -0.885   2.348  0.00  0.00     0.086 H 
ATOM      8  H8  <0> d          -4.547  -1.056   1.951  0.00  0.00     0.111 H 
ATOM      9  H9  <0> d          -3.227   2.625   0.248  0.00  0.00     0.112 H 
ENDROOT
BRANCH   1  10
ATOM     10  C2  <0> d          -0.729   1.579   1.267  0.00  0.00    -0.043 C 
ATOM     11  H5  <0> d          -0.202   1.218   2.150  0.00  0.00     0.039 H 
ATOM     12  H6  <0> d          -0.744   2.669   1.273  0.00  0.00     0.039 H 
BRANCH  10  13
ATOM     13  C1  <0> d          -0.013   1.086   0.008  0.00  0.00    -0.073 C 
ATOM     14  H2  <0> d           0.002  -0.004   0.002  0.00  0.00     0.028 H 
ATOM     15  H3  <0> d           1.010   1.463   0.000  0.00  0.00     0.028 H 
ATOM     16  H4  <0> d          -0.540   1.447  -0.875  0.00  0.00     0.028 H 
ENDBRANCH  10  13
ENDBRANCH   1  10
TORSDOF 2
