REMARK  7 active torsions:
REMARK  status: ('A' for Active; 'I' for Inactive)
REMARK    1  A    between atoms: C1_1  and  C2_2 
REMARK    2  A    between atoms: C2_2  and  C10_13 
REMARK    3  A    between atoms: C3_3  and  C4_4 
REMARK    4  A    between atoms: C5_6  and  C9_11 
REMARK    5  A    between atoms: C6_8  and  C7_9 
REMARK    6  A    between atoms: C6_8  and  C8_10 
REMARK    7  A    between atoms: C9_11  and  O1_12 
ROOT
ATOM      1  C4  <0> d          -0.994  -0.037   2.974  0.00  0.00    -0.024 A 
ATOM      2  H1  <0> d          -0.788   0.955   2.574  0.00  0.00     0.048 H 
ATOM      3  C5  <0> d           0.136  -0.744   3.725  0.00  0.00    -0.019 A 
ATOM      4  H2  <0> d           1.085  -0.216   3.819  0.00  0.00     0.045 H 
ATOM      5  C6  <0> d          -1.063  -0.185   4.496  0.00  0.00    -0.034 A 
ENDROOT
BRANCH   1   6
ATOM      6  C3  <0> d          -1.922  -0.892   2.150  0.00  0.00    -0.096 C 
ATOM      7  C2  <0> d          -2.204  -0.550   0.917  0.00  0.00    -0.091 C 
ATOM      8  H6  <0> d          -2.355  -1.785   2.575  0.00  0.00     0.077 H 
BRANCH   7   9
ATOM      9  C1  <0> d          -1.601   0.696   0.323  0.00  0.00    -0.055 C 
ATOM     10  H3  <0> d          -0.653   0.449  -0.155  0.00  0.00     0.033 H 
ATOM     11  H4  <0> d          -2.283   1.113  -0.417  0.00  0.00     0.033 H 
ATOM     12  H5  <0> d          -1.429   1.428   1.112  0.00  0.00     0.033 H 
ENDBRANCH   7   9
BRANCH   7  13
ATOM     13  C10 <0> d          -3.132  -1.405   0.092  0.00  0.00    -0.055 C 
ATOM     14  H16 <0> d          -2.554  -2.159  -0.442  0.00  0.00     0.033 H 
ATOM     15  H17 <0> d          -3.852  -1.896   0.747  0.00  0.00     0.033 H 
ATOM     16  H18 <0> d          -3.662  -0.778  -0.625  0.00  0.00     0.033 H 
ENDBRANCH   7  13
ENDBRANCH   1   6
BRANCH   5  17
ATOM     17  C7  <0> d          -0.837   1.072   5.338  0.00  0.00    -0.068 C 
ATOM     18  H7  <0> d          -1.591   1.818   5.087  0.00  0.00     0.028 H 
ATOM     19  H8  <0> d          -0.914   0.820   6.396  0.00  0.00     0.028 H 
ATOM     20  H9  <0> d           0.155   1.474   5.132  0.00  0.00     0.028 H 
ENDBRANCH   5  17
BRANCH   5  21
ATOM     21  C8  <0> d          -2.068  -1.188   5.063  0.00  0.00    -0.068 C 
ATOM     22  H10 <0> d          -1.839  -2.185   4.688  0.00  0.00     0.028 H 
ATOM     23  H11 <0> d          -2.008  -1.188   6.152  0.00  0.00     0.028 H 
ATOM     24  H12 <0> d          -3.076  -0.907   4.755  0.00  0.00     0.028 H 
ENDBRANCH   5  21
BRANCH   3  25
ATOM     25  C9  <0> d           0.238  -2.264   3.582  0.00  0.00     0.021 C 
ATOM     26  H13 <0> d          -0.614  -2.733   4.074  0.00  0.00     0.074 H 
ATOM     27  H14 <0> d           0.238  -2.529   2.525  0.00  0.00     0.074 H 
BRANCH  25  28
ATOM     28  O1  <0> d           1.450  -2.719   4.187  0.00  0.00    -0.400 OA
ATOM     29  H15 <0> d           1.581  -3.676   4.133  0.00  0.00     0.209 HD
ENDBRANCH  25  28
ENDBRANCH   3  25
TORSDOF 7
