REMARK  1 active torsions:
REMARK  status: ('A' for Active; 'I' for Inactive)
REMARK    1  A    between atoms: N2_4  and  C4_6 
ROOT
ATOM      1  C4  <0> d          -1.955   2.035  -1.202  0.00  0.00     0.032 C 
ATOM      2  C5  <0> d          -0.733   1.580  -1.212  0.00  0.00    -0.079 C 
ATOM      3  C6  <0> d          -0.013   1.086   0.008  0.00  0.00    -0.048 C 
ATOM      4  C7  <0> d          -0.723   1.577   1.271  0.00  0.00    -0.062 C 
ATOM      5  C8  <0> d          -2.216   1.262   1.145  0.00  0.00    -0.060 C 
ATOM      6  C9  <0> d          -2.802   2.135   0.033  0.00  0.00    -0.025 C 
ATOM      7  H4  <0> d          -0.208   1.558  -2.156  0.00  0.00     0.080 H 
ATOM      8  H5  <0> d           0.002  -0.004   0.002  0.00  0.00     0.038 H 
ATOM      9  H6  <0> d           1.011   1.461   0.000  0.00  0.00     0.038 H 
ATOM     10  H7  <0> d          -0.317   1.064   2.143  0.00  0.00     0.033 H 
ATOM     11  H8  <0> d          -0.583   2.652   1.376  0.00  0.00     0.033 H 
ATOM     12  H9  <0> d          -2.719   1.484   2.087  0.00  0.00     0.033 H 
ATOM     13  H10 <0> d          -2.352   0.210   0.896  0.00  0.00     0.033 H 
ATOM     14  H11 <0> d          -2.834   3.172   0.366  0.00  0.00     0.042 H 
ATOM     15  H12 <0> d          -3.813   1.796  -0.194  0.00  0.00     0.042 H 
ENDROOT
BRANCH   1  16
ATOM     16  N2  <0> d          -2.508   2.454  -2.412  0.00  0.00    -0.250 N 
ATOM     17  N1  <0> d          -3.800   2.963  -2.597  0.00  0.00    -0.180 NA
ATOM     18  C2  <0> d          -3.951   3.249  -3.865  0.00  0.00     0.023 A 
ATOM     19  C1  <0> d          -2.766   2.923  -4.534  0.00  0.00    -0.048 A 
ATOM     20  H2  <0> d          -4.840   3.661  -4.319  0.00  0.00     0.117 H 
ATOM     21  C3  <0> d          -1.892   2.437  -3.623  0.00  0.00     0.005 A 
ATOM     22  H1  <0> d          -2.582   3.040  -5.592  0.00  0.00     0.087 H 
ATOM     23  H3  <0> d          -0.887   2.096  -3.822  0.00  0.00     0.114 H 
ENDBRANCH   1  16
TORSDOF 1
