REMARK  2 active torsions:
REMARK  status: ('A' for Active; 'I' for Inactive)
REMARK    1  A    between atoms: C1_1  and  C2_2 
REMARK    2  A    between atoms: C7_7  and  C8_8 
ROOT
ATOM      1  C2  <0> d           1.271   3.760   1.218  0.00  0.00    -0.042 A 
ATOM      2  C3  <0> d           1.330   5.138   1.217  0.00  0.00    -0.076 A 
ATOM      3  C4  <0> d           1.345   5.835   0.021  0.00  0.00    -0.080 A 
ATOM      4  C5  <0> d           1.307   5.156  -1.183  0.00  0.00    -0.045 A 
ATOM      5  C6  <0> d           1.254   3.775  -1.199  0.00  0.00     0.134 A 
ATOM      6  C7  <0> d           1.238   3.065   0.007  0.00  0.00     0.085 A 
ATOM      7  F1  <0> d           1.218   3.112  -2.376  0.00  0.00    -0.205 F 
ATOM      8  H4  <0> d           1.360   5.676   2.154  0.00  0.00     0.084 H 
ATOM      9  H5  <0> d           1.387   6.914   0.028  0.00  0.00     0.083 H 
ATOM     10  H6  <0> d           1.319   5.706  -2.112  0.00  0.00     0.088 H 
ENDROOT
BRANCH   1  11
ATOM     11  C1  <0> d           1.248   3.006   2.522  0.00  0.00    -0.050 C 
ATOM     12  H1  <0> d           2.269   2.784   2.832  0.00  0.00     0.033 H 
ATOM     13  H2  <0> d           0.761   3.614   3.285  0.00  0.00     0.033 H 
ATOM     14  H3  <0> d           0.697   2.075   2.393  0.00  0.00     0.033 H 
ENDBRANCH   1  11
BRANCH   6  15
ATOM     15  C8  <0> d           1.181   1.591  -0.001  0.00  0.00     0.213 C 
ATOM     16  O1  <0> d           2.209   0.943  -0.014  0.00  0.00    -0.644 OA
ATOM     17  O2  <0> d          -0.011   0.963   0.007  0.00  0.00    -0.644 OA
ENDBRANCH   6  15
TORSDOF 2
