REMARK  2 active torsions:
REMARK  status: ('A' for Active; 'I' for Inactive)
REMARK    1  A    between atoms: C1_1  and  C2_2 
REMARK    2  A    between atoms: C5_6  and  C6_7 
ROOT
ATOM      1  C2  <0> d          -0.017   1.410   0.010  0.00  0.00    -0.032 A 
ATOM      2  C3  <0> d           1.265   1.817  -0.000  0.00  0.00     0.024 A 
ATOM      3  O1  <0> d           2.055   0.731  -0.014  0.00  0.00    -0.334 OA
ATOM      4  C4  <0> d           1.295  -0.376  -0.012  0.00  0.00     0.024 A 
ATOM      5  C5  <0> d           0.002  -0.004   0.002  0.00  0.00    -0.032 A 
ATOM      6  H4  <0> d           1.602   2.843   0.002  0.00  0.00     0.124 H 
ATOM      7  H5  <0> d           1.659  -1.393  -0.022  0.00  0.00     0.124 H 
ENDROOT
BRANCH   1   8
ATOM      8  C1  <0> d          -1.239   2.291   0.021  0.00  0.00    -0.049 C 
ATOM      9  H1  <0> d          -1.529   2.498   1.051  0.00  0.00     0.033 H 
ATOM     10  H2  <0> d          -1.016   3.228  -0.489  0.00  0.00     0.033 H 
ATOM     11  H3  <0> d          -2.057   1.785  -0.492  0.00  0.00     0.033 H 
ENDBRANCH   1   8
BRANCH   5  12
ATOM     12  C6  <0> d          -1.196  -0.918   0.009  0.00  0.00    -0.049 C 
ATOM     13  H6  <0> d          -1.494  -1.133  -1.018  0.00  0.00     0.033 H 
ATOM     14  H7  <0> d          -0.940  -1.849   0.515  0.00  0.00     0.033 H 
ATOM     15  H8  <0> d          -2.020  -0.434   0.533  0.00  0.00     0.033 H 
ENDBRANCH   5  12
TORSDOF 2
