REMARK  4 active torsions:
REMARK  status: ('A' for Active; 'I' for Inactive)
REMARK    1  A    between atoms: C1_1  and  C2_2 
REMARK    2  A    between atoms: C2_2  and  O1_3 
REMARK    3  A    between atoms: O1_3  and  C3_4 
REMARK    4  A    between atoms: C3_4  and  C4_6 
ROOT
ATOM      1  C4  <0> d           1.476   1.921  -0.002  0.00  0.00     0.037 C 
ATOM      2  H1  <0> d           1.903   1.856   0.999  0.00  0.00     0.056 H 
ATOM      3  C5  <0> d           2.101   0.855  -0.938  0.00  0.00    -0.047 C 
ATOM      4  C6  <0> d           1.325  -0.434  -0.596  0.00  0.00    -0.009 C 
ATOM      5  C7  <0> d           0.002  -0.004   0.002  0.00  0.00     0.127 C 
ATOM      6  O3  <0> d          -0.874  -0.734   0.399  0.00  0.00    -0.298 OA
ATOM      7  C8  <0> d          -0.018   1.514   0.010  0.00  0.00     0.002 C 
ATOM      8  H7  <0> d           3.163   0.732  -0.723  0.00  0.00     0.034 H 
ATOM      9  H8  <0> d           1.950   1.128  -1.982  0.00  0.00     0.034 H 
ATOM     10  H9  <0> d           1.854  -0.978   0.055  0.00  0.00     0.044 H 
ATOM     11  H10 <0> d           1.153  -1.016  -1.501  0.00  0.00     0.044 H 
ATOM     12  H11 <0> d          -0.474   1.895  -0.794  0.00  0.00     0.045 H 
ATOM     13  H12 <0> d          -0.506   1.883   0.913  0.00  0.00     0.045 H 
ENDROOT
BRANCH   1  14
ATOM     14  C3  <0> d           1.651   3.304  -0.573  0.00  0.00     0.263 C 
ATOM     15  O2  <0> d           2.305   3.466  -1.575  0.00  0.00    -0.265 OA
BRANCH  14  16
ATOM     16  O1  <0> d           1.079   4.357   0.033  0.00  0.00    -0.322 OA
BRANCH  16  17
ATOM     17  C2  <0> d           1.289   5.660  -0.573  0.00  0.00     0.025 C 
ATOM     18  H5  <0> d           2.356   5.881  -0.598  0.00  0.00     0.074 H 
ATOM     19  H6  <0> d           0.895   5.656  -1.589  0.00  0.00     0.074 H 
BRANCH  17  20
ATOM     20  C1  <0> d           0.566   6.728   0.251  0.00  0.00    -0.056 C 
ATOM     21  H2  <0> d          -0.501   6.507   0.276  0.00  0.00     0.030 H 
ATOM     22  H3  <0> d           0.961   6.731   1.267  0.00  0.00     0.030 H 
ATOM     23  H4  <0> d           0.724   7.706  -0.204  0.00  0.00     0.030 H 
ENDBRANCH  17  20
ENDBRANCH  16  17
ENDBRANCH  14  16
ENDBRANCH   1  14
TORSDOF 4
