REMARK  1 active torsions:
REMARK  status: ('A' for Active; 'I' for Inactive)
REMARK    1  A    between atoms: C3_3  and  C7_9 
ROOT
ATOM      1  C1  <0> d          -0.019   1.528   0.010  0.00  0.00    -0.059 C 
ATOM      2  C2  <0> d           1.417   2.056  -0.000  0.00  0.00    -0.061 C 
ATOM      3  C3  <0> d           2.137   1.627   1.279  0.00  0.00    -0.044 C 
ATOM      4  H1  <0> d           1.576   1.977   2.146  0.00  0.00     0.041 H 
ATOM      5  C4  <0> d           2.239   0.099   1.319  0.00  0.00    -0.006 C 
ATOM      6  C5  <0> d           0.850  -0.480   1.161  0.00  0.00     0.127 C 
ATOM      7  O1  <0> d           0.429  -1.301   1.940  0.00  0.00    -0.298 OA
ATOM      8  C6  <0> d           0.002  -0.004   0.002  0.00  0.00    -0.010 C 
ATOM      9  H2  <0> d          -0.528   1.880   0.907  0.00  0.00     0.033 H 
ATOM     10  H3  <0> d          -0.545   1.889  -0.873  0.00  0.00     0.033 H 
ATOM     11  H4  <0> d           1.944   1.653  -0.865  0.00  0.00     0.033 H 
ATOM     12  H5  <0> d           1.402   3.144  -0.061  0.00  0.00     0.033 H 
ATOM     13  H6  <0> d           2.874  -0.247   0.503  0.00  0.00     0.044 H 
ATOM     14  H7  <0> d           2.660  -0.215   2.274  0.00  0.00     0.044 H 
ATOM     15  H8  <0> d          -1.014  -0.385   0.111  0.00  0.00     0.044 H 
ATOM     16  H9  <0> d           0.431  -0.359  -0.935  0.00  0.00     0.044 H 
ENDROOT
BRANCH   3  17
ATOM     17  C7  <0> d           3.541   2.233   1.302  0.00  0.00    -0.050 A 
ATOM     18  C9  <0> d           4.426   1.920   2.510  0.00  0.00    -0.061 A 
ATOM     19  C8  <0> d           3.826   3.317   2.344  0.00  0.00    -0.061 A 
ATOM     20  H13 <0> d           4.008   1.282   3.288  0.00  0.00     0.033 H 
ATOM     21  H14 <0> d           5.496   1.807   2.334  0.00  0.00     0.033 H 
ATOM     22  H11 <0> d           4.501   4.124   2.059  0.00  0.00     0.033 H 
ATOM     23  H12 <0> d           3.013   3.598   3.013  0.00  0.00     0.033 H 
ATOM     24  H10 <0> d           4.029   2.327   0.332  0.00  0.00     0.040 H 
ENDBRANCH   3  17
TORSDOF 1
