REMARK  2 active torsions:
REMARK  status: ('A' for Active; 'I' for Inactive)
REMARK    1  A    between atoms: C1_1  and  C2_2 
REMARK    2  A    between atoms: C2_2  and  C8_9 
ROOT
ATOM      1  C2  <0> d          -0.738   1.584   1.263  0.00  0.00    -0.041 C 
ATOM      2  C3  <0> d          -2.211   1.162   1.194  0.00  0.00    -0.058 C 
ATOM      3  C4  <0> d          -2.891   1.838   0.002  0.00  0.00    -0.058 C 
ATOM      4  C5  <0> d          -2.243   1.349  -1.297  0.00  0.00    -0.010 C 
ATOM      5  C6  <0> d          -0.752   1.591  -1.212  0.00  0.00     0.127 C 
ATOM      6  O1  <0> d          -0.167   2.171  -2.094  0.00  0.00    -0.298 OA
ATOM      7  C7  <0> d          -0.013   1.086   0.008  0.00  0.00    -0.003 C 
ATOM      8  H4  <0> d          -2.714   1.459   2.115  0.00  0.00     0.034 H 
ATOM      9  H5  <0> d          -2.271   0.080   1.081  0.00  0.00     0.034 H 
ATOM     10  H6  <0> d          -2.776   2.919   0.082  0.00  0.00     0.033 H 
ATOM     11  H7  <0> d          -3.951   1.584  -0.003  0.00  0.00     0.033 H 
ATOM     12  H8  <0> d          -2.627   1.852  -2.071  0.00  0.00     0.044 H 
ATOM     13  H9  <0> d          -2.434   0.284  -1.424  0.00  0.00     0.044 H 
ATOM     14  H10 <0> d           0.004   0.086   0.007  0.00  0.00     0.045 H 
ATOM     15  H11 <0> d           1.009   1.466   0.000  0.00  0.00     0.045 H 
ENDROOT
BRANCH   1  16
ATOM     16  C1  <0> d          -0.084   0.976   2.505  0.00  0.00    -0.069 C 
ATOM     17  H1  <0> d           0.964   1.275   2.548  0.00  0.00     0.028 H 
ATOM     18  H2  <0> d          -0.599   1.330   3.398  0.00  0.00     0.028 H 
ATOM     19  H3  <0> d          -0.149  -0.111   2.455  0.00  0.00     0.028 H 
ENDBRANCH   1  16
BRANCH   1  20
ATOM     20  C8  <0> d          -0.647   3.110   1.333  0.00  0.00    -0.069 C 
ATOM     21  H12 <0> d          -1.113   3.542   0.448  0.00  0.00     0.028 H 
ATOM     22  H13 <0> d          -1.163   3.463   2.225  0.00  0.00     0.028 H 
ATOM     23  H14 <0> d           0.400   3.410   1.375  0.00  0.00     0.028 H 
ENDBRANCH   1  20
TORSDOF 2
