REMARK  3 active torsions:
REMARK  status: ('A' for Active; 'I' for Inactive)
REMARK    1  A    between atoms: C1_1  and  C2_2 
REMARK    2  A    between atoms: C2_2  and  C8_11 
REMARK    3  A    between atoms: C4_4  and  C6_8 
ROOT
ATOM      1  C2  <0> d          -0.018   1.509   0.010  0.00  0.00     0.037 C 
ATOM      2  C3  <0> d           1.475   1.908  -0.002  0.00  0.00    -0.015 C 
ATOM      3  C4  <0> d           2.128   0.667  -0.649  0.00  0.00     0.119 C 
ATOM      4  N1  <0> d           1.217  -0.448  -0.365  0.00  0.00    -0.339 N 
ATOM      5  C5  <0> d           0.002  -0.004   0.002  0.00  0.00     0.227 C 
ATOM      6  O1  <0> d          -0.940  -0.713   0.285  0.00  0.00    -0.273 OA
ATOM      7  C7  <0> d           2.261   0.858  -2.102  0.00  0.00     0.090 C 
ATOM      8  N2  <0> d           2.364   1.006  -3.224  0.00  0.00    -0.195 NA
ATOM      9  H4  <0> d           1.637   2.797  -0.612  0.00  0.00     0.040 H 
ATOM     10  H5  <0> d           1.847   2.060   1.012  0.00  0.00     0.040 H 
ATOM     11  H6  <0> d           1.459  -1.385  -0.434  0.00  0.00     0.164 HD
ENDROOT
BRANCH   3  12
ATOM     12  C6  <0> d           3.499   0.402  -0.023  0.00  0.00    -0.041 C 
ATOM     13  H7  <0> d           3.928  -0.501  -0.457  0.00  0.00     0.032 H 
ATOM     14  H8  <0> d           4.157   1.248  -0.219  0.00  0.00     0.032 H 
ATOM     15  H9  <0> d           3.387   0.271   1.054  0.00  0.00     0.032 H 
ENDBRANCH   3  12
BRANCH   1  16
ATOM     16  C1  <0> d          -0.725   2.041  -1.238  0.00  0.00    -0.061 C 
ATOM     17  H1  <0> d          -1.759   1.694  -1.246  0.00  0.00     0.029 H 
ATOM     18  H2  <0> d          -0.708   3.131  -1.228  0.00  0.00     0.029 H 
ATOM     19  H3  <0> d          -0.213   1.678  -2.128  0.00  0.00     0.029 H 
ENDBRANCH   1  16
BRANCH   1  20
ATOM     20  C8  <0> d          -0.701   2.028   1.277  0.00  0.00    -0.061 C 
ATOM     21  H10 <0> d          -0.172   1.655   2.154  0.00  0.00     0.029 H 
ATOM     22  H11 <0> d          -0.684   3.118   1.278  0.00  0.00     0.029 H 
ATOM     23  H12 <0> d          -1.734   1.681   1.301  0.00  0.00     0.029 H 
ENDBRANCH   1  20
TORSDOF 3
