REMARK  1 active torsions:
REMARK  status: ('A' for Active; 'I' for Inactive)
REMARK    1  A    between atoms: C3_4  and  C5_8 
ROOT
ATOM      1  C1  <0> d          -0.017   1.386   0.010  0.00  0.00    -0.027 A 
ATOM      2  C2  <0> d           1.194   2.064   0.002  0.00  0.00     0.008 A 
ATOM      3  N1  <0> d           2.319   1.373  -0.013  0.00  0.00    -0.235 NA
ATOM      4  C3  <0> d           2.302   0.049  -0.020  0.00  0.00     0.228 A 
ATOM      5  N2  <0> d           1.165  -0.632  -0.013  0.00  0.00    -0.211 NA
ATOM      6  C4  <0> d           0.002  -0.004   0.002  0.00  0.00     0.130 A 
ATOM      7 Cl1  <0> d          -1.483  -0.904   0.012  0.00  0.00    -0.062 Cl
ATOM      8  H1  <0> d          -0.952   1.925   0.026  0.00  0.00     0.090 H 
ATOM      9  H2  <0> d           1.215   3.144   0.007  0.00  0.00     0.115 H 
ENDROOT
BRANCH   4  10
ATOM     10  C5  <0> d           3.588  -0.692  -0.036  0.00  0.00     0.249 C 
ATOM     11  O1  <0> d           4.646  -0.079  -0.043  0.00  0.00    -0.642 OA
ATOM     12  O2  <0> d           3.590  -1.914  -0.043  0.00  0.00    -0.642 OA
ENDBRANCH   4  10
TORSDOF 1
