REMARK  2 active torsions:
REMARK  status: ('A' for Active; 'I' for Inactive)
REMARK    1  A    between atoms: C1_1  and  N1_2 
REMARK    2  A    between atoms: N1_2  and  C2_3 
ROOT
ATOM      1  C2  <0> d          -1.229   1.647   0.017  0.00  0.00     0.212 A 
ATOM      2  C3  <0> d          -2.500   0.905   0.019  0.00  0.00     0.296 A 
ATOM      3  O1  <0> d          -2.505  -0.311   0.012  0.00  0.00    -0.264 OA
ATOM      4  N2  <0> d          -3.661   1.593   0.029  0.00  0.00    -0.271 N 
ATOM      5  H1  <0> d          -4.532   1.103   0.030  0.00  0.00     0.174 HD
ATOM      6  C4  <0> d          -3.647   2.939   0.036  0.00  0.00     0.343 A 
ATOM      7  O2  <0> d          -4.700   3.548   0.044  0.00  0.00    -0.245 OA
ATOM      8  N3  <0> d          -2.489   3.622   0.034  0.00  0.00    -0.226 N 
ATOM      9  H2  <0> d          -2.506   4.592   0.039  0.00  0.00     0.194 HD
ATOM     10  N4  <0> d          -1.258   2.954   0.030  0.00  0.00    -0.147 NA
ENDROOT
BRANCH   1  11
ATOM     11  N1  <0> d          -0.011   0.966   0.007  0.00  0.00    -0.373 N 
ATOM     12  H6  <0> d           0.002  -0.004   0.002  0.00  0.00     0.160 HD
BRANCH  11  13
ATOM     13  C1  <0> d           1.248   1.716  -0.001  0.00  0.00    -0.019 C 
ATOM     14  H3  <0> d           1.305   2.338   0.892  0.00  0.00     0.056 H 
ATOM     15  H4  <0> d           2.086   1.019  -0.012  0.00  0.00     0.056 H 
ATOM     16  H5  <0> d           1.288   2.348  -0.888  0.00  0.00     0.056 H 
ENDBRANCH  11  13
ENDBRANCH   1  11
TORSDOF 2
