REMARK  0 active torsions:
REMARK  status: ('A' for Active; 'I' for Inactive)
ROOT
ATOM      1  C1  <0> d          -4.452   1.343   2.215  0.00  0.00    -0.065 C 
ATOM      2  C2  <0> d          -4.998   2.219   1.087  0.00  0.00    -0.063 C 
ATOM      3  C3  <0> d          -4.232   1.937  -0.210  0.00  0.00    -0.046 C 
ATOM      4  C4  <0> d          -2.752   2.236   0.015  0.00  0.00     0.015 C 
ATOM      5  H1  <0> d          -2.649   3.267   0.350  0.00  0.00     0.073 H 
ATOM      6  C5  <0> d          -2.217   1.323   1.119  0.00  0.00    -0.034 C 
ATOM      7  H2  <0> d          -2.380   0.282   0.841  0.00  0.00     0.043 H 
ATOM      8  C6  <0> d          -2.960   1.624   2.420  0.00  0.00    -0.060 C 
ATOM      9  C7  <0> d          -0.721   1.576   1.275  0.00  0.00    -0.052 C 
ATOM     10  C8  <0> d          -0.013   1.086   0.008  0.00  0.00     0.010 C 
ATOM     11  C9  <0> d          -0.731   1.579  -1.214  0.00  0.00     0.217 C 
ATOM     12  O1  <0> d          -0.145   1.538  -2.275  0.00  0.00    -0.274 OA
ATOM     13  N1  <0> d          -1.977   2.061  -1.203  0.00  0.00    -0.356 N 
ATOM     14  H3  <0> d          -4.991   1.563   3.136  0.00  0.00     0.033 H 
ATOM     15  H4  <0> d          -4.590   0.293   1.958  0.00  0.00     0.033 H 
ATOM     16  H5  <0> d          -4.882   3.269   1.355  0.00  0.00     0.033 H 
ATOM     17  H6  <0> d          -6.055   1.998   0.938  0.00  0.00     0.033 H 
ATOM     18  H7  <0> d          -4.616   2.575  -1.007  0.00  0.00     0.036 H 
ATOM     19  H8  <0> d          -4.356   0.891  -0.490  0.00  0.00     0.036 H 
ATOM     20  H9  <0> d          -2.819   2.672   2.687  0.00  0.00     0.033 H 
ATOM     21  H10 <0> d          -2.575   0.989   3.218  0.00  0.00     0.033 H 
ATOM     22  H11 <0> d          -0.348   1.028   2.140  0.00  0.00     0.034 H 
ATOM     23  H12 <0> d          -0.540   2.642   1.408  0.00  0.00     0.034 H 
ATOM     24  H13 <0> d           0.002  -0.004   0.002  0.00  0.00     0.047 H 
ATOM     25  H14 <0> d           1.011   1.460   0.000  0.00  0.00     0.047 H 
ATOM     26  H15 <0> d          -2.385   2.306  -2.049  0.00  0.00     0.162 HD
ENDROOT
TORSDOF 0
