REMARK  4 active torsions:
REMARK  status: ('A' for Active; 'I' for Inactive)
REMARK    1  A    between atoms: C1_1  and  C2_2 
REMARK    2  A    between atoms: C2_2  and  N1_3 
REMARK    3  A    between atoms: N1_3  and  C3_4 
REMARK    4  A    between atoms: C7_8  and  N2_10 
ROOT
ATOM      1  C3  <0> d          -1.609  -1.888   0.007  0.00  0.00     0.030 A 
ATOM      2  C4  <0> d          -0.541  -2.777  -0.002  0.00  0.00    -0.057 A 
ATOM      3  C5  <0> d          -0.774  -4.139  -0.007  0.00  0.00    -0.079 A 
ATOM      4  C6  <0> d          -2.069  -4.621  -0.004  0.00  0.00    -0.058 A 
ATOM      5  C7  <0> d          -3.141  -3.737   0.006  0.00  0.00     0.027 A 
ATOM      6  C8  <0> d          -2.910  -2.369   0.017  0.00  0.00    -0.032 A 
ATOM      7  H7  <0> d           0.472  -2.403  -0.005  0.00  0.00     0.086 H 
ATOM      8  H8  <0> d           0.058  -4.828  -0.015  0.00  0.00     0.083 H 
ATOM      9  H9  <0> d          -2.248  -5.686  -0.008  0.00  0.00     0.086 H 
ATOM     10  H10 <0> d          -3.742  -1.680   0.029  0.00  0.00     0.090 H 
ENDROOT
BRANCH   1  11
ATOM     11  N1  <0> d          -1.372  -0.511   0.012  0.00  0.00    -0.390 N 
ATOM     12  H6  <0> d          -2.118   0.109   0.023  0.00  0.00     0.159 HD
BRANCH  11  13
ATOM     13  C2  <0> d           0.002  -0.004   0.002  0.00  0.00    -0.011 C 
ATOM     14  H4  <0> d           0.512  -0.356  -0.895  0.00  0.00     0.063 H 
ATOM     15  H5  <0> d           0.529  -0.365   0.885  0.00  0.00     0.063 H 
BRANCH  13  16
ATOM     16  C1  <0> d          -0.019   1.526   0.010  0.00  0.00    -0.061 C 
ATOM     17  H1  <0> d           1.004   1.903   0.003  0.00  0.00     0.029 H 
ATOM     18  H2  <0> d          -0.546   1.887  -0.873  0.00  0.00     0.029 H 
ATOM     19  H3  <0> d          -0.529   1.877   0.907  0.00  0.00     0.029 H 
ENDBRANCH  13  16
ENDBRANCH  11  13
ENDBRANCH   1  11
BRANCH   5  20
ATOM     20  N2  <0> d          -4.449  -4.226   0.009  0.00  0.00    -0.399 N 
ATOM     21  H11 <0> d          -4.610  -5.182   0.005  0.00  0.00     0.156 HD
ATOM     22  H12 <0> d          -5.198  -3.608   0.015  0.00  0.00     0.156 HD
ENDBRANCH   5  20
TORSDOF 4
