REMARK  0 active torsions:
REMARK  status: ('A' for Active; 'I' for Inactive)
ROOT
ATOM      1  C1  <0> d          -1.833   2.339  -2.767  0.00  0.00    -0.065 C 
ATOM      2  C2  <0> d          -1.913   0.888  -2.285  0.00  0.00    -0.063 C 
ATOM      3  C3  <0> d          -2.325   0.871  -0.812  0.00  0.00    -0.046 C 
ATOM      4  C4  <0> d          -1.303   1.635   0.017  0.00  0.00     0.015 C 
ATOM      5  H1  <0> d          -1.668   1.656   1.044  0.00  0.00     0.073 H 
ATOM      6  C5  <0> d          -1.173   3.075  -0.468  0.00  0.00    -0.034 C 
ATOM      7  H2  <0> d          -2.112   3.611  -0.328  0.00  0.00     0.043 H 
ATOM      8  C6  <0> d          -0.781   3.086  -1.948  0.00  0.00    -0.060 C 
ATOM      9  C7  <0> d          -0.055   3.756   0.338  0.00  0.00    -0.052 C 
ATOM     10  C8  <0> d           1.277   3.108  -0.050  0.00  0.00     0.010 C 
ATOM     11  C9  <0> d           1.157   1.612  -0.000  0.00  0.00     0.217 C 
ATOM     12  O1  <0> d           2.177   0.956   0.035  0.00  0.00    -0.274 OA
ATOM     13  N1  <0> d          -0.011   0.966   0.007  0.00  0.00    -0.356 N 
ATOM     14  H3  <0> d          -2.804   2.819  -2.638  0.00  0.00     0.033 H 
ATOM     15  H4  <0> d          -1.556   2.358  -3.821  0.00  0.00     0.033 H 
ATOM     16  H5  <0> d          -2.652   0.348  -2.877  0.00  0.00     0.033 H 
ATOM     17  H6  <0> d          -0.938   0.413  -2.397  0.00  0.00     0.033 H 
ATOM     18  H7  <0> d          -3.303   1.339  -0.704  0.00  0.00     0.036 H 
ATOM     19  H8  <0> d          -2.378  -0.161  -0.464  0.00  0.00     0.036 H 
ATOM     20  H9  <0> d          -0.713   4.116  -2.297  0.00  0.00     0.033 H 
ATOM     21  H10 <0> d           0.186   2.598  -2.070  0.00  0.00     0.033 H 
ATOM     22  H11 <0> d          -0.234   3.618   1.404  0.00  0.00     0.034 H 
ATOM     23  H12 <0> d          -0.028   4.820   0.103  0.00  0.00     0.034 H 
ATOM     24  H13 <0> d           2.051   3.432   0.645  0.00  0.00     0.047 H 
ATOM     25  H14 <0> d           1.548   3.416  -1.059  0.00  0.00     0.047 H 
ATOM     26  H15 <0> d           0.002  -0.004   0.002  0.00  0.00     0.162 HD
ENDROOT
TORSDOF 0
