REMARK  5 active torsions:
REMARK  status: ('A' for Active; 'I' for Inactive)
REMARK    1  A    between atoms: C1_1  and  C2_2 
REMARK    2  A    between atoms: C5_6  and  C8_12 
REMARK    3  A    between atoms: C6_8  and  O1_11 
REMARK    4  A    between atoms: C8_12  and  C9_13 
REMARK    5  A    between atoms: C8_12  and  C10_14 
ROOT
ATOM      1  C2  <0> d           0.012   0.000   0.022  0.00  0.00    -0.055 C 
ATOM      2  H1  <0> d           0.528  -0.348  -0.873  0.00  0.00     0.039 H 
ATOM      3  C3  <0> d          -1.424  -0.529   0.021  0.00  0.00    -0.061 C 
ATOM      4  C4  <0> d          -1.404  -2.058   0.007  0.00  0.00    -0.059 C 
ATOM      5  C5  <0> d          -0.672  -2.570   1.250  0.00  0.00    -0.026 C 
ATOM      6  H2  <0> d          -1.188  -2.222   2.144  0.00  0.00     0.044 H 
ATOM      7  C6  <0> d           0.764  -2.041   1.250  0.00  0.00     0.040 C 
ATOM      8  H3  <0> d           1.280  -2.390   0.355  0.00  0.00     0.083 H 
ATOM      9  C7  <0> d           0.743  -0.511   1.264  0.00  0.00    -0.038 C 
ATOM     10  H7  <0> d          -1.940  -0.180   0.916  0.00  0.00     0.033 H 
ATOM     11  H8  <0> d          -1.945  -0.164  -0.864  0.00  0.00     0.033 H 
ATOM     12  H9  <0> d          -2.426  -2.435   0.007  0.00  0.00     0.033 H 
ATOM     13  H10 <0> d          -0.888  -2.407  -0.887  0.00  0.00     0.033 H 
ATOM     14  H11 <0> d           1.766  -0.135   1.265  0.00  0.00     0.037 H 
ATOM     15  H12 <0> d           0.228  -0.163   2.159  0.00  0.00     0.037 H 
ENDROOT
BRANCH   5  16
ATOM     16  C8  <0> d          -0.652  -4.100   1.236  0.00  0.00    -0.055 C 
ATOM     17  H14 <0> d          -0.049  -4.463   2.068  0.00  0.00     0.039 H 
BRANCH  16  18
ATOM     18  C9  <0> d          -2.080  -4.630   1.372  0.00  0.00    -0.073 C 
ATOM     19  H15 <0> d          -2.659  -4.345   0.494  0.00  0.00     0.028 H 
ATOM     20  H16 <0> d          -2.058  -5.717   1.455  0.00  0.00     0.028 H 
ATOM     21  H17 <0> d          -2.542  -4.207   2.264  0.00  0.00     0.028 H 
ENDBRANCH  16  18
BRANCH  16  22
ATOM     22  C10 <0> d          -0.050  -4.590  -0.083  0.00  0.00    -0.073 C 
ATOM     23  H18 <0> d           0.968  -4.212  -0.180  0.00  0.00     0.028 H 
ATOM     24  H19 <0> d          -0.035  -5.680  -0.093  0.00  0.00     0.028 H 
ATOM     25  H20 <0> d          -0.653  -4.227  -0.915  0.00  0.00     0.028 H 
ENDBRANCH  16  22
ENDBRANCH   5  16
BRANCH   7  26
ATOM     26  O1  <0> d           1.447  -2.519   2.411  0.00  0.00    -0.395 OA
ATOM     27  H13 <0> d           2.365  -2.223   2.477  0.00  0.00     0.210 HD
ENDBRANCH   7  26
BRANCH   1  28
ATOM     28  C1  <0> d          -0.008   1.530   0.036  0.00  0.00    -0.073 C 
ATOM     29  H4  <0> d           1.014   1.907   0.036  0.00  0.00     0.028 H 
ATOM     30  H5  <0> d          -0.530   1.895  -0.849  0.00  0.00     0.028 H 
ATOM     31  H6  <0> d          -0.524   1.878   0.931  0.00  0.00     0.028 H 
ENDBRANCH   1  28
TORSDOF 5
