REMARK  0 active torsions:
REMARK  status: ('A' for Active; 'I' for Inactive)
ROOT
ATOM      1  C1  <0> d           3.681   1.858  -0.022  0.00  0.00    -0.038 A 
ATOM      2  C2  <0> d           4.481   0.768  -0.035  0.00  0.00    -0.020 A 
ATOM      3  N1  <0> d           3.712  -0.352  -0.034  0.00  0.00    -0.360 N 
ATOM      4  H1  <0> d           4.185  -1.345  -0.043  0.00  0.00     0.165 HD
ATOM      5  C3  <0> d           2.386   0.026  -0.020  0.00  0.00     0.130 A 
ATOM      6  C4  <0> d           2.351   1.416  -0.013  0.00  0.00     0.096 A 
ATOM      7  N2  <0> d           1.122   2.060   0.002  0.00  0.00    -0.192 NA
ATOM      8  C5  <0> d          -0.016   1.340   0.009  0.00  0.00     0.349 A 
ATOM      9  O1  <0> d          -1.085   1.919   0.018  0.00  0.00    -0.244 OA
ATOM     10  N3  <0> d           0.002  -0.004   0.002  0.00  0.00    -0.272 N 
ATOM     11  H2  <0> d          -0.943  -0.567   0.008  0.00  0.00     0.174 HD
ATOM     12  C6  <0> d           1.165  -0.687  -0.012  0.00  0.00     0.278 A 
ATOM     13  O2  <0> d           1.163  -1.905  -0.018  0.00  0.00    -0.265 OA
ATOM     14  H3  <0> d           4.008   2.887  -0.020  0.00  0.00     0.089 H 
ATOM     15  H4  <0> d           5.561   0.785  -0.045  0.00  0.00     0.111 H 
ENDROOT
TORSDOF 0
