REMARK  4 active torsions:
REMARK  status: ('A' for Active; 'I' for Inactive)
REMARK    1  A    between atoms: C1_1  and  C2_2 
REMARK    2  A    between atoms: C2_2  and  O1_3 
REMARK    3  A    between atoms: O1_3  and  C3_4 
REMARK    4  A    between atoms: C3_4  and  C4_6 
ROOT
ATOM      1  C4  <0> d          -1.329   1.940   0.019  0.00  0.00     0.122 C 
ATOM      2  H1  <0> d          -1.374   2.576   0.915  0.00  0.00     0.099 H 
ATOM      3  C5  <0> d          -1.498   2.731  -1.293  0.00  0.00    -0.030 C 
ATOM      4  C6  <0> d          -2.805   2.175  -1.907  0.00  0.00    -0.042 C 
ATOM      5  C7  <0> d          -3.507   1.556  -0.671  0.00  0.00     0.021 C 
ATOM      6  O3  <0> d          -2.414   1.000   0.097  0.00  0.00    -0.376 OA
ATOM      7  H7  <0> d          -1.572   3.805  -1.066  0.00  0.00     0.037 H 
ATOM      8  H8  <0> d          -0.628   2.553  -1.942  0.00  0.00     0.037 H 
ATOM      9  H9  <0> d          -3.377   2.998  -2.359  0.00  0.00     0.036 H 
ATOM     10  H10 <0> d          -2.560   1.431  -2.679  0.00  0.00     0.036 H 
ATOM     11  H11 <0> d          -4.045   2.343  -0.122  0.00  0.00     0.074 H 
ATOM     12  H12 <0> d          -4.220   0.786  -1.001  0.00  0.00     0.074 H 
ENDROOT
BRANCH   1  13
ATOM     13  C3  <0> d          -0.014   1.204   0.009  0.00  0.00     0.288 C 
ATOM     14  O2  <0> d           0.002  -0.004   0.002  0.00  0.00    -0.262 OA
BRANCH  13  15
ATOM     15  O1  <0> d           1.139   1.891   0.001  0.00  0.00    -0.320 OA
BRANCH  15  16
ATOM     16  C2  <0> d           2.367   1.117  -0.015  0.00  0.00     0.026 C 
ATOM     17  H5  <0> d           2.392   0.487  -0.916  0.00  0.00     0.074 H 
ATOM     18  H6  <0> d           2.409   0.478   0.880  0.00  0.00     0.074 H 
BRANCH  16  19
ATOM     19  C1  <0> d           3.568   2.065  -0.021  0.00  0.00    -0.056 C 
ATOM     20  H2  <0> d           4.498   1.479  -0.033  0.00  0.00     0.030 H 
ATOM     21  H3  <0> d           3.542   2.695   0.881  0.00  0.00     0.030 H 
ATOM     22  H4  <0> d           3.525   2.704  -0.915  0.00  0.00     0.030 H 
ENDBRANCH  16  19
ENDBRANCH  15  16
ENDBRANCH  13  15
ENDBRANCH   1  13
TORSDOF 4
