REMARK  2 active torsions:
REMARK  status: ('A' for Active; 'I' for Inactive)
REMARK    1  A    between atoms: C1_1  and  C2_2 
REMARK    2  A    between atoms: C8_8  and  N1_11 
ROOT
ATOM      1  C2  <0> d           0.002  -0.004   0.002  0.00  0.00     0.051 A 
ATOM      2  C3  <0> d           1.267  -0.448  -0.012  0.00  0.00    -0.042 A 
ATOM      3  C4  <0> d           2.119   0.747  -0.014  0.00  0.00     0.002 A 
ATOM      4  C5  <0> d           3.499   0.960  -0.026  0.00  0.00    -0.070 A 
ATOM      5  C6  <0> d           3.990   2.236  -0.025  0.00  0.00    -0.080 A 
ATOM      6  C7  <0> d           3.128   3.322  -0.011  0.00  0.00    -0.055 A 
ATOM      7  C8  <0> d           1.757   3.133   0.002  0.00  0.00     0.060 A 
ATOM      8  C9  <0> d           1.237   1.837   0.000  0.00  0.00     0.112 A 
ATOM      9  O1  <0> d          -0.016   1.340   0.009  0.00  0.00    -0.312 OA
ATOM     10  H4  <0> d           1.593  -1.477  -0.021  0.00  0.00     0.088 H 
ATOM     11  H5  <0> d           4.176   0.119  -0.037  0.00  0.00     0.084 H 
ATOM     12  H6  <0> d           5.058   2.399  -0.035  0.00  0.00     0.083 H 
ATOM     13  H7  <0> d           3.530   4.324  -0.010  0.00  0.00     0.087 H 
ENDROOT
BRANCH   1  14
ATOM     14  C1  <0> d          -1.221  -0.884   0.010  0.00  0.00    -0.031 C 
ATOM     15  H1  <0> d          -2.116  -0.262   0.022  0.00  0.00     0.036 H 
ATOM     16  H2  <0> d          -1.225  -1.509  -0.883  0.00  0.00     0.036 H 
ATOM     17  H3  <0> d          -1.208  -1.518   0.896  0.00  0.00     0.036 H 
ENDBRANCH   1  14
BRANCH   7  18
ATOM     18  N1  <0> d           0.896   4.234   0.015  0.00  0.00    -0.397 N 
ATOM     19  H8  <0> d          -0.065   4.099   0.024  0.00  0.00     0.156 HD
ATOM     20  H9  <0> d           1.259   5.134   0.017  0.00  0.00     0.156 HD
ENDBRANCH   7  18
TORSDOF 2
