REMARK  3 active torsions:
REMARK  status: ('A' for Active; 'I' for Inactive)
REMARK    1  A    between atoms: C1_1  and  C2_2 
REMARK    2  A    between atoms: C2_2  and  C3_3 
REMARK    3  A    between atoms: C6_6  and  C7_9 
ROOT
ATOM      1  C3  <0> d          -1.090   2.257   3.322  0.00  0.00     0.009 A 
ATOM      2  C4  <0> d          -2.276   2.253   2.680  0.00  0.00    -0.059 A 
ATOM      3  C5  <0> d          -2.038   1.822   1.359  0.00  0.00    -0.060 A 
ATOM      4  C6  <0> d          -0.718   1.572   1.248  0.00  0.00     0.005 A 
ATOM      5  N1  <0> d          -0.131   1.840   2.449  0.00  0.00    -0.363 N 
ATOM      6  H1  <0> d           0.918   1.770   2.775  0.00  0.00     0.165 HD
ATOM      7  H7  <0> d          -3.231   2.531   3.099  0.00  0.00     0.086 H 
ATOM      8  H8  <0> d          -2.778   1.711   0.580  0.00  0.00     0.086 H 
ENDROOT
BRANCH   1   9
ATOM      9  C2  <0> d          -0.865   2.654   4.759  0.00  0.00    -0.030 C 
ATOM     10  H5  <0> d           0.042   2.161   5.138  0.00  0.00     0.041 H 
ATOM     11  H6  <0> d          -1.731   2.346   5.364  0.00  0.00     0.041 H 
BRANCH   9  12
ATOM     12  C1  <0> d          -0.695   4.172   4.847  0.00  0.00    -0.071 C 
ATOM     13  H2  <0> d          -0.531   4.462   5.895  0.00  0.00     0.028 H 
ATOM     14  H3  <0> d          -1.602   4.665   4.468  0.00  0.00     0.028 H 
ATOM     15  H4  <0> d           0.170   4.480   4.241  0.00  0.00     0.028 H 
ENDBRANCH   9  12
ENDBRANCH   1   9
BRANCH   4  16
ATOM     16  C7  <0> d          -0.013   1.086   0.008  0.00  0.00    -0.037 C 
ATOM     17  H9  <0> d           1.061   0.972   0.218  0.00  0.00     0.035 H 
ATOM     18  H10 <0> d          -0.152   1.816  -0.803  0.00  0.00     0.035 H 
ATOM     19  H11 <0> d          -0.432   0.115  -0.296  0.00  0.00     0.035 H 
ENDBRANCH   4  16
TORSDOF 3
