REMARK  1 active torsions:
REMARK  status: ('A' for Active; 'I' for Inactive)
REMARK    1  A    between atoms: C1_1  and  C2_2 
ROOT
ATOM      1  C2  <0> d          -1.139   2.195   0.019  0.00  0.00    -0.004 A 
ATOM      2  C3  <0> d          -0.680   3.583   0.028  0.00  0.00     0.007 A 
ATOM      3  C4  <0> d          -1.326   4.822   0.040  0.00  0.00    -0.070 A 
ATOM      4  C5  <0> d          -0.586   5.971   0.039  0.00  0.00    -0.082 A 
ATOM      5  C6  <0> d           0.801   5.915   0.026  0.00  0.00    -0.080 A 
ATOM      6  C7  <0> d           1.456   4.703   0.013  0.00  0.00    -0.049 A 
ATOM      7  C8  <0> d           0.726   3.521   0.014  0.00  0.00     0.087 A 
ATOM      8  O1  <0> d           1.075   2.219   0.004  0.00  0.00    -0.298 OA
ATOM      9  C9  <0> d          -0.017   1.428   0.010  0.00  0.00     0.162 A 
ATOM     10  C10 <0> d           0.002  -0.004   0.002  0.00  0.00     0.126 C 
ATOM     11  N1  <0> d           0.018  -1.140  -0.004  0.00  0.00    -0.189 NA
ATOM     12  H4  <0> d          -2.405   4.871   0.050  0.00  0.00     0.085 H 
ATOM     13  H5  <0> d          -1.084   6.929   0.049  0.00  0.00     0.083 H 
ATOM     14  H6  <0> d           1.372   6.831   0.026  0.00  0.00     0.083 H 
ATOM     15  H7  <0> d           2.536   4.672   0.003  0.00  0.00     0.087 H 
ENDROOT
BRANCH   1  16
ATOM     16  C1  <0> d          -2.567   1.712   0.022  0.00  0.00    -0.047 C 
ATOM     17  H1  <0> d          -2.907   1.590   1.051  0.00  0.00     0.033 H 
ATOM     18  H2  <0> d          -3.198   2.441  -0.485  0.00  0.00     0.033 H 
ATOM     19  H3  <0> d          -2.628   0.755  -0.496  0.00  0.00     0.033 H 
ENDBRANCH   1  16
TORSDOF 1
