REMARK  2 active torsions:
REMARK  status: ('A' for Active; 'I' for Inactive)
REMARK    1  A    between atoms: C2_2  and  C3_3 
REMARK    2  A    between atoms: C3_3  and  N1_4 
ROOT
ATOM      1  N1  <0> d          -0.698   1.558   1.213  0.00  0.00    -0.363 N 
ATOM      2  C4  <0> d          -0.439   2.725   1.869  0.00  0.00    -0.021 A 
ATOM      3  C5  <0> d          -1.274   2.810   2.925  0.00  0.00    -0.067 A 
ATOM      4  C6  <0> d          -2.071   1.649   2.926  0.00  0.00    -0.067 A 
ATOM      5  C7  <0> d          -1.698   0.901   1.868  0.00  0.00    -0.021 A 
ATOM      6  H6  <0> d           0.305   3.456   1.590  0.00  0.00     0.111 H 
ATOM      7  H7  <0> d          -1.319   3.618   3.640  0.00  0.00     0.085 H 
ATOM      8  H8  <0> d          -2.841   1.403   3.643  0.00  0.00     0.085 H 
ATOM      9  H9  <0> d          -2.118  -0.053   1.587  0.00  0.00     0.111 H 
ENDROOT
BRANCH   1  10
ATOM     10  C3  <0> d          -0.013   1.086   0.008  0.00  0.00     0.013 C 
ATOM     11  H4  <0> d           0.002  -0.004   0.002  0.00  0.00     0.070 H 
ATOM     12  H5  <0> d           1.010   1.463   0.000  0.00  0.00     0.070 H 
BRANCH  10  13
ATOM     13  C2  <0> d          -0.742   1.585  -1.213  0.00  0.00    -0.095 C 
ATOM     14  C1  <0> d          -0.098   2.269  -2.126  0.00  0.00    -0.123 C 
ATOM     15  H1  <0> d          -0.620   2.627  -3.001  0.00  0.00     0.066 H 
ATOM     16  H2  <0> d           0.955   2.475  -2.004  0.00  0.00     0.066 H 
ATOM     17  H3  <0> d          -1.795   1.379  -1.335  0.00  0.00     0.078 H 
ENDBRANCH  10  13
ENDBRANCH   1  10
TORSDOF 2
