REMARK  3 active torsions:
REMARK  status: ('A' for Active; 'I' for Inactive)
REMARK    1  A    between atoms: C1_1  and  C2_2 
REMARK    2  A    between atoms: C5_5  and  N1_8 
REMARK       I    between atoms: N1_8  and  C8_9 
REMARK    3  A    between atoms: C8_9  and  C9_11 
ROOT
ATOM      1  C2  <0> d          -2.909   1.931   0.040  0.00  0.00    -0.058 C 
ATOM      2  C3  <0> d          -2.193   1.438  -1.219  0.00  0.00    -0.060 C 
ATOM      3  C4  <0> d          -0.758   1.968  -1.230  0.00  0.00    -0.046 C 
ATOM      4  C5  <0> d          -0.018   1.461   0.010  0.00  0.00     0.012 C 
ATOM      5  C6  <0> d          -0.734   1.954   1.269  0.00  0.00    -0.046 C 
ATOM      6  C7  <0> d          -2.169   1.425   1.280  0.00  0.00    -0.060 C 
ATOM      7  H4  <0> d          -2.924   3.031   0.046  0.00  0.00     0.039 H 
ATOM      8  H5  <0> d          -2.178   0.338  -1.225  0.00  0.00     0.033 H 
ATOM      9  H6  <0> d          -2.725   1.802  -2.110  0.00  0.00     0.033 H 
ATOM     10  H7  <0> d          -0.243   1.613  -2.135  0.00  0.00     0.036 H 
ATOM     11  H8  <0> d          -0.773   3.067  -1.224  0.00  0.00     0.036 H 
ATOM     12  H9  <0> d           1.029   1.799   0.002  0.00  0.00     0.072 H 
ATOM     13  H10 <0> d          -0.202   1.590   2.160  0.00  0.00     0.036 H 
ATOM     14  H11 <0> d          -0.749   3.054   1.275  0.00  0.00     0.036 H 
ATOM     15  H12 <0> d          -2.684   1.779   2.185  0.00  0.00     0.033 H 
ATOM     16  H13 <0> d          -2.154   0.325   1.274  0.00  0.00     0.033 H 
ENDROOT
BRANCH   4  17
ATOM     17  N1  <0> d           0.002  -0.004   0.002  0.00  0.00    -0.357 N 
ATOM     18  C8  <0> d           0.974  -0.668   0.659  0.00  0.00     0.213 C 
ATOM     19  O1  <0> d           1.831  -0.054   1.256  0.00  0.00    -0.274 OA
ATOM     20  H14 <0> d          -0.776  -0.562  -0.540  0.00  0.00     0.162 HD
BRANCH  18  21
ATOM     21  C9  <0> d           0.994  -2.175   0.650  0.00  0.00    -0.003 C 
ATOM     22  H15 <0> d           1.854  -2.534   1.235  0.00  0.00     0.040 H 
ATOM     23  H16 <0> d           1.079  -2.535  -0.386  0.00  0.00     0.040 H 
ATOM     24  H17 <0> d           0.063  -2.557   1.095  0.00  0.00     0.040 H 
ENDBRANCH  18  21
ENDBRANCH   4  17
BRANCH   1  25
ATOM     25  C1  <0> d          -4.345   1.402   0.051  0.00  0.00    -0.073 C 
ATOM     26  H1  <0> d          -4.877   1.766  -0.840  0.00  0.00     0.028 H 
ATOM     27  H2  <0> d          -4.859   1.757   0.956  0.00  0.00     0.028 H 
ATOM     28  H3  <0> d          -4.330   0.302   0.045  0.00  0.00     0.028 H 
ENDBRANCH   1  25
TORSDOF 3
