REMARK  2 active torsions:
REMARK  status: ('A' for Active; 'I' for Inactive)
REMARK    1  A    between atoms: C2_2  and  N3_9 
REMARK    2  A    between atoms: C3_3  and  C4_6 
ROOT
ATOM      1  C1  <0> d          -0.018   1.467   0.010  0.00  0.00     0.074 A 
ATOM      2  C2  <0> d           1.456   1.836  -0.002  0.00  0.00     0.062 A 
ATOM      3  C3  <0> d           2.095   0.605  -0.015  0.00  0.00     0.178 A 
ATOM      4  N1  <0> d           1.172  -0.387  -0.011  0.00  0.00    -0.146 NA
ATOM      5  N2  <0> d           0.002  -0.004   0.002  0.00  0.00    -0.186 NA
ATOM      6  H1  <0> d          -0.500   1.840   0.913  0.00  0.00     0.079 H 
ATOM      7  H2  <0> d          -0.517   1.850  -0.880  0.00  0.00     0.079 H 
ENDROOT
BRANCH   2   8
ATOM      8  N3  <0> d           2.010   3.067  -0.001  0.00  0.00    -0.399 N 
ATOM      9  H3  <0> d           1.444   3.854   0.009  0.00  0.00     0.156 HD
ATOM     10  H4  <0> d           2.976   3.164  -0.009  0.00  0.00     0.156 HD
ENDBRANCH   2   8
BRANCH   3  11
ATOM     11  C4  <0> d           3.544   0.407  -0.030  0.00  0.00     0.232 C 
ATOM     12  O1  <0> d           4.294   1.375  -0.033  0.00  0.00    -0.643 OA
ATOM     13  O2  <0> d           4.007  -0.727  -0.041  0.00  0.00    -0.643 OA
ENDBRANCH   3  11
TORSDOF 2
