REMARK  2 active torsions:
REMARK  status: ('A' for Active; 'I' for Inactive)
REMARK    1  A    between atoms: C1_1  and  C2_2 
REMARK    2  A    between atoms: C2_2  and  C3_4 
ROOT
ATOM      1  C3  <0> d           1.139  -0.692  -0.013  0.00  0.00     0.103 A 
ATOM      2  C4  <0> d           2.368  -0.034  -0.021  0.00  0.00    -0.032 A 
ATOM      3  C5  <0> d           2.385   1.364  -0.013  0.00  0.00     0.048 A 
ATOM      4  C6  <0> d           1.161   2.041   0.002  0.00  0.00    -0.046 A 
ATOM      5  C7  <0> d          -0.016   1.310   0.009  0.00  0.00     0.004 A 
ATOM      6  N1  <0> d           0.002  -0.004   0.002  0.00  0.00    -0.257 NA
ATOM      7  C8  <0> d           3.623   2.084  -0.022  0.00  0.00     0.099 C 
ATOM      8  N2  <0> d           4.605   2.655  -0.029  0.00  0.00    -0.191 NA
ATOM      9  H4  <0> d           3.291  -0.595  -0.033  0.00  0.00     0.089 H 
ATOM     10  H5  <0> d           1.133   3.121   0.008  0.00  0.00     0.088 H 
ATOM     11  H6  <0> d          -0.963   1.829   0.017  0.00  0.00     0.114 H 
ENDROOT
BRANCH   1  12
ATOM     12  C2  <0> d           1.100  -2.167  -0.020  0.00  0.00     0.174 C 
ATOM     13  O1  <0> d           2.133  -2.801  -0.033  0.00  0.00    -0.291 OA
BRANCH  12  14
ATOM     14  C1  <0> d          -0.225  -2.886  -0.010  0.00  0.00    -0.015 C 
ATOM     15  H1  <0> d          -1.042  -2.149   0.001  0.00  0.00     0.038 H 
ATOM     16  H2  <0> d          -0.291  -3.521   0.885  0.00  0.00     0.038 H 
ATOM     17  H3  <0> d          -0.308  -3.512  -0.911  0.00  0.00     0.038 H 
ENDBRANCH  12  14
ENDBRANCH   1  12
TORSDOF 2
