REMARK  1 active torsions:
REMARK  status: ('A' for Active; 'I' for Inactive)
REMARK    1  A    between atoms: C5_7  and  N4_11 
ROOT
ATOM      1  C1  <0> d          -0.016   1.310   0.009  0.00  0.00     0.020 A 
ATOM      2  C2  <0> d           1.176   2.040   0.002  0.00  0.00     0.020 A 
ATOM      3  N1  <0> d           2.339   1.431  -0.013  0.00  0.00    -0.256 NA
ATOM      4  C3  <0> d           2.385   0.096  -0.021  0.00  0.00     0.102 A 
ATOM      5  C4  <0> d           3.605  -0.602  -0.036  0.00  0.00     0.034 A 
ATOM      6  N2  <0> d           3.615  -1.913  -0.042  0.00  0.00    -0.241 NA
ATOM      7  C5  <0> d           2.500  -2.640  -0.035  0.00  0.00     0.123 A 
ATOM      8  C6  <0> d           1.253  -2.048  -0.020  0.00  0.00    -0.009 A 
ATOM      9  C7  <0> d           1.174  -0.646  -0.013  0.00  0.00     0.090 A 
ATOM     10  N3  <0> d           0.002  -0.004   0.002  0.00  0.00    -0.257 NA
ATOM     11  H1  <0> d          -0.962   1.831   0.026  0.00  0.00     0.117 H 
ATOM     12  H2  <0> d           1.139   3.120   0.008  0.00  0.00     0.117 H 
ATOM     13  H3  <0> d           4.537  -0.056  -0.042  0.00  0.00     0.118 H 
ATOM     14  H4  <0> d           0.357  -2.650  -0.015  0.00  0.00     0.093 H 
ENDROOT
BRANCH   7  15
ATOM     15  N4  <0> d           2.593  -4.027  -0.044  0.00  0.00    -0.384 N 
ATOM     16  H5  <0> d           3.463  -4.455  -0.055  0.00  0.00     0.157 HD
ATOM     17  H6  <0> d           1.787  -4.567  -0.039  0.00  0.00     0.157 HD
ENDBRANCH   7  15
TORSDOF 1
