REMARK  1 active torsions:
REMARK  status: ('A' for Active; 'I' for Inactive)
REMARK    1  A    between atoms: C7_8  and  N2_11 
ROOT
ATOM      1  C1  <0> d           1.171   1.781   0.000  0.00  0.00    -0.043 A 
ATOM      2  C2  <0> d          -0.013   1.076   0.008  0.00  0.00    -0.044 A 
ATOM      3  C3  <0> d          -1.225   1.754   0.017  0.00  0.00     0.115 A 
ATOM      4  C4  <0> d          -1.233   3.157   0.030  0.00  0.00     0.050 A 
ATOM      5  C5  <0> d          -0.028   3.861   0.022  0.00  0.00    -0.029 A 
ATOM      6  C6  <0> d           1.166   3.170   0.007  0.00  0.00     0.117 A 
ATOM      7  F1  <0> d           2.334   3.848  -0.001  0.00  0.00    -0.206 F 
ATOM      8  C7  <0> d          -2.646   3.565   0.045  0.00  0.00     0.162 A 
ATOM      9  N1  <0> d          -3.363   2.475   0.032  0.00  0.00    -0.109 NA
ATOM     10  O1  <0> d          -2.511   1.347   0.022  0.00  0.00    -0.211 OA
ATOM     11  H1  <0> d           2.111   1.250  -0.011  0.00  0.00     0.088 H 
ATOM     12  H2  <0> d           0.002  -0.004   0.002  0.00  0.00     0.088 H 
ATOM     13  H3  <0> d          -0.030   4.941   0.027  0.00  0.00     0.089 H 
ENDROOT
BRANCH   8  14
ATOM     14  N2  <0> d          -3.127   4.867   0.056  0.00  0.00    -0.381 N 
ATOM     15  H4  <0> d          -4.211   5.052   0.067  0.00  0.00     0.157 HD
ATOM     16  H5  <0> d          -2.424   5.713   0.054  0.00  0.00     0.157 HD
ENDBRANCH   8  14
TORSDOF 1
