REMARK  5 active torsions:
REMARK  status: ('A' for Active; 'I' for Inactive)
REMARK    1  A    between atoms: C1_1  and  C2_2 
REMARK    2  A    between atoms: C2_2  and  O1_3 
REMARK    3  A    between atoms: O1_3  and  C3_4 
REMARK    4  A    between atoms: C4_6  and  C7_12 
REMARK    5  A    between atoms: C5_8  and  C6_11 
ROOT
ATOM      1  C3  <0> d           0.746  -1.888  -1.280  0.00  0.00     0.234 C 
ATOM      2  O2  <0> d          -0.573  -2.469  -1.194  0.00  0.00    -0.331 OA
ATOM      3  C4  <0> d          -0.344  -3.834  -0.787  0.00  0.00     0.065 C 
ATOM      4  H1  <0> d          -0.315  -4.490  -1.658  0.00  0.00     0.086 H 
ATOM      5  C5  <0> d           1.029  -3.815  -0.085  0.00  0.00     0.065 C 
ATOM      6  H2  <0> d           1.732  -4.460  -0.611  0.00  0.00     0.086 H 
ATOM      7  O3  <0> d           1.462  -2.440  -0.154  0.00  0.00    -0.331 OA
ATOM      8  H8  <0> d           1.229  -2.174  -2.214  0.00  0.00     0.179 H 
ENDROOT
BRANCH   1   9
ATOM      9  O1  <0> d           0.671  -0.465  -1.174  0.00  0.00    -0.339 OA
BRANCH   9  10
ATOM     10  C2  <0> d           0.002  -0.004   0.002  0.00  0.00     0.021 C 
ATOM     11  H6  <0> d           0.529  -0.365   0.885  0.00  0.00     0.074 H 
ATOM     12  H7  <0> d          -1.020  -0.381   0.010  0.00  0.00     0.074 H 
BRANCH  10  13
ATOM     13  C1  <0> d          -0.019   1.526   0.010  0.00  0.00    -0.056 C 
ATOM     14  H3  <0> d           1.004   1.903   0.003  0.00  0.00     0.030 H 
ATOM     15  H4  <0> d          -0.546   1.887  -0.873  0.00  0.00     0.030 H 
ATOM     16  H5  <0> d          -0.529   1.877   0.907  0.00  0.00     0.030 H 
ENDBRANCH  10  13
ENDBRANCH   9  10
ENDBRANCH   1   9
BRANCH   5  17
ATOM     17  C6  <0> d           0.888  -4.258   1.372  0.00  0.00    -0.050 C 
ATOM     18  H9  <0> d           0.486  -5.271   1.406  0.00  0.00     0.031 H 
ATOM     19  H10 <0> d           1.865  -4.239   1.854  0.00  0.00     0.031 H 
ATOM     20  H11 <0> d           0.212  -3.581   1.894  0.00  0.00     0.031 H 
ENDBRANCH   5  17
BRANCH   3  21
ATOM     21  C7  <0> d          -1.434  -4.290   0.185  0.00  0.00    -0.050 C 
ATOM     22  H12 <0> d          -2.404  -4.248  -0.311  0.00  0.00     0.031 H 
ATOM     23  H13 <0> d          -1.233  -5.313   0.502  0.00  0.00     0.031 H 
ATOM     24  H14 <0> d          -1.442  -3.634   1.055  0.00  0.00     0.031 H 
ENDBRANCH   3  21
TORSDOF 5
