REMARK  3 active torsions:
REMARK  status: ('A' for Active; 'I' for Inactive)
REMARK    1  A    between atoms: C1_1  and  C2_2 
REMARK    2  A    between atoms: C3_3  and  C5_7 
REMARK    3  A    between atoms: C5_7  and  O2_8 
ROOT
ATOM      1  C2  <0> d           1.252   1.747  -0.001  0.00  0.00     0.064 A 
ATOM      2  C3  <0> d           2.063   0.676  -0.014  0.00  0.00     0.102 A 
ATOM      3  O1  <0> d           1.276  -0.418  -0.012  0.00  0.00    -0.304 OA
ATOM      4  C4  <0> d           0.002  -0.004   0.002  0.00  0.00     0.103 A 
ATOM      5  N1  <0> d          -0.016   1.298   0.009  0.00  0.00    -0.239 NA
ATOM      6  H4  <0> d          -0.867  -0.645   0.007  0.00  0.00     0.155 H 
ENDROOT
BRANCH   2   7
ATOM      7  C5  <0> d           3.570   0.695  -0.029  0.00  0.00     0.063 C 
ATOM      8  H5  <0> d           3.943  -0.196  -0.555  0.00  0.00     0.084 H 
ATOM      9  H6  <0> d           3.921   1.600  -0.546  0.00  0.00     0.084 H 
BRANCH   7  10
ATOM     10  O2  <0> d           4.060   0.694   1.314  0.00  0.00    -0.394 OA
ATOM     11  H7  <0> d           5.143   0.706   1.504  0.00  0.00     0.209 HD
ENDBRANCH   7  10
ENDBRANCH   2   7
BRANCH   1  12
ATOM     12  C1  <0> d           1.685   3.190   0.003  0.00  0.00    -0.033 C 
ATOM     13  H1  <0> d           2.784   3.244  -0.007  0.00  0.00     0.035 H 
ATOM     14  H2  <0> d           1.302   3.686   0.907  0.00  0.00     0.035 H 
ATOM     15  H3  <0> d           1.285   3.695  -0.889  0.00  0.00     0.035 H 
ENDBRANCH   1  12
TORSDOF 3
