REMARK  3 active torsions:
REMARK  status: ('A' for Active; 'I' for Inactive)
REMARK    1  A    between atoms: C1_1  and  C2_2 
REMARK    2  A    between atoms: C4_4  and  C7_10 
REMARK    3  A    between atoms: N1_5  and  C5_7 
ROOT
ATOM      1  C5  <0> d          -0.013   1.086   0.008  0.00  0.00     0.095 C 
ATOM      2  C6  <0> d          -0.725   1.573  -1.185  0.00  0.00     0.081 C 
ATOM      3  N3  <0> d          -1.274   1.950  -2.105  0.00  0.00    -0.195 NA
ATOM      4  H5  <0> d           1.019   1.466   0.000  0.00  0.00     0.089 H 
ATOM      5  H6  <0> d           0.002  -0.014   0.002  0.00  0.00     0.089 H 
ENDROOT
BRANCH   1   6
ATOM      6  N1  <0> d          -0.698   1.558   1.213  0.00  0.00    -0.261 N 
ATOM      7  C4  <0> d          -0.449   2.711   1.869  0.00  0.00     0.029 A 
ATOM      8  C3  <0> d          -1.294   2.778   2.923  0.00  0.00    -0.035 A 
ATOM      9  C2  <0> d          -2.082   1.622   2.917  0.00  0.00     0.053 A 
ATOM     10  H4  <0> d          -1.349   3.580   3.644  0.00  0.00     0.089 H 
ATOM     11  N2  <0> d          -1.725   0.890   1.893  0.00  0.00    -0.177 NA
BRANCH   7  12
ATOM     12  C7  <0> d           0.585   3.741   1.491  0.00  0.00    -0.036 C 
ATOM     13  H7  <0> d           1.119   3.411   0.589  0.00  0.00     0.035 H 
ATOM     14  H8  <0> d           1.300   3.863   2.318  0.00  0.00     0.035 H 
ATOM     15  H9  <0> d           0.088   4.703   1.292  0.00  0.00     0.035 H 
ENDBRANCH   7  12
BRANCH   9  16
ATOM     16  C1  <0> d          -3.154   1.279   3.918  0.00  0.00    -0.034 C 
ATOM     17  H1  <0> d          -3.230   2.083   4.665  0.00  0.00     0.035 H 
ATOM     18  H2  <0> d          -2.898   0.334   4.420  0.00  0.00     0.035 H 
ATOM     19  H3  <0> d          -4.118   1.169   3.399  0.00  0.00     0.035 H 
ENDBRANCH   9  16
ENDBRANCH   1   6
TORSDOF 3
