REMARK  2 active torsions:
REMARK  status: ('A' for Active; 'I' for Inactive)
REMARK    1  A    between atoms: C3_3  and  C7_8 
REMARK    2  A    between atoms: C7_8  and  N2_12 
ROOT
ATOM      1  C7  <0> d          -2.513   0.980   0.019  0.00  0.00     0.237 C 
ATOM      2  H1  <0> d          -2.357  -0.048  -0.341  0.00  0.00     0.119 H 
ATOM      3  C8  <0> d          -3.052   0.928   1.388  0.00  0.00     0.100 C 
ATOM      4  N1  <0> d          -3.467   0.888   2.445  0.00  0.00    -0.195 NA
ENDROOT
BRANCH   1   5
ATOM      5  C3  <0> d          -1.219   1.751   0.017  0.00  0.00    -0.009 A 
ATOM      6  C2  <0> d          -1.238   3.133   0.031  0.00  0.00    -0.074 A 
ATOM      7  C1  <0> d          -0.051   3.842   0.023  0.00  0.00    -0.080 A 
ATOM      8  H3  <0> d          -2.181   3.659   0.043  0.00  0.00     0.084 H 
ATOM      9  C6  <0> d           1.156   3.169   0.008  0.00  0.00    -0.046 A 
ATOM     10  H2  <0> d          -0.067   4.922   0.029  0.00  0.00     0.083 H 
ATOM     11  C5  <0> d           1.177   1.784   0.000  0.00  0.00     0.117 A 
ATOM     12  H5  <0> d           2.083   3.723   0.002  0.00  0.00     0.088 H 
ATOM     13  C4  <0> d          -0.013   1.076   0.008  0.00  0.00    -0.037 A 
ATOM     14  F1  <0> d           2.356   1.126  -0.015  0.00  0.00    -0.206 F 
ATOM     15  H4  <0> d           0.002  -0.004   0.002  0.00  0.00     0.089 H 
ENDBRANCH   1   5
BRANCH   1  16
ATOM     16  N2  <0> d          -3.481   1.645  -0.863  0.00  0.00     0.100 N 
ATOM     17  H6  <0> d          -4.426   1.083  -0.861  0.00  0.00     0.315 HD
ATOM     18  H7  <0> d          -3.663   2.668  -0.502  0.00  0.00     0.315 HD
ENDBRANCH   1  16
TORSDOF 2
