REMARK  3 active torsions:
REMARK  status: ('A' for Active; 'I' for Inactive)
REMARK    1  A    between atoms: C1_1  and  C2_2 
REMARK    2  A    between atoms: C4_4  and  C7_10 
REMARK    3  A    between atoms: N1_5  and  N2_9 
ROOT
ATOM      1  C2  <0> d           1.189   2.066   0.002  0.00  0.00    -0.055 A 
ATOM      2  C3  <0> d          -0.016   1.349   0.009  0.00  0.00    -0.054 A 
ATOM      3  C4  <0> d           0.002  -0.004   0.002  0.00  0.00     0.029 A 
ATOM      4  N1  <0> d           1.179  -0.681  -0.013  0.00  0.00    -0.249 N 
ATOM      5  C5  <0> d           2.353  -0.022  -0.021  0.00  0.00     0.262 A 
ATOM      6  O1  <0> d           3.402  -0.645  -0.034  0.00  0.00    -0.267 OA
ATOM      7  C6  <0> d           2.370   1.383  -0.013  0.00  0.00    -0.010 A 
ATOM      8  H4  <0> d          -0.959   1.877   0.017  0.00  0.00     0.087 H 
ATOM      9  H5  <0> d           3.308   1.918  -0.020  0.00  0.00     0.092 H 
ENDROOT
BRANCH   1  10
ATOM     10  C1  <0> d           1.179   3.573   0.010  0.00  0.00    -0.051 C 
ATOM     11  H1  <0> d           1.187   3.930   1.040  0.00  0.00     0.033 H 
ATOM     12  H2  <0> d           2.062   3.944  -0.510  0.00  0.00     0.033 H 
ATOM     13  H3  <0> d           0.282   3.933  -0.493  0.00  0.00     0.033 H 
ENDBRANCH   1  10
BRANCH   3  14
ATOM     14  C7  <0> d          -1.297  -0.767   0.010  0.00  0.00    -0.036 C 
ATOM     15  H8  <0> d          -2.131  -0.065   0.022  0.00  0.00     0.035 H 
ATOM     16  H9  <0> d          -1.359  -1.390  -0.882  0.00  0.00     0.035 H 
ATOM     17  H10 <0> d          -1.342  -1.399   0.897  0.00  0.00     0.035 H 
ENDBRANCH   3  14
BRANCH   4  18
ATOM     18  N2  <0> d           1.171  -2.047  -0.021  0.00  0.00    -0.240 NA
ATOM     19  H6  <0> d           2.111  -2.414  -0.032  0.00  0.00     0.143 HD
ATOM     20  H7  <0> d           0.651  -2.410   0.764  0.00  0.00     0.143 HD
ENDBRANCH   4  18
TORSDOF 3
