REMARK  4 active torsions:
REMARK  status: ('A' for Active; 'I' for Inactive)
REMARK    1  A    between atoms: C1_1  and  C2_2 
REMARK    2  A    between atoms: C3_3  and  C6_7 
REMARK    3  A    between atoms: C6_7  and  C7_8 
REMARK    4  A    between atoms: C7_8  and  O1_9 
ROOT
ATOM      1  C2  <0> d           0.002  -0.004   0.002  0.00  0.00    -0.015 A 
ATOM      2  C3  <0> d          -1.039  -0.872   0.002  0.00  0.00    -0.043 A 
ATOM      3  C4  <0> d          -0.780  -2.230  -0.007  0.00  0.00    -0.070 A 
ATOM      4  C5  <0> d           0.507  -2.653  -0.016  0.00  0.00    -0.044 A 
ATOM      5  S1  <0> d           1.404  -1.109  -0.018  0.00  0.00    -0.106 SA
ATOM      6  H4  <0> d          -1.592  -2.942  -0.008  0.00  0.00     0.085 H 
ATOM      7  H5  <0> d           0.891  -3.663  -0.024  0.00  0.00     0.095 H 
ENDROOT
BRANCH   2   8
ATOM      8  C6  <0> d          -2.458  -0.364   0.012  0.00  0.00    -0.020 C 
ATOM      9  H6  <0> d          -3.112  -1.121   0.445  0.00  0.00     0.043 H 
ATOM     10  H7  <0> d          -2.513   0.547   0.607  0.00  0.00     0.043 H 
BRANCH   8  11
ATOM     11  C7  <0> d          -2.903  -0.065  -1.421  0.00  0.00     0.020 C 
ATOM     12  H8  <0> d          -2.249   0.692  -1.854  0.00  0.00     0.074 H 
ATOM     13  H9  <0> d          -2.847  -0.976  -2.017  0.00  0.00     0.074 H 
BRANCH  11  14
ATOM     14  O1  <0> d          -4.248   0.417  -1.412  0.00  0.00    -0.401 OA
ATOM     15  H10 <0> d          -4.597   0.627  -2.289  0.00  0.00     0.209 HD
ENDBRANCH  11  14
ENDBRANCH   8  11
ENDBRANCH   2   8
BRANCH   1  16
ATOM     16  C1  <0> d          -0.018   1.503   0.010  0.00  0.00    -0.045 C 
ATOM     17  H1  <0> d           1.004   1.880   0.003  0.00  0.00     0.034 H 
ATOM     18  H2  <0> d          -0.545   1.864  -0.873  0.00  0.00     0.034 H 
ATOM     19  H3  <0> d          -0.529   1.854   0.907  0.00  0.00     0.034 H 
ENDBRANCH   1  16
TORSDOF 4
