REMARK  1 active torsions:
REMARK  status: ('A' for Active; 'I' for Inactive)
REMARK    1  A    between atoms: C3_3  and  C6_7 
ROOT
ATOM      1  C6  <0> d           2.368   4.004   0.002  0.00  0.00     0.040 C 
ATOM      2  C7  <0> d           2.765   4.280  -1.389  0.00  0.00     0.063 C 
ATOM      3  N2  <0> d           3.072   4.493  -2.461  0.00  0.00    -0.197 NA
ATOM      4  H5  <0> d           2.189   4.945   0.522  0.00  0.00     0.062 H 
ATOM      5  H6  <0> d           3.163   3.455   0.505  0.00  0.00     0.062 H 
ENDROOT
BRANCH   1   6
ATOM      6  C3  <0> d           1.107   3.179   0.009  0.00  0.00    -0.028 A 
ATOM      7  C2  <0> d           1.174   1.794   0.001  0.00  0.00    -0.073 A 
ATOM      8  C1  <0> d          -0.013   1.076   0.008  0.00  0.00    -0.066 A 
ATOM      9  H2  <0> d           2.127   1.287  -0.012  0.00  0.00     0.084 H 
ATOM     10  C5  <0> d          -1.214   1.759   0.017  0.00  0.00     0.002 A 
ATOM     11  H1  <0> d           0.002  -0.004   0.002  0.00  0.00     0.085 H 
ATOM     12  N1  <0> d          -1.239   3.078   0.030  0.00  0.00    -0.273 NA
ATOM     13  H4  <0> d          -2.142   1.207   0.018  0.00  0.00     0.114 H 
ATOM     14  C4  <0> d          -0.132   3.793   0.024  0.00  0.00     0.009 A 
ATOM     15  H3  <0> d          -0.193   4.871   0.030  0.00  0.00     0.115 H 
ENDBRANCH   1   6
TORSDOF 1
