REMARK  1 active torsions:
REMARK  status: ('A' for Active; 'I' for Inactive)
REMARK    1  A    between atoms: C1_1  and  C2_2 
ROOT
ATOM      1  C2  <0> d          -2.006   2.175  -0.613  0.00  0.00     0.270 C 
ATOM      2  C3  <0> d          -2.364   3.301  -1.597  0.00  0.00    -0.004 C 
ATOM      3  C4  <0> d          -1.814   2.718  -2.924  0.00  0.00     0.013 C 
ATOM      4  C5  <0> d          -0.725   1.759  -2.490  0.00  0.00     0.222 C 
ATOM      5  O1  <0> d           0.064   1.220  -3.237  0.00  0.00    -0.273 OA
ATOM      6  N1  <0> d          -0.760   1.591  -1.158  0.00  0.00    -0.313 N 
ATOM      7  C6  <0> d          -0.013   1.086   0.008  0.00  0.00     0.028 C 
ATOM      8  C7  <0> d          -0.772   1.602   1.251  0.00  0.00     0.165 C 
ATOM      9  N2  <0> d          -1.613   2.712   0.708  0.00  0.00     0.337 N 
ATOM     10  H4  <0> d          -3.453   3.452  -1.602  0.00  0.00     0.040 H 
ATOM     11  H5  <0> d          -1.866   4.231  -1.287  0.00  0.00     0.040 H 
ATOM     12  H6  <0> d          -2.624   2.204  -3.462  0.00  0.00     0.047 H 
ATOM     13  H7  <0> d          -1.419   3.534  -3.547  0.00  0.00     0.047 H 
ATOM     14  H8  <0> d           0.008  -0.014  -0.018  0.00  0.00     0.067 H 
ATOM     15  H9  <0> d           1.016   1.473  -0.020  0.00  0.00     0.067 H 
ATOM     16  H10 <0> d          -1.377   0.787   1.676  0.00  0.00     0.086 H 
ATOM     17  H11 <0> d          -0.050   1.953   2.003  0.00  0.00     0.086 H 
ENDROOT
BRANCH   1  18
ATOM     18  C1  <0> d          -3.125   1.136  -0.511  0.00  0.00    -0.023 C 
ATOM     19  H1  <0> d          -4.030   1.611  -0.102  0.00  0.00     0.033 H 
ATOM     20  H2  <0> d          -2.808   0.320   0.154  0.00  0.00     0.033 H 
ATOM     21  H3  <0> d          -3.343   0.732  -1.510  0.00  0.00     0.033 H 
ENDBRANCH   1  18
TORSDOF 1
