REMARK  4 active torsions:
REMARK  status: ('A' for Active; 'I' for Inactive)
REMARK    1  A    between atoms: C1_1  and  C2_2 
REMARK    2  A    between atoms: C2_2  and  O1_3 
REMARK    3  A    between atoms: O1_3  and  C3_4 
REMARK       I    between atoms: C3_4  and  N1_6 
REMARK    4  A    between atoms: N1_6  and  C4_7 
ROOT
ATOM      1  C3  <0> d           1.147   1.655  -0.000  0.00  0.00     0.360 C 
ATOM      2  O2  <0> d           1.130   2.870   0.007  0.00  0.00    -0.239 OA
ATOM      3  N1  <0> d          -0.011   0.966   0.007  0.00  0.00    -0.332 N 
ATOM      4  H6  <0> d           0.002  -0.004   0.002  0.00  0.00     0.165 HD
ENDROOT
BRANCH   1   5
ATOM      5  O1  <0> d           2.322   0.998  -0.015  0.00  0.00    -0.304 OA
BRANCH   5   6
ATOM      6  C2  <0> d           3.529   1.806  -0.022  0.00  0.00     0.027 C 
ATOM      7  H4  <0> d           3.537   2.439  -0.909  0.00  0.00     0.074 H 
ATOM      8  H5  <0> d           3.554   2.430   0.871  0.00  0.00     0.074 H 
BRANCH   6   9
ATOM      9  C1  <0> d           4.755   0.890  -0.039  0.00  0.00    -0.056 C 
ATOM     10  H1  <0> d           4.747   0.256   0.848  0.00  0.00     0.030 H 
ATOM     11  H2  <0> d           4.730   0.266  -0.932  0.00  0.00     0.030 H 
ATOM     12  H3  <0> d           5.660   1.496  -0.044  0.00  0.00     0.030 H 
ENDBRANCH   6   9
ENDBRANCH   5   6
ENDBRANCH   1   5
BRANCH   3  13
ATOM     13  C4  <0> d          -1.290   1.681   0.017  0.00  0.00     0.014 A 
ATOM     14  C6  <0> d          -2.510   0.955  -0.553  0.00  0.00    -0.044 A 
ATOM     15  C5  <0> d          -2.380   1.165   0.958  0.00  0.00    -0.044 A 
ATOM     16  H10 <0> d          -3.250   1.554  -1.083  0.00  0.00     0.036 H 
ATOM     17  H11 <0> d          -2.361  -0.055  -0.935  0.00  0.00     0.036 H 
ATOM     18  H8  <0> d          -2.147   0.294   1.570  0.00  0.00     0.036 H 
ATOM     19  H9  <0> d          -3.035   1.903   1.421  0.00  0.00     0.036 H 
ATOM     20  H7  <0> d          -1.227   2.758  -0.138  0.00  0.00     0.072 H 
ENDBRANCH   3  13
TORSDOF 4
