REMARK  5 active torsions:
REMARK  status: ('A' for Active; 'I' for Inactive)
REMARK    1  A    between atoms: C1_1  and  C2_2 
REMARK    2  A    between atoms: C2_2  and  C3_3 
REMARK    3  A    between atoms: C2_2  and  C4_4 
REMARK    4  A    between atoms: C2_2  and  N1_6 
REMARK    5  A    between atoms: C4_4  and  O1_5 
ROOT
ATOM      1  C2  <0> d          -0.019   1.526   0.010  0.00  0.00     0.069 C 
ENDROOT
BRANCH   1   2
ATOM      2  C1  <0> d           0.002  -0.004   0.002  0.00  0.00    -0.049 C 
ATOM      3  H1  <0> d          -1.030  -0.385   0.010  0.00  0.00     0.031 H 
ATOM      4  H2  <0> d           0.534  -0.368   0.893  0.00  0.00     0.031 H 
ATOM      5  H3  <0> d           0.517  -0.359  -0.903  0.00  0.00     0.031 H 
ENDBRANCH   1   2
BRANCH   1   6
ATOM      6  C3  <0> d           1.417   2.055  -0.000  0.00  0.00    -0.049 C 
ATOM      7  H4  <0> d           1.402   3.155   0.006  0.00  0.00     0.031 H 
ATOM      8  H5  <0> d           1.932   1.700  -0.905  0.00  0.00     0.031 H 
ATOM      9  H6  <0> d           1.949   1.691   0.891  0.00  0.00     0.031 H 
ENDBRANCH   1   6
BRANCH   1  10
ATOM     10  C4  <0> d          -0.759   2.033  -1.229  0.00  0.00     0.041 C 
ATOM     11  H7  <0> d          -1.791   1.652  -1.221  0.00  0.00     0.077 H 
ATOM     12  H8  <0> d          -0.774   3.132  -1.223  0.00  0.00     0.077 H 
BRANCH  10  13
ATOM     13  O1  <0> d          -0.090   1.572  -2.405  0.00  0.00    -0.398 OA
ATOM     14  H9  <0> d          -0.479   1.838  -3.399  0.00  0.00     0.209 HD
ENDBRANCH  10  13
ENDBRANCH   1  10
BRANCH   1  15
ATOM     15  N1  <0> d          -0.704   1.998   1.216  0.00  0.00    -0.270 N 
ATOM     16  N2  <0> d          -1.662   3.019   1.272  0.00  0.00    -0.184 NA
ATOM     17  C7  <0> d          -2.045   3.151   2.517  0.00  0.00     0.023 A 
ATOM     18  C6  <0> d          -1.338   2.227   3.292  0.00  0.00    -0.048 A 
ATOM     19  H12 <0> d          -2.777   3.856   2.882  0.00  0.00     0.117 H 
ATOM     20  C5  <0> d          -0.521   1.531   2.468  0.00  0.00     0.001 A 
ATOM     21  H11 <0> d          -1.428   2.093   4.360  0.00  0.00     0.087 H 
ATOM     22  H10 <0> d           0.157   0.742   2.761  0.00  0.00     0.114 H 
ENDBRANCH   1  15
TORSDOF 5
