REMARK  6 active torsions:
REMARK  status: ('A' for Active; 'I' for Inactive)
REMARK    1  A    between atoms: C1_1  and  C2_2 
REMARK    2  A    between atoms: C2_2  and  N1_3 
REMARK    3  A    between atoms: N1_3  and  C3_4 
REMARK    4  A    between atoms: N1_3  and  C5_6 
REMARK    5  A    between atoms: C3_4  and  C4_5 
REMARK    6  A    between atoms: C6_7  and  C7_8 
ROOT
ATOM      1  N1  <0> d          -0.016   1.351   0.009  0.00  0.00    -0.342 N 
ENDROOT
BRANCH   1   2
ATOM      2  C2  <0> d           1.242   2.100   0.002  0.00  0.00    -0.001 C 
ATOM      3  H4  <0> d           1.104   3.048   0.522  0.00  0.00     0.064 H 
ATOM      4  H5  <0> d           2.015   1.519   0.505  0.00  0.00     0.064 H 
BRANCH   2   5
ATOM      5  C1  <0> d           1.667   2.369  -1.444  0.00  0.00    -0.060 C 
ATOM      6  H1  <0> d           0.894   2.951  -1.947  0.00  0.00     0.029 H 
ATOM      7  H2  <0> d           2.603   2.927  -1.450  0.00  0.00     0.029 H 
ATOM      8  H3  <0> d           1.805   1.421  -1.964  0.00  0.00     0.029 H 
ENDBRANCH   2   5
ENDBRANCH   1   2
BRANCH   1   9
ATOM      9  C3  <0> d          -1.295   2.066   0.019  0.00  0.00    -0.001 C 
ATOM     10  H6  <0> d          -1.180   3.023  -0.490  0.00  0.00     0.064 H 
ATOM     11  H7  <0> d          -2.049   1.469  -0.494  0.00  0.00     0.064 H 
BRANCH   9  12
ATOM     12  C4  <0> d          -1.733   2.307   1.465  0.00  0.00    -0.060 C 
ATOM     13  H8  <0> d          -2.684   2.839   1.473  0.00  0.00     0.029 H 
ATOM     14  H9  <0> d          -1.848   1.350   1.974  0.00  0.00     0.029 H 
ATOM     15  H10 <0> d          -0.979   2.904   1.979  0.00  0.00     0.029 H 
ENDBRANCH   9  12
ENDBRANCH   1   9
BRANCH   1  16
ATOM     16  C5  <0> d           0.002  -0.004   0.002  0.00  0.00     0.007 C 
ATOM     17  C6  <0> d           0.018  -1.178  -0.004  0.00  0.00    -0.088 C 
BRANCH  17  18
ATOM     18  C7  <0> d           0.038  -2.650  -0.013  0.00  0.00    -0.019 C 
ATOM     19  H11 <0> d          -0.985  -3.027  -0.005  0.00  0.00     0.044 H 
ATOM     20  H12 <0> d           0.548  -3.001  -0.909  0.00  0.00     0.044 H 
ATOM     21  H13 <0> d           0.565  -3.011   0.871  0.00  0.00     0.044 H 
ENDBRANCH  17  18
ENDBRANCH   1  16
TORSDOF 6
