REMARK  4 active torsions:
REMARK  status: ('A' for Active; 'I' for Inactive)
REMARK    1  A    between atoms: C1_1  and  C2_2 
REMARK    2  A    between atoms: C2_2  and  C3_3 
REMARK    3  A    between atoms: C3_3  and  C4_5 
REMARK    4  A    between atoms: C4_5  and  C5_6 
ROOT
ATOM      1  C4  <0> d          -1.667  -2.011   0.007  0.00  0.00     0.020 C 
ATOM      2  H6  <0> d          -1.231  -2.451  -0.889  0.00  0.00     0.052 H 
ATOM      3  H7  <0> d          -1.214  -2.461   0.890  0.00  0.00     0.052 H 
ENDROOT
BRANCH   1   4
ATOM      4  C3  <0> d          -1.412  -0.526   0.013  0.00  0.00     0.131 C 
ATOM      5  O1  <0> d          -2.340   0.246   0.026  0.00  0.00    -0.298 OA
BRANCH   4   6
ATOM      6  C2  <0> d           0.002  -0.004   0.002  0.00  0.00    -0.013 C 
ATOM      7  H4  <0> d           0.512  -0.356  -0.895  0.00  0.00     0.043 H 
ATOM      8  H5  <0> d           0.529  -0.365   0.885  0.00  0.00     0.043 H 
BRANCH   6   9
ATOM      9  C1  <0> d          -0.019   1.526   0.010  0.00  0.00    -0.070 C 
ATOM     10  H1  <0> d           1.004   1.903   0.003  0.00  0.00     0.028 H 
ATOM     11  H2  <0> d          -0.546   1.887  -0.873  0.00  0.00     0.028 H 
ATOM     12  H3  <0> d          -0.529   1.877   0.907  0.00  0.00     0.028 H 
ENDBRANCH   6   9
ENDBRANCH   4   6
ENDBRANCH   1   4
BRANCH   1  13
ATOM     13  C5  <0> d          -3.152  -2.265   0.020  0.00  0.00    -0.011 A 
ATOM     14  S1  <0> d          -4.247  -2.463   1.416  0.00  0.00    -0.106 SA
ATOM     15  C8  <0> d          -5.766  -2.715   0.512  0.00  0.00    -0.045 A 
ATOM     16  C7  <0> d          -5.342  -2.640  -0.773  0.00  0.00    -0.076 A 
ATOM     17  H10 <0> d          -6.762  -2.887   0.891  0.00  0.00     0.095 H 
ATOM     18  C6  <0> d          -4.003  -2.409  -1.026  0.00  0.00    -0.069 A 
ATOM     19  H9  <0> d          -6.041  -2.758  -1.589  0.00  0.00     0.084 H 
ATOM     20  H8  <0> d          -3.639  -2.345  -2.041  0.00  0.00     0.085 H 
ENDBRANCH   1  13
TORSDOF 4
