REMARK  3 active torsions:
REMARK  status: ('A' for Active; 'I' for Inactive)
REMARK    1  A    between atoms: C1_1  and  O1_2 
REMARK    2  A    between atoms: O1_2  and  C2_3 
REMARK    3  A    between atoms: C2_3  and  C3_5 
ROOT
ATOM      1  C3  <0> d           1.233   3.540   0.009  0.00  0.00     0.149 A 
ATOM      2  C4  <0> d           2.368   4.300   0.003  0.00  0.00    -0.042 A 
ATOM      3  C5  <0> d           1.957   5.641   0.013  0.00  0.00    -0.059 A 
ATOM      4  C6  <0> d           0.605   5.642   0.026  0.00  0.00     0.020 A 
ATOM      5  O3  <0> d           0.172   4.375   0.018  0.00  0.00    -0.317 OA
ATOM      6  H4  <0> d           3.386   3.938  -0.009  0.00  0.00     0.088 H 
ATOM      7  H5  <0> d           2.599   6.509   0.012  0.00  0.00     0.086 H 
ATOM      8  H6  <0> d          -0.023   6.521   0.035  0.00  0.00     0.123 H 
ENDROOT
BRANCH   1   9
ATOM      9  C2  <0> d           1.176   2.076   0.002  0.00  0.00     0.316 C 
ATOM     10  O2  <0> d           2.205   1.428  -0.011  0.00  0.00    -0.257 OA
BRANCH   9  11
ATOM     11  O1  <0> d          -0.018   1.448   0.010  0.00  0.00    -0.321 OA
BRANCH  11  12
ATOM     12  C1  <0> d           0.002  -0.004   0.002  0.00  0.00     0.013 C 
ATOM     13  H1  <0> d           0.529  -0.365   0.885  0.00  0.00     0.067 H 
ATOM     14  H2  <0> d          -1.020  -0.381   0.010  0.00  0.00     0.067 H 
ATOM     15  H3  <0> d           0.512  -0.356  -0.895  0.00  0.00     0.067 H 
ENDBRANCH  11  12
ENDBRANCH   9  11
ENDBRANCH   1   9
TORSDOF 3
