REMARK  6 active torsions:
REMARK  status: ('A' for Active; 'I' for Inactive)
REMARK    1  A    between atoms: C1_1  and  C2_2 
REMARK    2  A    between atoms: C2_2  and  C3_3 
REMARK    3  A    between atoms: C3_3  and  C4_5 
REMARK    4  A    between atoms: C3_3  and  C5_6 
REMARK    5  A    between atoms: C5_6  and  S1_7 
REMARK    6  A    between atoms: S1_7  and  N1_10 
ROOT
ATOM      1  C3  <0> d           0.742  -0.511   1.242  0.00  0.00    -0.044 C 
ATOM      2  H1  <0> d           1.735  -0.063   1.280  0.00  0.00     0.041 H 
ENDROOT
BRANCH   1   3
ATOM      3  C2  <0> d           0.002  -0.004   0.002  0.00  0.00    -0.065 C 
ATOM      4  H5  <0> d          -1.020  -0.381   0.010  0.00  0.00     0.033 H 
ATOM      5  H6  <0> d           0.512  -0.356  -0.895  0.00  0.00     0.033 H 
BRANCH   3   6
ATOM      6  C1  <0> d          -0.019   1.526   0.010  0.00  0.00    -0.076 C 
ATOM      7  H2  <0> d           1.004   1.903   0.003  0.00  0.00     0.027 H 
ATOM      8  H3  <0> d          -0.546   1.887  -0.873  0.00  0.00     0.027 H 
ATOM      9  H4  <0> d          -0.529   1.877   0.907  0.00  0.00     0.027 H 
ENDBRANCH   3   6
ENDBRANCH   1   3
BRANCH   1  10
ATOM     10  C4  <0> d          -0.042  -0.124   2.497  0.00  0.00    -0.072 C 
ATOM     11  H7  <0> d          -0.134   0.961   2.548  0.00  0.00     0.028 H 
ATOM     12  H8  <0> d          -1.034  -0.572   2.458  0.00  0.00     0.028 H 
ATOM     13  H9  <0> d           0.486  -0.485   3.380  0.00  0.00     0.028 H 
ENDBRANCH   1  10
BRANCH   1  14
ATOM     14  C5  <0> d           0.872  -2.034   1.171  0.00  0.00     0.049 C 
ATOM     15  H10 <0> d          -0.119  -2.486   1.222  0.00  0.00     0.059 H 
ATOM     16  H11 <0> d           1.352  -2.314   0.233  0.00  0.00     0.059 H 
BRANCH  14  17
ATOM     17  S1  <0> d           1.876  -2.620   2.563  0.00  0.00     0.224 S 
ATOM     18  O1  <0> d           3.220  -2.184   2.415  0.00  0.00    -0.206 OA
ATOM     19  O2  <0> d           1.181  -2.422   3.786  0.00  0.00    -0.206 OA
BRANCH  17  20
ATOM     20  N1  <0> d           1.942  -4.264   2.377  0.00  0.00    -0.328 N 
ATOM     21  H12 <0> d           1.490  -4.687   1.630  0.00  0.00     0.168 HD
ATOM     22  H13 <0> d           2.434  -4.805   3.015  0.00  0.00     0.168 HD
ENDBRANCH  17  20
ENDBRANCH  14  17
ENDBRANCH   1  14
TORSDOF 6
