REMARK  3 active torsions:
REMARK  status: ('A' for Active; 'I' for Inactive)
REMARK    1  A    between atoms: C3_3  and  N1_10 
REMARK    2  A    between atoms: C6_6  and  C7_7 
REMARK    3  A    between atoms: C7_7  and  O1_8 
ROOT
ATOM      1  C1  <0> d          -1.218   1.751   0.017  0.00  0.00    -0.072 A 
ATOM      2  C2  <0> d          -0.013   1.076   0.008  0.00  0.00    -0.054 A 
ATOM      3  C3  <0> d           1.179   1.787   0.000  0.00  0.00     0.064 A 
ATOM      4  C4  <0> d           1.156   3.178   0.008  0.00  0.00     0.143 A 
ATOM      5  C5  <0> d          -0.054   3.846   0.022  0.00  0.00    -0.035 A 
ATOM      6  C6  <0> d          -1.239   3.133   0.029  0.00  0.00    -0.032 A 
ATOM      7  F1  <0> d           2.314   3.874  -0.000  0.00  0.00    -0.204 F 
ATOM      8  H1  <0> d          -2.146   1.198   0.019  0.00  0.00     0.084 H 
ATOM      9  H2  <0> d           0.002  -0.004   0.002  0.00  0.00     0.087 H 
ATOM     10  H3  <0> d          -0.073   4.926   0.028  0.00  0.00     0.089 H 
ENDROOT
BRANCH   6  11
ATOM     11  C7  <0> d          -2.556   3.865   0.045  0.00  0.00     0.041 C 
ATOM     12  H4  <0> d          -3.302   3.261   0.562  0.00  0.00     0.081 H 
ATOM     13  H5  <0> d          -2.437   4.817   0.562  0.00  0.00     0.081 H 
BRANCH  11  14
ATOM     14  O1  <0> d          -2.985   4.103  -1.298  0.00  0.00    -0.396 OA
ATOM     15  H6  <0> d          -3.828   4.572  -1.364  0.00  0.00     0.209 HD
ENDBRANCH  11  14
ENDBRANCH   6  11
BRANCH   3  16
ATOM     16  N1  <0> d           2.401   1.106  -0.015  0.00  0.00    -0.397 N 
ATOM     17  H7  <0> d           2.416   0.136  -0.020  0.00  0.00     0.156 HD
ATOM     18  H8  <0> d           3.234   1.604  -0.020  0.00  0.00     0.156 HD
ENDBRANCH   3  16
TORSDOF 3
