REMARK  8 active torsions:
REMARK  status: ('A' for Active; 'I' for Inactive)
REMARK    1  A    between atoms: C1_1  and  C2_2 
REMARK    2  A    between atoms: C2_2  and  O1_3 
REMARK    3  A    between atoms: O1_3  and  C3_4 
REMARK    4  A    between atoms: C3_4  and  C4_5 
REMARK    5  A    between atoms: C4_5  and  C5_6 
REMARK    6  A    between atoms: C5_6  and  C6_7 
REMARK    7  A    between atoms: C6_7  and  C7_8 
REMARK    8  A    between atoms: C6_7  and  C8_9 
ROOT
ATOM      1  C6  <0> d           2.386   5.712   0.010  0.00  0.00     0.042 C 
ATOM      2  C9  <0> d           3.723   6.329   0.001  0.00  0.00     0.068 C 
ATOM      3  N1  <0> d           4.754   6.805  -0.007  0.00  0.00    -0.196 NA
ENDROOT
BRANCH   1   4
ATOM      4  C5  <0> d           2.528   4.188   0.000  0.00  0.00    -0.045 C 
ATOM      5  H10 <0> d           3.081   3.869   0.883  0.00  0.00     0.035 H 
ATOM      6  H11 <0> d           3.064   3.879  -0.896  0.00  0.00     0.035 H 
BRANCH   4   7
ATOM      7  C4  <0> d           1.139   3.547   0.010  0.00  0.00    -0.044 C 
ATOM      8  H8  <0> d           0.585   3.866  -0.873  0.00  0.00     0.036 H 
ATOM      9  H9  <0> d           0.602   3.857   0.907  0.00  0.00     0.036 H 
BRANCH   7  10
ATOM     10  C3  <0> d           1.280   2.024   0.001  0.00  0.00     0.019 C 
ATOM     11  H6  <0> d           1.834   1.705   0.884  0.00  0.00     0.074 H 
ATOM     12  H7  <0> d           1.817   1.714  -0.896  0.00  0.00     0.074 H 
BRANCH  10  13
ATOM     13  O1  <0> d          -0.017   1.425   0.010  0.00  0.00    -0.391 OA
BRANCH  13  14
ATOM     14  C2  <0> d           0.002  -0.004   0.002  0.00  0.00     0.016 C 
ATOM     15  H4  <0> d           0.512  -0.356  -0.895  0.00  0.00     0.073 H 
ATOM     16  H5  <0> d           0.529  -0.365   0.885  0.00  0.00     0.073 H 
BRANCH  14  17
ATOM     17  C1  <0> d          -1.433  -0.534   0.013  0.00  0.00    -0.056 C 
ATOM     18  H1  <0> d          -1.960  -0.173  -0.870  0.00  0.00     0.030 H 
ATOM     19  H2  <0> d          -1.419  -1.623   0.007  0.00  0.00     0.030 H 
ATOM     20  H3  <0> d          -1.944  -0.182   0.910  0.00  0.00     0.030 H 
ENDBRANCH  14  17
ENDBRANCH  13  14
ENDBRANCH  10  13
ENDBRANCH   7  10
ENDBRANCH   4   7
ENDBRANCH   1   4
BRANCH   1  21
ATOM     21  C7  <0> d           1.609   6.160  -1.230  0.00  0.00    -0.057 C 
ATOM     22  H12 <0> d           0.619   5.703  -1.222  0.00  0.00     0.029 H 
ATOM     23  H13 <0> d           1.508   7.245  -1.223  0.00  0.00     0.029 H 
ATOM     24  H14 <0> d           2.146   5.850  -2.126  0.00  0.00     0.029 H 
ENDBRANCH   1  21
BRANCH   1  25
ATOM     25  C8  <0> d           1.633   6.146   1.269  0.00  0.00    -0.057 C 
ATOM     26  H15 <0> d           2.187   5.827   2.152  0.00  0.00     0.029 H 
ATOM     27  H16 <0> d           1.532   7.231   1.276  0.00  0.00     0.029 H 
ATOM     28  H17 <0> d           0.643   5.689   1.276  0.00  0.00     0.029 H 
ENDBRANCH   1  25
TORSDOF 8
