REMARK  4 active torsions:
REMARK  status: ('A' for Active; 'I' for Inactive)
REMARK    1  A    between atoms: C1_1  and  C2_2 
REMARK    2  A    between atoms: C2_2  and  N1_3 
REMARK    3  A    between atoms: C5_6  and  N2_11 
REMARK    4  A    between atoms: C6_7  and  C7_8 
ROOT
ATOM      1  N1  <0> d           0.711  -0.489   1.189  0.00  0.00    -0.350 N 
ATOM      2  C3  <0> d           2.024  -0.820   1.245  0.00  0.00    -0.018 A 
ATOM      3  C4  <0> d           2.329  -1.225   2.499  0.00  0.00    -0.040 A 
ATOM      4  C5  <0> d           1.162  -1.150   3.276  0.00  0.00     0.061 A 
ATOM      5  C6  <0> d           0.151  -0.681   2.442  0.00  0.00     0.138 A 
ATOM      6  H6  <0> d           2.718  -0.769   0.419  0.00  0.00     0.111 H 
ATOM      7  H7  <0> d           3.300  -1.550   2.842  0.00  0.00     0.089 H 
ENDROOT
BRANCH   1   8
ATOM      8  C2  <0> d           0.002  -0.004   0.002  0.00  0.00    -0.004 C 
ATOM      9  H4  <0> d          -1.020  -0.381   0.010  0.00  0.00     0.064 H 
ATOM     10  H5  <0> d           0.512  -0.356  -0.895  0.00  0.00     0.064 H 
BRANCH   8  11
ATOM     11  C1  <0> d          -0.019   1.526   0.010  0.00  0.00    -0.061 C 
ATOM     12  H1  <0> d           1.004   1.903   0.003  0.00  0.00     0.029 H 
ATOM     13  H2  <0> d          -0.546   1.887  -0.873  0.00  0.00     0.029 H 
ATOM     14  H3  <0> d          -0.529   1.877   0.907  0.00  0.00     0.029 H 
ENDBRANCH   8  11
ENDBRANCH   1   8
BRANCH   5  15
ATOM     15  C7  <0> d          -1.190  -0.447   2.804  0.00  0.00     0.229 C 
ATOM     16  O1  <0> d          -2.056   0.003   1.896  0.00  0.00    -0.643 OA
ATOM     17  O2  <0> d          -1.593  -0.676   4.054  0.00  0.00    -0.643 OA
ENDBRANCH   5  15
BRANCH   4  18
ATOM     18  N2  <0> d           1.040  -1.477   4.621  0.00  0.00    -0.397 N 
ATOM     19  H8  <0> d           1.813  -1.794   5.115  0.00  0.00     0.156 HD
ATOM     20  H9  <0> d           0.183  -1.389   5.066  0.00  0.00     0.156 HD
ENDBRANCH   4  18
TORSDOF 4
