REMARK  2 active torsions:
REMARK  status: ('A' for Active; 'I' for Inactive)
REMARK    1  A    between atoms: C1_1  and  C2_2 
REMARK    2  A    between atoms: C5_5  and  C9_10 
ROOT
ATOM      1  C2  <0> d           2.385   1.436  -0.015  0.00  0.00    -0.040 A 
ATOM      2  C3  <0> d           1.183   2.108   0.002  0.00  0.00    -0.055 A 
ATOM      3  C4  <0> d          -0.017   1.393   0.010  0.00  0.00     0.051 A 
ATOM      4  C5  <0> d           0.002  -0.004   0.002  0.00  0.00    -0.040 A 
ATOM      5  C6  <0> d           1.204  -0.676  -0.013  0.00  0.00    -0.055 A 
ATOM      6  C7  <0> d           2.404   0.039  -0.021  0.00  0.00     0.051 A 
ATOM      7  C8  <0> d           3.654  -0.660  -0.036  0.00  0.00     0.100 C 
ATOM      8  N1  <0> d           4.645  -1.215  -0.048  0.00  0.00    -0.191 NA
ATOM      9  C10 <0> d          -1.267   2.092   0.019  0.00  0.00     0.100 C 
ATOM     10  N2  <0> d          -2.258   2.647   0.027  0.00  0.00    -0.191 NA
ATOM     11  H4  <0> d           1.169   3.188   0.008  0.00  0.00     0.086 H 
ATOM     12  H5  <0> d           1.218  -1.756  -0.018  0.00  0.00     0.086 H 
ENDROOT
BRANCH   1  13
ATOM     13  C1  <0> d           3.680   2.207  -0.022  0.00  0.00    -0.050 C 
ATOM     14  H1  <0> d           3.983   2.398  -1.052  0.00  0.00     0.033 H 
ATOM     15  H2  <0> d           3.541   3.155   0.497  0.00  0.00     0.033 H 
ATOM     16  H3  <0> d           4.452   1.626   0.482  0.00  0.00     0.033 H 
ENDBRANCH   1  13
BRANCH   4  17
ATOM     17  C9  <0> d          -1.293  -0.775   0.011  0.00  0.00    -0.050 C 
ATOM     18  H6  <0> d          -1.615  -0.956  -1.015  0.00  0.00     0.033 H 
ATOM     19  H7  <0> d          -1.144  -1.728   0.518  0.00  0.00     0.033 H 
ATOM     20  H8  <0> d          -2.055  -0.199   0.535  0.00  0.00     0.033 H 
ENDBRANCH   4  17
TORSDOF 2
