REMARK  1 active torsions:
REMARK  status: ('A' for Active; 'I' for Inactive)
REMARK    1  A    between atoms: C2_4  and  C3_7 
ROOT
ATOM      1  C3  <0> d           1.609   4.314   0.010  0.00  0.00     0.070 C 
ATOM      2  C4  <0> d           2.550   4.211   1.138  0.00  0.00     0.066 C 
ATOM      3  N4  <0> d           3.276   4.132   2.008  0.00  0.00    -0.197 NA
ATOM      4  H3  <0> d           2.166   4.343  -0.926  0.00  0.00     0.066 H 
ATOM      5  H4  <0> d           1.020   5.226   0.111  0.00  0.00     0.066 H 
ENDROOT
BRANCH   1   6
ATOM      6  C2  <0> d           0.690   3.119   0.012  0.00  0.00     0.134 A 
ATOM      7  N1  <0> d           1.061   1.865   0.002  0.00  0.00    -0.225 NA
ATOM      8  C1  <0> d          -0.013   1.076   0.008  0.00  0.00     0.107 A 
ATOM      9  H2  <0> d           0.002  -0.004   0.002  0.00  0.00     0.149 H 
ATOM     10  N3  <0> d          -1.087   1.821   0.017  0.00  0.00    -0.167 NA
ATOM     11  N2  <0> d          -0.654   3.157   0.025  0.00  0.00    -0.263 N 
ATOM     12  H1  <0> d          -1.213   3.949   0.035  0.00  0.00     0.190 HD
ENDBRANCH   1   6
TORSDOF 1
