REMARK  4 active torsions:
REMARK  status: ('A' for Active; 'I' for Inactive)
REMARK    1  A    between atoms: C1_1  and  C2_2 
REMARK    2  A    between atoms: C2_2  and  C3_3 
REMARK    3  A    between atoms: C3_3  and  C4_5 
REMARK    4  A    between atoms: C3_3  and  O2_10 
ROOT
ATOM      1  C3  <0> d           0.011   1.072   2.506  0.00  0.00     0.081 C 
ATOM      2  H1  <0> d           0.104  -0.013   2.456  0.00  0.00     0.093 H 
ENDROOT
BRANCH   1   3
ATOM      3  C2  <0> d          -0.729   1.579   1.267  0.00  0.00    -0.039 C 
ATOM      4  H5  <0> d          -0.744   2.669   1.273  0.00  0.00     0.036 H 
ATOM      5  H6  <0> d          -1.751   1.202   1.275  0.00  0.00     0.036 H 
BRANCH   3   6
ATOM      6  C1  <0> d          -0.013   1.086   0.008  0.00  0.00    -0.074 C 
ATOM      7  H2  <0> d           0.002  -0.004   0.002  0.00  0.00     0.027 H 
ATOM      8  H3  <0> d           1.010   1.463   0.000  0.00  0.00     0.027 H 
ATOM      9  H4  <0> d          -0.540   1.447  -0.875  0.00  0.00     0.027 H 
ENDBRANCH   3   6
ENDBRANCH   1   3
BRANCH   1  10
ATOM     10  C4  <0> d          -0.761   1.454   3.743  0.00  0.00     0.081 A 
ATOM     11  O1  <0> d          -0.752   2.660   4.334  0.00  0.00    -0.324 OA
ATOM     12  C7  <0> d          -1.555   2.638   5.410  0.00  0.00     0.019 A 
ATOM     13  C6  <0> d          -2.088   1.407   5.517  0.00  0.00    -0.059 A 
ATOM     14  H9  <0> d          -1.741   3.467   6.076  0.00  0.00     0.123 H 
ATOM     15  C5  <0> d          -1.580   0.646   4.440  0.00  0.00    -0.050 A 
ATOM     16  H8  <0> d          -2.775   1.067   6.278  0.00  0.00     0.086 H 
ATOM     17  H7  <0> d          -1.805  -0.388   4.219  0.00  0.00     0.087 H 
ENDBRANCH   1  10
BRANCH   1  18
ATOM     18  O2  <0> d           1.313   1.660   2.557  0.00  0.00    -0.389 OA
ATOM     19  H10 <0> d           1.307   2.626   2.603  0.00  0.00     0.210 HD
ENDBRANCH   1  18
TORSDOF 4
