REMARK  2 active torsions:
REMARK  status: ('A' for Active; 'I' for Inactive)
REMARK    1  A    between atoms: C1_1  and  C2_2 
REMARK    2  A    between atoms: C5_8  and  C6_10 
ROOT
ATOM      1  C2  <0> d           0.002  -0.004   0.002  0.00  0.00    -0.012 C 
ATOM      2  H1  <0> d          -1.020  -0.383   0.010  0.00  0.00     0.046 H 
ATOM      3  C3  <0> d           0.725  -0.501  -1.255  0.00  0.00     0.027 C 
ATOM      4  O1  <0> d           0.853  -1.924  -1.185  0.00  0.00    -0.366 OA
ATOM      5  C4  <0> d           1.556  -2.383  -0.027  0.00  0.00     0.103 C 
ATOM      6  O2  <0> d           0.878  -1.937   1.150  0.00  0.00    -0.362 OA
ATOM      7  C5  <0> d           0.748  -0.514   1.240  0.00  0.00     0.042 C 
ATOM      8  H2  <0> d           1.739  -0.061   1.281  0.00  0.00     0.083 H 
ATOM      9  H6  <0> d           0.147  -0.230  -2.139  0.00  0.00     0.075 H 
ATOM     10  H7  <0> d           1.714  -0.047  -1.310  0.00  0.00     0.075 H 
ATOM     11  H8  <0> d           1.595  -3.472  -0.034  0.00  0.00     0.117 H 
ATOM     12  H9  <0> d           2.570  -1.984  -0.036  0.00  0.00     0.117 H 
ENDROOT
BRANCH   1  13
ATOM     13  C1  <0> d          -0.019   1.526   0.010  0.00  0.00    -0.069 C 
ATOM     14  H3  <0> d           1.004   1.903   0.003  0.00  0.00     0.028 H 
ATOM     15  H4  <0> d          -0.546   1.887  -0.873  0.00  0.00     0.028 H 
ATOM     16  H5  <0> d          -0.529   1.877   0.907  0.00  0.00     0.028 H 
ENDBRANCH   1  13
BRANCH   7  17
ATOM     17  C6  <0> d          -0.038  -0.147   2.499  0.00  0.00    -0.052 C 
ATOM     18  H10 <0> d          -1.026  -0.606   2.458  0.00  0.00     0.030 H 
ATOM     19  H11 <0> d           0.494  -0.511   3.379  0.00  0.00     0.030 H 
ATOM     20  H12 <0> d          -0.142   0.936   2.560  0.00  0.00     0.030 H 
ENDBRANCH   7  17
TORSDOF 2
