REMARK  6 active torsions:
REMARK  status: ('A' for Active; 'I' for Inactive)
REMARK    1  A    between atoms: C1_1  and  C2_2 
REMARK    2  A    between atoms: C2_2  and  O1_3 
REMARK    3  A    between atoms: O1_3  and  C3_4 
REMARK    4  A    between atoms: C3_4  and  C4_6 
REMARK    5  A    between atoms: C4_6  and  C5_7 
REMARK    6  A    between atoms: C5_7  and  C6_8 
ROOT
ATOM      1  C6  <0> d          -0.018   1.468   0.010  0.00  0.00     0.015 C 
ATOM      2  C7  <0> d           0.002  -0.004   0.002  0.00  0.00     0.059 C 
ATOM      3  N1  <0> d           0.018  -1.140  -0.004  0.00  0.00    -0.197 NA
ATOM      4  H10 <0> d           1.005   1.845   0.002  0.00  0.00     0.054 H 
ATOM      5  H11 <0> d          -0.545   1.829  -0.873  0.00  0.00     0.054 H 
ENDROOT
BRANCH   1   6
ATOM      6  C5  <0> d          -0.734   1.961   1.269  0.00  0.00    -0.045 C 
ATOM      7  H8  <0> d          -1.757   1.584   1.277  0.00  0.00     0.035 H 
ATOM      8  H9  <0> d          -0.207   1.600   2.152  0.00  0.00     0.035 H 
BRANCH   6   9
ATOM      9  C4  <0> d          -0.755   3.491   1.277  0.00  0.00     0.017 C 
ATOM     10  H6  <0> d           0.268   3.868   1.270  0.00  0.00     0.048 H 
ATOM     11  H7  <0> d          -1.282   3.852   0.394  0.00  0.00     0.048 H 
BRANCH   9  12
ATOM     12  C3  <0> d          -1.460   3.977   2.517  0.00  0.00     0.258 C 
ATOM     13  O2  <0> d          -1.901   3.181   3.312  0.00  0.00    -0.265 OA
BRANCH  12  14
ATOM     14  O1  <0> d          -1.599   5.294   2.738  0.00  0.00    -0.322 OA
BRANCH  14  15
ATOM     15  C2  <0> d          -2.289   5.689   3.953  0.00  0.00     0.025 C 
ATOM     16  H4  <0> d          -3.301   5.286   3.943  0.00  0.00     0.074 H 
ATOM     17  H5  <0> d          -1.752   5.302   4.818  0.00  0.00     0.074 H 
BRANCH  15  18
ATOM     18  C1  <0> d          -2.349   7.216   4.031  0.00  0.00    -0.056 C 
ATOM     19  H1  <0> d          -2.867   7.513   4.943  0.00  0.00     0.030 H 
ATOM     20  H2  <0> d          -1.336   7.620   4.040  0.00  0.00     0.030 H 
ATOM     21  H3  <0> d          -2.886   7.604   3.165  0.00  0.00     0.030 H 
ENDBRANCH  15  18
ENDBRANCH  14  15
ENDBRANCH  12  14
ENDBRANCH   9  12
ENDBRANCH   6   9
ENDBRANCH   1   6
TORSDOF 6
