REMARK  5 active torsions:
REMARK  status: ('A' for Active; 'I' for Inactive)
REMARK    1  A    between atoms: C1_1  and  C2_2 
REMARK    2  A    between atoms: C2_2  and  C3_3 
REMARK    3  A    between atoms: C3_3  and  C4_5 
REMARK    4  A    between atoms: C3_3  and  C5_6 
REMARK    5  A    between atoms: C6_7  and  N2_13 
ROOT
ATOM      1  C3  <0> d          -2.164   1.050   1.278  0.00  0.00    -0.023 C 
ATOM      2  H1  <0> d          -2.664   1.336   0.353  0.00  0.00     0.047 H 
ENDROOT
BRANCH   1   3
ATOM      3  C2  <0> d          -0.729   1.579   1.267  0.00  0.00    -0.061 C 
ATOM      4  H6  <0> d          -0.202   1.218   2.150  0.00  0.00     0.033 H 
ATOM      5  H7  <0> d          -0.744   2.669   1.273  0.00  0.00     0.033 H 
BRANCH   3   6
ATOM      6  C1  <0> d          -0.013   1.086   0.008  0.00  0.00    -0.076 C 
ATOM      7  H3  <0> d           0.002  -0.004   0.002  0.00  0.00     0.027 H 
ATOM      8  H4  <0> d           1.010   1.463   0.000  0.00  0.00     0.027 H 
ATOM      9  H5  <0> d          -0.540   1.447  -0.875  0.00  0.00     0.027 H 
ENDBRANCH   3   6
ENDBRANCH   1   3
BRANCH   1  10
ATOM     10  C4  <0> d          -2.144  -0.476   1.395  0.00  0.00    -0.069 C 
ATOM     11  H8  <0> d          -1.607  -0.898   0.546  0.00  0.00     0.028 H 
ATOM     12  H9  <0> d          -1.644  -0.762   2.320  0.00  0.00     0.028 H 
ATOM     13  H10 <0> d          -3.167  -0.853   1.403  0.00  0.00     0.028 H 
ENDBRANCH   1  10
BRANCH   1  14
ATOM     14  C5  <0> d          -2.906   1.634   2.452  0.00  0.00     0.068 A 
ATOM     15  C7  <0> d          -2.602   1.503   3.821  0.00  0.00     0.276 A 
ATOM     16  N1  <0> d          -3.548   2.202   4.479  0.00  0.00    -0.223 N 
ATOM     17  O2  <0> d          -1.671   0.883   4.311  0.00  0.00    -0.266 OA
ATOM     18  O1  <0> d          -4.336   2.697   3.707  0.00  0.00    -0.216 OA
ATOM     19  H2  <0> d          -3.592   2.293   5.444  0.00  0.00     0.198 HD
ATOM     20  C6  <0> d          -4.035   2.410   2.433  0.00  0.00     0.176 A 
BRANCH  20  21
ATOM     21  N2  <0> d          -4.728   2.817   1.317  0.00  0.00    -0.378 N 
ATOM     22  H11 <0> d          -4.425   2.553   0.434  0.00  0.00     0.158 HD
ATOM     23  H12 <0> d          -5.520   3.369   1.413  0.00  0.00     0.158 HD
ENDBRANCH  20  21
ENDBRANCH   1  14
TORSDOF 5
