REMARK  1 active torsions:
REMARK  status: ('A' for Active; 'I' for Inactive)
REMARK    1  A    between atoms: C3_4  and  N2_8 
ROOT
ATOM      1  C1  <0> d           1.159   2.040   0.002  0.00  0.00    -0.045 A 
ATOM      2  C2  <0> d          -0.016   1.315   0.009  0.00  0.00     0.006 A 
ATOM      3  N1  <0> d           0.002  -0.004   0.002  0.00  0.00    -0.244 NA
ATOM      4  C3  <0> d           1.139  -0.684  -0.013  0.00  0.00     0.122 A 
ATOM      5  C4  <0> d           2.360  -0.020  -0.021  0.00  0.00    -0.018 A 
ATOM      6  C5  <0> d           2.374   1.365  -0.013  0.00  0.00     0.039 A 
ATOM      7 Cl1  <0> d           3.874   2.238  -0.022  0.00  0.00    -0.084 Cl
ATOM      8  H1  <0> d           1.135   3.119   0.008  0.00  0.00     0.088 H 
ATOM      9  H2  <0> d          -0.962   1.835   0.017  0.00  0.00     0.114 H 
ATOM     10  H3  <0> d           3.286  -0.577  -0.032  0.00  0.00     0.092 H 
ENDROOT
BRANCH   4  11
ATOM     11  N2  <0> d           1.110  -2.074  -0.020  0.00  0.00    -0.384 N 
ATOM     12  H4  <0> d           2.051  -2.643  -0.032  0.00  0.00     0.157 HD
ATOM     13  H5  <0> d           0.146  -2.604  -0.014  0.00  0.00     0.157 HD
ENDBRANCH   4  11
TORSDOF 1
