REMARK  2 active torsions:
REMARK  status: ('A' for Active; 'I' for Inactive)
REMARK    1  A    between atoms: C3_3  and  N1_9 
REMARK    2  A    between atoms: C6_6  and  O1_7 
ROOT
ATOM      1  C1  <0> d           1.862   1.822   1.195  0.00  0.00    -0.049 A 
ATOM      2  C2  <0> d           3.119   2.397   1.188  0.00  0.00    -0.052 A 
ATOM      3  C3  <0> d           3.738   2.695  -0.017  0.00  0.00     0.065 A 
ATOM      4  C4  <0> d           3.096   2.410  -1.217  0.00  0.00     0.145 A 
ATOM      5  C5  <0> d           1.841   1.830  -1.208  0.00  0.00    -0.011 A 
ATOM      6  C6  <0> d           1.224   1.533  -0.001  0.00  0.00     0.068 A 
ATOM      7  F1  <0> d           3.699   2.699  -2.391  0.00  0.00    -0.204 F 
ATOM      8  H1  <0> d           1.378   1.594   2.134  0.00  0.00     0.087 H 
ATOM      9  H2  <0> d           3.616   2.618   2.121  0.00  0.00     0.087 H 
ATOM     10  H3  <0> d           1.342   1.608  -2.139  0.00  0.00     0.092 H 
ENDROOT
BRANCH   3  11
ATOM     11  N1  <0> d           5.010   3.283  -0.024  0.00  0.00    -0.397 N 
ATOM     12  H5  <0> d           5.443   3.491  -0.867  0.00  0.00     0.156 HD
ATOM     13  H6  <0> d           5.457   3.482   0.813  0.00  0.00     0.156 HD
ENDBRANCH   3  11
BRANCH   6  14
ATOM     14  O1  <0> d          -0.011   0.963   0.007  0.00  0.00    -0.361 OA
ATOM     15  H4  <0> d           0.002  -0.004   0.002  0.00  0.00     0.217 HD
ENDBRANCH   6  14
TORSDOF 2
