REMARK  4 active torsions:
REMARK  status: ('A' for Active; 'I' for Inactive)
REMARK    1  A    between atoms: C1_1  and  C2_2 
REMARK    2  A    between atoms: C6_9  and  C7_10 
REMARK    3  A    between atoms: C6_9  and  C8_11 
REMARK    4  A    between atoms: C10_13  and  O1_15 
ROOT
ATOM      1  C2  <0> d           0.064   1.560  -0.004  0.00  0.00    -0.029 C 
ATOM      2  H1  <0> d          -0.465   1.931  -0.883  0.00  0.00     0.043 H 
ATOM      3  C3  <0> d           0.044   0.021   0.004  0.00  0.00    -0.041 C 
ATOM      4  H2  <0> d          -0.844  -0.414   0.463  0.00  0.00     0.042 H 
ATOM      5  C4  <0> d           1.392  -0.543   0.499  0.00  0.00    -0.057 C 
ATOM      6  C5  <0> d           1.881  -0.278  -0.959  0.00  0.00    -0.044 C 
ATOM      7  H3  <0> d           2.619  -0.979  -1.352  0.00  0.00     0.041 H 
ATOM      8  C6  <0> d           0.423  -0.548  -1.376  0.00  0.00    -0.040 C 
ATOM      9  C9  <0> d           2.250   1.204  -1.150  0.00  0.00    -0.037 C 
ATOM     10  C10 <0> d           1.528   2.018  -0.049  0.00  0.00     0.039 C 
ATOM     11  H4  <0> d           1.573   3.078  -0.299  0.00  0.00     0.083 H 
ATOM     12  H8  <0> d           1.876   0.074   1.256  0.00  0.00     0.034 H 
ATOM     13  H9  <0> d           1.356  -1.599   0.766  0.00  0.00     0.034 H 
ATOM     14  H16 <0> d           3.328   1.331  -1.049  0.00  0.00     0.037 H 
ATOM     15  H17 <0> d           1.931   1.538  -2.137  0.00  0.00     0.037 H 
ENDROOT
BRANCH   8  16
ATOM     16  C7  <0> d           0.093  -2.032  -1.545  0.00  0.00    -0.069 C 
ATOM     17  H10 <0> d          -0.979  -2.182  -1.417  0.00  0.00     0.028 H 
ATOM     18  H11 <0> d           0.389  -2.359  -2.542  0.00  0.00     0.028 H 
ATOM     19  H12 <0> d           0.633  -2.612  -0.797  0.00  0.00     0.028 H 
ENDBRANCH   8  16
BRANCH   8  20
ATOM     20  C8  <0> d          -0.052   0.310  -2.551  0.00  0.00    -0.069 C 
ATOM     21  H13 <0> d           0.289   1.336  -2.413  0.00  0.00     0.028 H 
ATOM     22  H14 <0> d           0.357  -0.087  -3.480  0.00  0.00     0.028 H 
ATOM     23  H15 <0> d          -1.141   0.292  -2.596  0.00  0.00     0.028 H 
ENDBRANCH   8  20
BRANCH   1  24
ATOM     24  C1  <0> d          -0.606   2.092   1.265  0.00  0.00    -0.070 C 
ATOM     25  H5  <0> d          -0.067   1.729   2.139  0.00  0.00     0.028 H 
ATOM     26  H6  <0> d          -0.589   3.182   1.254  0.00  0.00     0.028 H 
ATOM     27  H7  <0> d          -1.638   1.745   1.304  0.00  0.00     0.028 H 
ENDBRANCH   1  24
BRANCH  10  28
ATOM     28  O1  <0> d           2.139   1.797   1.224  0.00  0.00    -0.395 OA
ATOM     29  H18 <0> d           3.067   2.065   1.267  0.00  0.00     0.210 HD
ENDBRANCH  10  28
TORSDOF 4
