REMARK  0 active torsions:
REMARK  status: ('A' for Active; 'I' for Inactive)
ROOT
ATOM      1  C1  <0> d          -0.021   1.534   0.007  0.00  0.00    -0.045 C 
ATOM      2  C2  <0> d           0.002  -0.004   0.002  0.00  0.00    -0.015 C 
ATOM      3  C3  <0> d           0.985  -0.436  -1.056  0.00  0.00     0.107 A 
ATOM      4  C4  <0> d           1.896   0.400  -1.615  0.00  0.00     0.116 A 
ATOM      5  C5  <0> d           2.591  -0.412  -2.539  0.00  0.00     0.228 A 
ATOM      6  N1  <0> d           2.053  -1.604  -2.446  0.00  0.00    -0.235 N 
ATOM      7  O1  <0> d           1.159  -1.631  -1.625  0.00  0.00    -0.238 OA
ATOM      8  O2  <0> d           3.608  -0.035  -3.355  0.00  0.00    -0.168 OA
ATOM      9  N2  <0> d           2.053   1.754  -1.297  0.00  0.00    -0.384 N 
ATOM     10  C6  <0> d           1.418   2.056  -0.003  0.00  0.00    -0.007 C 
ATOM     11  H1  <0> d          -0.536   1.893   0.911  0.00  0.00     0.035 H 
ATOM     12  H2  <0> d          -0.550   1.899  -0.885  0.00  0.00     0.035 H 
ATOM     13  H3  <0> d           0.315  -0.369   0.991  0.00  0.00     0.043 H 
ATOM     14  H4  <0> d          -1.004  -0.385  -0.228  0.00  0.00     0.043 H 
ATOM     15  H5  <0> d           1.414   3.145   0.153  0.00  0.00     0.064 H 
ATOM     16  H6  <0> d           1.990   1.573   0.803  0.00  0.00     0.064 H 
ATOM     17  H7  <0> d           2.558   2.551  -1.862  0.00  0.00     0.159 HD
ATOM     18  H8  <0> d           2.316  -2.515  -3.002  0.00  0.00     0.197 HD
ENDROOT
TORSDOF 0
