REMARK  2 active torsions:
REMARK  status: ('A' for Active; 'I' for Inactive)
REMARK    1  A    between atoms: C1_1  and  C2_2 
REMARK    2  A    between atoms: C2_2  and  C9_11 
ROOT
ATOM      1  C2  <0> d           0.002  -0.004   0.002  0.00  0.00     0.057 C 
ATOM      2  C3  <0> d          -1.440  -0.548   0.029  0.00  0.00    -0.032 C 
ATOM      3  C4  <0> d          -1.495  -1.419   1.310  0.00  0.00    -0.010 C 
ATOM      4  C5  <0> d          -0.001  -1.699   1.571  0.00  0.00     0.165 C 
ATOM      5  O1  <0> d           0.667  -0.491   1.182  0.00  0.00    -0.345 OA
ATOM      6  C6  <0> d           0.231  -1.995   3.060  0.00  0.00    -0.011 C 
ATOM      7  C7  <0> d           0.332  -3.546   3.069  0.00  0.00    -0.040 C 
ATOM      8  C8  <0> d           1.002  -3.808   1.695  0.00  0.00     0.023 C 
ATOM      9  O2  <0> d           0.449  -2.815   0.812  0.00  0.00    -0.355 OA
ATOM     10  H4  <0> d          -2.156   0.272   0.095  0.00  0.00     0.037 H 
ATOM     11  H5  <0> d          -1.635  -1.156  -0.854  0.00  0.00     0.037 H 
ATOM     12  H6  <0> d          -1.938  -0.866   2.138  0.00  0.00     0.041 H 
ATOM     13  H7  <0> d          -2.039  -2.345   1.127  0.00  0.00     0.041 H 
ATOM     14  H8  <0> d           1.160  -1.542   3.407  0.00  0.00     0.041 H 
ATOM     15  H9  <0> d          -0.613  -1.656   3.660  0.00  0.00     0.041 H 
ATOM     16  H10 <0> d           0.964  -3.894   3.886  0.00  0.00     0.036 H 
ATOM     17  H11 <0> d          -0.656  -4.004   3.117  0.00  0.00     0.036 H 
ATOM     18  H12 <0> d           2.083  -3.685   1.772  0.00  0.00     0.074 H 
ATOM     19  H13 <0> d           0.758  -4.809   1.340  0.00  0.00     0.074 H 
ENDROOT
BRANCH   1  20
ATOM     20  C1  <0> d          -0.019   1.526   0.010  0.00  0.00    -0.048 C 
ATOM     21  H1  <0> d           1.004   1.903   0.003  0.00  0.00     0.031 H 
ATOM     22  H2  <0> d          -0.546   1.887  -0.873  0.00  0.00     0.031 H 
ATOM     23  H3  <0> d          -0.529   1.877   0.907  0.00  0.00     0.031 H 
ENDBRANCH   1  20
BRANCH   1  24
ATOM     24  C9  <0> d           0.727  -0.507  -1.248  0.00  0.00    -0.048 C 
ATOM     25  H14 <0> d           1.747  -0.123  -1.256  0.00  0.00     0.031 H 
ATOM     26  H15 <0> d           0.749  -1.597  -1.241  0.00  0.00     0.031 H 
ATOM     27  H16 <0> d           0.201  -0.160  -2.137  0.00  0.00     0.031 H 
ENDBRANCH   1  24
TORSDOF 2
