REMARK  0 active torsions:
REMARK  status: ('A' for Active; 'I' for Inactive)
REMARK       I    between atoms: N1_6  and  C5_7 
REMARK       I    between atoms: C5_7  and  N2_9 
ROOT
ATOM      1  C1  <0> d           1.418   1.950   0.003  0.00  0.00     0.019 C 
ATOM      2  C2  <0> d          -0.021   1.423   0.016  0.00  0.00     0.034 C 
ATOM      3  O1  <0> d           0.002  -0.007   0.005  0.00  0.00    -0.388 OA
ATOM      4  C3  <0> d           0.626  -0.591   1.151  0.00  0.00     0.034 C 
ATOM      5  C4  <0> d           2.098  -0.166   1.196  0.00  0.00     0.019 C 
ATOM      6  N1  <0> d           2.161   1.300   1.094  0.00  0.00    -0.330 N 
ATOM      7  C5  <0> d           2.878   2.027   1.974  0.00  0.00     0.316 C 
ATOM      8  O2  <0> d           3.407   1.482   2.924  0.00  0.00    -0.247 OA
ATOM      9  N2  <0> d           3.009   3.357   1.801  0.00  0.00    -0.352 N 
ATOM     10  H1  <0> d           1.887   1.714  -0.953  0.00  0.00     0.067 H 
ATOM     11  H2  <0> d           1.415   3.030   0.153  0.00  0.00     0.067 H 
ATOM     12  H3  <0> d          -0.550   1.785  -0.865  0.00  0.00     0.076 H 
ATOM     13  H4  <0> d          -0.528   1.772   0.916  0.00  0.00     0.076 H 
ATOM     14  H5  <0> d           0.121  -0.249   2.055  0.00  0.00     0.076 H 
ATOM     15  H6  <0> d           0.562  -1.677   1.087  0.00  0.00     0.076 H 
ATOM     16  H7  <0> d           2.545  -0.488   2.136  0.00  0.00     0.067 H 
ATOM     17  H8  <0> d           2.635  -0.617   0.361  0.00  0.00     0.067 H 
ATOM     18  H9  <0> d           2.529   3.803   1.086  0.00  0.00     0.160 HD
ATOM     19  H10 <0> d           3.583   3.869   2.393  0.00  0.00     0.160 HD
ENDROOT
TORSDOF 0
