REMARK  2 active torsions:
REMARK  status: ('A' for Active; 'I' for Inactive)
REMARK    1  A    between atoms: C1_1  and  C2_2 
REMARK    2  A    between atoms: C4_4  and  C5_8 
ROOT
ATOM      1  C2  <0> d           0.002  -0.004   0.002  0.00  0.00     0.064 A 
ATOM      2  C3  <0> d           0.008  -0.797  -1.096  0.00  0.00     0.165 A 
ATOM      3  C4  <0> d           0.028  -2.128  -0.665  0.00  0.00     0.091 A 
ATOM      4  N1  <0> d           0.034  -2.135   0.644  0.00  0.00    -0.176 NA
ATOM      5  N2  <0> d           0.024  -0.807   1.089  0.00  0.00    -0.279 N 
ATOM      6  H1  <0> d           0.029  -0.515   2.014  0.00  0.00     0.189 HD
ATOM      7  F1  <0> d          -0.004  -0.377  -2.380  0.00  0.00    -0.202 F 
ENDROOT
BRANCH   1   8
ATOM      8  C1  <0> d          -0.018   1.503   0.010  0.00  0.00    -0.033 C 
ATOM      9  H2  <0> d           1.004   1.880   0.003  0.00  0.00     0.035 H 
ATOM     10  H3  <0> d          -0.545   1.864  -0.873  0.00  0.00     0.035 H 
ATOM     11  H4  <0> d          -0.529   1.854   0.907  0.00  0.00     0.035 H 
ENDBRANCH   1   8
BRANCH   3  12
ATOM     12  C5  <0> d           0.040  -3.345  -1.555  0.00  0.00    -0.031 C 
ATOM     13  H5  <0> d           1.070  -3.624  -1.774  0.00  0.00     0.035 H 
ATOM     14  H6  <0> d          -0.460  -4.170  -1.048  0.00  0.00     0.035 H 
ATOM     15  H7  <0> d          -0.481  -3.119  -2.485  0.00  0.00     0.035 H 
ENDBRANCH   3  12
TORSDOF 2
