REMARK  3 active torsions:
REMARK  status: ('A' for Active; 'I' for Inactive)
REMARK    1  A    between atoms: C1_1  and  C2_2 
REMARK    2  A    between atoms: C2_2  and  C3_3 
REMARK    3  A    between atoms: C2_2  and  N2_6 
ROOT
ATOM      1  C2  <0> d          -0.018   1.468   0.010  0.00  0.00     0.239 C 
ATOM      2  C4  <0> d          -0.807   1.848  -1.173  0.00  0.00     0.101 C 
ATOM      3  N1  <0> d          -1.416   2.141  -2.086  0.00  0.00    -0.195 NA
ENDROOT
BRANCH   1   4
ATOM      4  C1  <0> d           0.135  -0.054   0.054  0.00  0.00    -0.030 C 
ATOM      5  H1  <0> d          -0.860  -0.521   0.112  0.00  0.00     0.032 H 
ATOM      6  H2  <0> d           0.724  -0.338   0.939  0.00  0.00     0.032 H 
ATOM      7  H3  <0> d           0.649  -0.398  -0.855  0.00  0.00     0.032 H 
ENDBRANCH   1   4
BRANCH   1   8
ATOM      8  C3  <0> d           1.365   2.117  -0.070  0.00  0.00    -0.030 C 
ATOM      9  H4  <0> d           1.256   3.211  -0.102  0.00  0.00     0.032 H 
ATOM     10  H5  <0> d           1.879   1.773  -0.980  0.00  0.00     0.032 H 
ATOM     11  H6  <0> d           1.955   1.833   0.814  0.00  0.00     0.032 H 
ENDBRANCH   1   8
BRANCH   1  12
ATOM     12  N2  <0> d          -0.705   1.927   1.225  0.00  0.00     0.111 N 
ATOM     13  C8  <0> d          -2.056   1.334   1.326  0.00  0.00     0.116 C 
ATOM     14  C7  <0> d          -2.964   2.389   1.985  0.00  0.00    -0.038 C 
ATOM     15  H13 <0> d          -2.422   1.082   0.319  0.00  0.00     0.080 H 
ATOM     16  H14 <0> d          -2.012   0.422   1.939  0.00  0.00     0.080 H 
ATOM     17  C6  <0> d          -2.053   3.616   2.219  0.00  0.00    -0.038 C 
ATOM     18  H11 <0> d          -3.359   2.037   2.949  0.00  0.00     0.035 H 
ATOM     19  H12 <0> d          -3.799   2.672   1.328  0.00  0.00     0.035 H 
ATOM     20  C5  <0> d          -0.909   3.398   1.198  0.00  0.00     0.116 C 
ATOM     21  H9  <0> d          -1.636   3.646   3.236  0.00  0.00     0.035 H 
ATOM     22  H10 <0> d          -2.561   4.567   2.003  0.00  0.00     0.035 H 
ATOM     23  H7  <0> d           0.022   3.902   1.495  0.00  0.00     0.080 H 
ATOM     24  H8  <0> d          -1.187   3.711   0.180  0.00  0.00     0.080 H 
ENDBRANCH   1  12
TORSDOF 3
