REMARK  2 active torsions:
REMARK  status: ('A' for Active; 'I' for Inactive)
REMARK    1  A    between atoms: C1_1  and  C2_2 
REMARK    2  A    between atoms: C10_11  and  N2_12 
ROOT
ATOM      1  C2  <0> d           0.002  -0.004   0.002  0.00  0.00    -0.033 A 
ATOM      2  C3  <0> d           0.006  -0.685  -1.212  0.00  0.00    -0.074 A 
ATOM      3  C4  <0> d           0.024  -2.046  -1.253  0.00  0.00    -0.070 A 
ATOM      4  C5  <0> d           0.040  -2.782  -0.057  0.00  0.00    -0.005 A 
ATOM      5  C6  <0> d           0.059  -4.190  -0.065  0.00  0.00    -0.069 A 
ATOM      6  C7  <0> d           0.074  -4.841   1.136  0.00  0.00    -0.065 A 
ATOM      7  C8  <0> d           0.070  -4.111   2.322  0.00  0.00     0.003 A 
ATOM      8  N1  <0> d           0.051  -2.800   2.325  0.00  0.00    -0.258 NA
ATOM      9  C9  <0> d           0.036  -2.103   1.186  0.00  0.00     0.093 A 
ATOM     10  C10 <0> d           0.023  -0.691   1.196  0.00  0.00     0.061 A 
ATOM     11  H4  <0> d          -0.007  -0.125  -2.136  0.00  0.00     0.084 H 
ATOM     12  H5  <0> d           0.026  -2.558  -2.203  0.00  0.00     0.084 H 
ATOM     13  H6  <0> d           0.062  -4.739  -0.994  0.00  0.00     0.085 H 
ATOM     14  H7  <0> d           0.089  -5.920   1.165  0.00  0.00     0.085 H 
ATOM     15  H8  <0> d           0.081  -4.639   3.265  0.00  0.00     0.114 H 
ENDROOT
BRANCH   1  16
ATOM     16  C1  <0> d          -0.018   1.503   0.010  0.00  0.00    -0.049 C 
ATOM     17  H1  <0> d           1.004   1.880   0.003  0.00  0.00     0.033 H 
ATOM     18  H2  <0> d          -0.545   1.864  -0.873  0.00  0.00     0.033 H 
ATOM     19  H3  <0> d          -0.529   1.854   0.907  0.00  0.00     0.033 H 
ENDBRANCH   1  16
BRANCH  10  20
ATOM     20  N2  <0> d           0.025   0.003   2.406  0.00  0.00    -0.397 N 
ATOM     21  H9  <0> d           0.011   0.973   2.408  0.00  0.00     0.156 HD
ATOM     22  H10 <0> d           0.039  -0.484   3.244  0.00  0.00     0.156 HD
ENDBRANCH  10  20
TORSDOF 2
