REMARK  3 active torsions:
REMARK  status: ('A' for Active; 'I' for Inactive)
REMARK    1  A    between atoms: C1_1  and  C2_2 
REMARK    2  A    between atoms: C2_2  and  O1_3 
REMARK    3  A    between atoms: O1_3  and  C3_4 
REMARK       I    between atoms: C3_4  and  N1_6 
ROOT
ATOM      1  C3  <0> d          -1.188  -0.631   0.010  0.00  0.00     0.371 C 
ATOM      2  O2  <0> d          -2.215   0.016   0.023  0.00  0.00    -0.238 OA
ATOM      3  N1  <0> d          -1.240  -1.978   0.003  0.00  0.00    -0.262 N 
ATOM      4  C4  <0> d          -2.376  -2.753   0.015  0.00  0.00     0.008 A 
ATOM      5  C5  <0> d          -1.971  -4.035  -0.001  0.00  0.00     0.019 A 
ATOM      6  N2  <0> d          -0.629  -4.054  -0.013  0.00  0.00    -0.254 NA
ATOM      7  C6  <0> d          -0.178  -2.831  -0.011  0.00  0.00     0.074 A 
ATOM      8  H6  <0> d          -3.397  -2.400   0.032  0.00  0.00     0.114 H 
ATOM      9  H7  <0> d          -2.616  -4.902   0.000  0.00  0.00     0.117 H 
ATOM     10  H8  <0> d           0.863  -2.543  -0.019  0.00  0.00     0.144 H 
ENDROOT
BRANCH   1  11
ATOM     11  O1  <0> d           0.002  -0.004   0.002  0.00  0.00    -0.304 OA
BRANCH  11  12
ATOM     12  C2  <0> d          -0.018   1.448   0.010  0.00  0.00     0.027 C 
ATOM     13  H4  <0> d          -0.545   1.809  -0.873  0.00  0.00     0.074 H 
ATOM     14  H5  <0> d          -0.528   1.799   0.907  0.00  0.00     0.074 H 
BRANCH  12  15
ATOM     15  C1  <0> d           1.418   1.977  -0.001  0.00  0.00    -0.056 C 
ATOM     16  H1  <0> d           1.945   1.616   0.882  0.00  0.00     0.030 H 
ATOM     17  H2  <0> d           1.928   1.626  -0.898  0.00  0.00     0.030 H 
ATOM     18  H3  <0> d           1.403   3.067   0.005  0.00  0.00     0.030 H 
ENDBRANCH  12  15
ENDBRANCH  11  12
ENDBRANCH   1  11
TORSDOF 3
