REMARK  3 active torsions:
REMARK  status: ('A' for Active; 'I' for Inactive)
REMARK    1  A    between atoms: C1_1  and  O1_2 
REMARK    2  A    between atoms: O1_2  and  C2_3 
REMARK    3  A    between atoms: C2_3  and  C3_5 
ROOT
ATOM      1  C3  <0> d          -1.220   1.776   0.017  0.00  0.00     0.134 A 
ATOM      2  C4  <0> d          -0.013   1.076   0.008  0.00  0.00    -0.032 A 
ATOM      3  C5  <0> d           1.169   1.804   0.001  0.00  0.00     0.006 A 
ATOM      4  N1  <0> d           1.111   3.125   0.008  0.00  0.00    -0.254 NA
ATOM      5  C6  <0> d          -0.047   3.755   0.022  0.00  0.00     0.087 A 
ATOM      6  N2  <0> d          -1.192   3.106   0.029  0.00  0.00    -0.236 NA
ATOM      7  H4  <0> d           0.002  -0.004   0.002  0.00  0.00     0.089 H 
ATOM      8  H5  <0> d           2.123   1.298  -0.011  0.00  0.00     0.114 H 
ATOM      9  H6  <0> d          -0.057   4.835   0.028  0.00  0.00     0.146 H 
ENDROOT
BRANCH   1  10
ATOM     10  C2  <0> d          -2.513   1.048   0.019  0.00  0.00     0.311 C 
ATOM     11  O2  <0> d          -2.527  -0.166   0.013  0.00  0.00    -0.258 OA
BRANCH  10  12
ATOM     12  O1  <0> d          -3.672   1.734   0.029  0.00  0.00    -0.321 OA
BRANCH  12  13
ATOM     13  C1  <0> d          -4.898   0.958   0.030  0.00  0.00     0.013 C 
ATOM     14  H1  <0> d          -4.934   0.334  -0.863  0.00  0.00     0.067 H 
ATOM     15  H2  <0> d          -4.926   0.324   0.917  0.00  0.00     0.067 H 
ATOM     16  H3  <0> d          -5.755   1.631   0.038  0.00  0.00     0.067 H 
ENDBRANCH  12  13
ENDBRANCH  10  12
ENDBRANCH   1  10
TORSDOF 3
