REMARK  1 active torsions:
REMARK  status: ('A' for Active; 'I' for Inactive)
REMARK    1  A    between atoms: C8_9  and  N2_11 
ROOT
ATOM      1  C1  <0> d          -0.013   1.076   0.008  0.00  0.00    -0.080 A 
ATOM      2  C2  <0> d           1.166   1.762   0.000  0.00  0.00    -0.072 A 
ATOM      3  C3  <0> d           1.156   3.163   0.008  0.00  0.00    -0.021 A 
ATOM      4  C4  <0> d           2.342   3.920   0.000  0.00  0.00    -0.055 A 
ATOM      5  C5  <0> d           2.250   5.279   0.008  0.00  0.00     0.003 A 
ATOM      6  N1  <0> d           1.079   5.901   0.023  0.00  0.00    -0.272 NA
ATOM      7  C6  <0> d          -0.067   5.259   0.031  0.00  0.00     0.015 A 
ATOM      8  C7  <0> d          -0.082   3.857   0.024  0.00  0.00     0.018 A 
ATOM      9  C8  <0> d          -1.285   3.122   0.031  0.00  0.00     0.038 A 
ATOM     10  C9  <0> d          -1.233   1.743   0.017  0.00  0.00    -0.057 A 
ATOM     11  H1  <0> d           0.002  -0.004   0.002  0.00  0.00     0.083 H 
ATOM     12  H2  <0> d           2.104   1.227  -0.012  0.00  0.00     0.084 H 
ATOM     13  H3  <0> d           3.306   3.434  -0.011  0.00  0.00     0.087 H 
ATOM     14  H4  <0> d           3.156   5.866   0.002  0.00  0.00     0.114 H 
ATOM     15  H5  <0> d          -0.995   5.810   0.043  0.00  0.00     0.116 H 
ATOM     16  H6  <0> d          -2.151   1.174   0.018  0.00  0.00     0.086 H 
ENDROOT
BRANCH   9  17
ATOM     17  N2  <0> d          -2.512   3.780   0.046  0.00  0.00    -0.398 N 
ATOM     18  H7  <0> d          -2.542   4.749   0.052  0.00  0.00     0.156 HD
ATOM     19  H8  <0> d          -3.336   3.268   0.051  0.00  0.00     0.156 HD
ENDBRANCH   9  17
TORSDOF 1
