REMARK  1 active torsions:
REMARK  status: ('A' for Active; 'I' for Inactive)
REMARK    1  A    between atoms: C1_1  and  C2_2 
ROOT
ATOM      1  C2  <0> d           0.002  -0.004   0.002  0.00  0.00     0.093 A 
ATOM      2  C3  <0> d          -1.087  -0.815   0.003  0.00  0.00     0.094 A 
ATOM      3  C4  <0> d          -2.540  -0.615   0.011  0.00  0.00     0.260 A 
ATOM      4  O1  <0> d          -3.008   0.508   0.019  0.00  0.00    -0.267 OA
ATOM      5  N1  <0> d          -3.351  -1.692   0.009  0.00  0.00    -0.333 N 
ATOM      6  C5  <0> d          -2.885  -2.977  -0.000  0.00  0.00    -0.017 A 
ATOM      7  C6  <0> d          -1.581  -3.284  -0.008  0.00  0.00    -0.037 A 
ATOM      8  C7  <0> d          -0.587  -2.205  -0.008  0.00  0.00     0.104 A 
ATOM      9  N2  <0> d           0.717  -2.138  -0.014  0.00  0.00    -0.128 NA
ATOM     10  O2  <0> d           1.096  -0.773  -0.013  0.00  0.00    -0.217 OA
ATOM     11  H4  <0> d          -3.603  -3.783  -0.001  0.00  0.00     0.111 H 
ATOM     12  H5  <0> d          -1.265  -4.317  -0.015  0.00  0.00     0.089 H 
ATOM     13  H6  <0> d          -4.310  -1.548   0.015  0.00  0.00     0.168 HD
ENDROOT
BRANCH   1  14
ATOM     14  C1  <0> d          -0.018   1.503   0.010  0.00  0.00    -0.028 C 
ATOM     15  H1  <0> d           1.004   1.880   0.003  0.00  0.00     0.036 H 
ATOM     16  H2  <0> d          -0.545   1.864  -0.873  0.00  0.00     0.036 H 
ATOM     17  H3  <0> d          -0.529   1.854   0.907  0.00  0.00     0.036 H 
ENDBRANCH   1  14
TORSDOF 1
