REMARK  0 active torsions:
REMARK  status: ('A' for Active; 'I' for Inactive)
ROOT
ATOM      1  C1  <0> d          -0.017   1.376   0.010  0.00  0.00    -0.079 A 
ATOM      2  C2  <0> d           0.002  -0.004   0.002  0.00  0.00    -0.062 A 
ATOM      3  C3  <0> d           1.220  -0.685  -0.012  0.00  0.00     0.053 A 
ATOM      4  C4  <0> d           2.421   0.032  -0.017  0.00  0.00    -0.011 A 
ATOM      5  C5  <0> d           2.389   1.415  -0.013  0.00  0.00     0.035 A 
ATOM      6  C6  <0> d           1.169   2.085   0.002  0.00  0.00    -0.057 A 
ATOM      7  N1  <0> d           3.574   2.159  -0.025  0.00  0.00    -0.389 N 
ATOM      8  C7  <0> d           4.845   1.479   0.260  0.00  0.00    -0.007 C 
ATOM      9  C8  <0> d           4.858   0.162  -0.528  0.00  0.00    -0.046 C 
ATOM     10  C9  <0> d           3.722  -0.727  -0.023  0.00  0.00    -0.036 C 
ATOM     11  C10 <0> d           1.240  -2.117  -0.019  0.00  0.00     0.100 C 
ATOM     12  N2  <0> d           1.255  -3.253  -0.025  0.00  0.00    -0.191 NA
ATOM     13  H1  <0> d          -0.960   1.903   0.017  0.00  0.00     0.083 H 
ATOM     14  H2  <0> d          -0.926  -0.557   0.006  0.00  0.00     0.085 H 
ATOM     15  H3  <0> d           1.149   3.164   0.008  0.00  0.00     0.086 H 
ATOM     16  H4  <0> d           3.557   3.110  -0.219  0.00  0.00     0.159 HD
ATOM     17  H5  <0> d           5.678   2.106  -0.055  0.00  0.00     0.064 H 
ATOM     18  H6  <0> d           4.920   1.271   1.327  0.00  0.00     0.064 H 
ATOM     19  H7  <0> d           4.716   0.370  -1.588  0.00  0.00     0.035 H 
ATOM     20  H8  <0> d           5.813  -0.343  -0.379  0.00  0.00     0.035 H 
ATOM     21  H9  <0> d           3.949  -1.060   0.990  0.00  0.00     0.040 H 
ATOM     22  H10 <0> d           3.629  -1.596  -0.674  0.00  0.00     0.040 H 
ENDROOT
TORSDOF 0
