REMARK  10 active torsions:
REMARK  status: ('A' for Active; 'I' for Inactive)
REMARK    1  A    between atoms: C1_1  and  C2_2 
REMARK    2  A    between atoms: C2_2  and  C3_3 
REMARK    3  A    between atoms: C3_3  and  C4_4 
REMARK    4  A    between atoms: C4_4  and  C5_6 
REMARK    5  A    between atoms: C4_4  and  C6_7 
REMARK    6  A    between atoms: C6_7  and  C7_9 
REMARK    7  A    between atoms: C6_7  and  O1_14 
REMARK    8  A    between atoms: C7_9  and  C8_11 
REMARK    9  A    between atoms: C7_9  and  C9_12 
REMARK   10  A    between atoms: C9_12  and  C10_13 
ROOT
ATOM      1  C6  <0> d           0.002  -0.004   0.002  0.00  0.00     0.042 C 
ATOM      2  H2  <0> d          -1.018  -0.381  -0.080  0.00  0.00     0.084 H 
ENDROOT
BRANCH   1   3
ATOM      3  C4  <0> d          -0.019   1.526   0.010  0.00  0.00    -0.032 C 
ATOM      4  H1  <0> d          -0.529   1.877   0.907  0.00  0.00     0.043 H 
BRANCH   3   5
ATOM      5  C3  <0> d          -0.759   2.033  -1.229  0.00  0.00    -0.060 C 
ATOM      6  H9  <0> d          -0.200   1.757  -2.124  0.00  0.00     0.033 H 
ATOM      7  H10 <0> d          -1.752   1.585  -1.268  0.00  0.00     0.033 H 
BRANCH   5   8
ATOM      8  C2  <0> d          -0.888   3.555  -1.158  0.00  0.00    -0.068 C 
ATOM      9  H7  <0> d          -1.447   3.831  -0.264  0.00  0.00     0.032 H 
ATOM     10  H8  <0> d           0.104   4.003  -1.120  0.00  0.00     0.032 H 
BRANCH   8  11
ATOM     11  C1  <0> d          -1.629   4.062  -2.398  0.00  0.00    -0.077 C 
ATOM     12  H4  <0> d          -1.070   3.786  -3.292  0.00  0.00     0.027 H 
ATOM     13  H5  <0> d          -2.622   3.614  -2.437  0.00  0.00     0.027 H 
ATOM     14  H6  <0> d          -1.721   5.147  -2.348  0.00  0.00     0.027 H 
ENDBRANCH   8  11
ENDBRANCH   5   8
ENDBRANCH   3   5
BRANCH   3  15
ATOM     15  C5  <0> d           1.417   2.055  -0.000  0.00  0.00    -0.071 C 
ATOM     16  H11 <0> d           1.944   1.694   0.883  0.00  0.00     0.028 H 
ATOM     17  H12 <0> d           1.927   1.704  -0.897  0.00  0.00     0.028 H 
ATOM     18  H13 <0> d           1.402   3.145   0.006  0.00  0.00     0.028 H 
ENDBRANCH   3  15
ENDBRANCH   1   3
BRANCH   1  19
ATOM     19  C7  <0> d           0.631  -0.513   1.301  0.00  0.00    -0.033 C 
ATOM     20  H3  <0> d           1.651  -0.136   1.383  0.00  0.00     0.043 H 
BRANCH  19  21
ATOM     21  C8  <0> d          -0.192  -0.020   2.493  0.00  0.00    -0.071 C 
ATOM     22  H14 <0> d           0.256  -0.383   3.418  0.00  0.00     0.028 H 
ATOM     23  H15 <0> d          -0.207   1.069   2.499  0.00  0.00     0.028 H 
ATOM     24  H16 <0> d          -1.211  -0.397   2.411  0.00  0.00     0.028 H 
ENDBRANCH  19  21
BRANCH  19  25
ATOM     25  C9  <0> d           0.652  -2.043   1.292  0.00  0.00    -0.063 C 
ATOM     26  H17 <0> d          -0.371  -2.420   1.300  0.00  0.00     0.033 H 
ATOM     27  H18 <0> d           1.162  -2.394   0.396  0.00  0.00     0.033 H 
BRANCH  25  28
ATOM     28  C10 <0> d           1.392  -2.549   2.532  0.00  0.00    -0.076 C 
ATOM     29  H19 <0> d           2.414  -2.172   2.524  0.00  0.00     0.027 H 
ATOM     30  H20 <0> d           0.882  -2.198   3.429  0.00  0.00     0.027 H 
ATOM     31  H21 <0> d           1.407  -3.639   2.526  0.00  0.00     0.027 H 
ENDBRANCH  25  28
ENDBRANCH  19  25
ENDBRANCH   1  19
BRANCH   1  32
ATOM     32  O1  <0> d           0.771  -0.464  -1.111  0.00  0.00    -0.395 OA
ATOM     33  H22 <0> d           1.691  -0.166  -1.104  0.00  0.00     0.210 HD
ENDBRANCH   1  32
TORSDOF 10
