REMARK  2 active torsions:
REMARK  status: ('A' for Active; 'I' for Inactive)
REMARK    1  A    between atoms: C1_1  and  O1_2 
REMARK    2  A    between atoms: O1_2  and  C2_3 
ROOT
ATOM      1  C2  <0> d           0.605  -0.606  -1.054  0.00  0.00     0.073 A 
ATOM      2  C3  <0> d           1.180   0.149  -2.075  0.00  0.00    -0.034 A 
ATOM      3  C4  <0> d           1.784  -0.499  -3.132  0.00  0.00     0.008 A 
ATOM      4  N1  <0> d           1.821  -1.817  -3.186  0.00  0.00    -0.233 NA
ATOM      5  C5  <0> d           1.287  -2.569  -2.239  0.00  0.00     0.212 A 
ATOM      6  C6  <0> d           0.670  -1.993  -1.143  0.00  0.00     0.005 A 
ATOM      7  F1  <0> d           1.351  -3.914  -2.339  0.00  0.00    -0.184 F 
ATOM      8  H4  <0> d           1.153   1.228  -2.038  0.00  0.00     0.089 H 
ATOM      9  H5  <0> d           2.231   0.080  -3.926  0.00  0.00     0.115 H 
ATOM     10  H6  <0> d           0.239  -2.612  -0.369  0.00  0.00     0.095 H 
ENDROOT
BRANCH   1  11
ATOM     11  O1  <0> d           0.002  -0.004   0.002  0.00  0.00    -0.356 OA
BRANCH  11  12
ATOM     12  C1  <0> d          -0.017   1.425   0.010  0.00  0.00     0.010 C 
ATOM     13  H1  <0> d           1.005   1.802   0.002  0.00  0.00     0.066 H 
ATOM     14  H2  <0> d          -0.544   1.786  -0.873  0.00  0.00     0.066 H 
ATOM     15  H3  <0> d          -0.527   1.776   0.907  0.00  0.00     0.066 H 
ENDBRANCH  11  12
ENDBRANCH   1  11
TORSDOF 2
