REMARK  5 active torsions:
REMARK  status: ('A' for Active; 'I' for Inactive)
REMARK    1  A    between atoms: C4_5  and  C6_7 
REMARK    2  A    between atoms: C6_7  and  C7_8 
REMARK    3  A    between atoms: C7_8  and  C8_9 
REMARK    4  A    between atoms: C8_9  and  C9_10 
REMARK    5  A    between atoms: C9_10  and  O1_11 
ROOT
ATOM      1  C6  <0> d           1.250  -2.168  -0.023  0.00  0.00    -0.025 C 
ATOM      2  H5  <0> d           1.702  -2.527   0.902  0.00  0.00     0.042 H 
ATOM      3  H6  <0> d           0.234  -2.553  -0.105  0.00  0.00     0.042 H 
ENDROOT
BRANCH   1   4
ATOM      4  C4  <0> d           1.218  -0.661  -0.014  0.00  0.00     0.034 A 
ATOM      5  N1  <0> d           2.350   0.015  -0.021  0.00  0.00    -0.266 NA
ATOM      6  C3  <0> d           2.370   1.334  -0.013  0.00  0.00     0.002 A 
ATOM      7  C2  <0> d           1.194   2.059   0.002  0.00  0.00    -0.066 A 
ATOM      8  H3  <0> d           3.317   1.853  -0.020  0.00  0.00     0.114 H 
ATOM      9  C1  <0> d          -0.017   1.382   0.010  0.00  0.00    -0.080 A 
ATOM     10  H2  <0> d           1.217   3.138   0.007  0.00  0.00     0.085 H 
ATOM     11  C5  <0> d           0.002  -0.004   0.002  0.00  0.00    -0.059 A 
ATOM     12  H1  <0> d          -0.952   1.922   0.026  0.00  0.00     0.083 H 
ATOM     13  H4  <0> d          -0.922  -0.564   0.008  0.00  0.00     0.086 H 
ENDBRANCH   1   4
BRANCH   1  14
ATOM     14  C7  <0> d           2.077  -2.653  -1.216  0.00  0.00    -0.058 C 
ATOM     15  H7  <0> d           1.626  -2.293  -2.141  0.00  0.00     0.033 H 
ATOM     16  H8  <0> d           3.093  -2.268  -1.134  0.00  0.00     0.033 H 
BRANCH  14  17
ATOM     17  C8  <0> d           2.110  -4.182  -1.225  0.00  0.00    -0.045 C 
ATOM     18  H9  <0> d           2.561  -4.542  -0.301  0.00  0.00     0.036 H 
ATOM     19  H10 <0> d           1.093  -4.567  -1.307  0.00  0.00     0.036 H 
BRANCH  17  20
ATOM     20  C9  <0> d           2.936  -4.667  -2.418  0.00  0.00     0.017 C 
ATOM     21  H11 <0> d           2.485  -4.308  -3.343  0.00  0.00     0.073 H 
ATOM     22  H12 <0> d           3.953  -4.282  -2.336  0.00  0.00     0.073 H 
BRANCH  20  23
ATOM     23  O1  <0> d           2.967  -6.096  -2.427  0.00  0.00    -0.401 OA
ATOM     24  H13 <0> d           3.475  -6.474  -3.158  0.00  0.00     0.209 HD
ENDBRANCH  20  23
ENDBRANCH  17  20
ENDBRANCH  14  17
ENDBRANCH   1  14
TORSDOF 5
