REMARK  1 active torsions:
REMARK  status: ('A' for Active; 'I' for Inactive)
REMARK    1  A    between atoms: C3_3  and  N3_10 
ROOT
ATOM      1  C1  <0> d           1.155   1.778   0.001  0.00  0.00    -0.076 A 
ATOM      2  C2  <0> d           1.125   3.178   0.008  0.00  0.00    -0.040 A 
ATOM      3  C3  <0> d          -0.067   3.837   0.023  0.00  0.00     0.106 A 
ATOM      4  N1  <0> d          -1.244   3.140   0.030  0.00  0.00    -0.291 N 
ATOM      5  C4  <0> d          -2.557   3.535   0.045  0.00  0.00     0.005 A 
ATOM      6  C5  <0> d          -3.310   2.415   0.047  0.00  0.00     0.020 A 
ATOM      7  N2  <0> d          -2.498   1.354   0.034  0.00  0.00    -0.241 NA
ATOM      8  C6  <0> d          -1.238   1.768   0.018  0.00  0.00     0.135 A 
ATOM      9  C7  <0> d          -0.013   1.076   0.008  0.00  0.00    -0.038 A 
ATOM     10  H1  <0> d           2.101   1.257  -0.011  0.00  0.00     0.083 H 
ATOM     11  H2  <0> d           2.049   3.736   0.003  0.00  0.00     0.089 H 
ATOM     12  H3  <0> d          -2.921   4.552   0.054  0.00  0.00     0.114 H 
ATOM     13  H4  <0> d          -4.389   2.382   0.057  0.00  0.00     0.117 H 
ATOM     14  H5  <0> d           0.002  -0.004   0.002  0.00  0.00     0.089 H 
ENDROOT
BRANCH   3  15
ATOM     15  N3  <0> d          -0.087   5.219   0.031  0.00  0.00    -0.385 N 
ATOM     16  H6  <0> d           0.746   5.716   0.026  0.00  0.00     0.157 HD
ATOM     17  H7  <0> d          -0.934   5.692   0.041  0.00  0.00     0.157 HD
ENDBRANCH   3  15
TORSDOF 1
