REMARK  4 active torsions:
REMARK  status: ('A' for Active; 'I' for Inactive)
REMARK    1  A    between atoms: C1_1  and  C2_2 
REMARK    2  A    between atoms: C2_2  and  O1_3 
REMARK    3  A    between atoms: O1_3  and  C3_4 
REMARK    4  A    between atoms: C5_6  and  N3_10 
ROOT
ATOM      1  C3  <0> d           2.118   0.786  -0.014  0.00  0.00     0.208 A 
ATOM      2  C4  <0> d           1.338  -0.398  -0.013  0.00  0.00     0.143 A 
ATOM      3  C5  <0> d           0.002  -0.004   0.002  0.00  0.00     0.141 A 
ATOM      4  N1  <0> d          -0.016   1.345   0.009  0.00  0.00    -0.259 N 
ATOM      5  H1  <0> d          -0.976   1.881   0.021  0.00  0.00     0.191 HD
ATOM      6  N2  <0> d           1.303   1.808  -0.001  0.00  0.00    -0.146 NA
ATOM      7  C6  <0> d           1.830  -1.743  -0.025  0.00  0.00     0.108 C 
ATOM      8  N4  <0> d           2.220  -2.809  -0.035  0.00  0.00    -0.191 NA
ENDROOT
BRANCH   1   9
ATOM      9  O1  <0> d           3.475   0.848  -0.026  0.00  0.00    -0.332 OA
BRANCH   9  10
ATOM     10  C2  <0> d           4.066   2.149  -0.025  0.00  0.00     0.024 C 
ATOM     11  H5  <0> d           3.753   2.693   0.879  0.00  0.00     0.074 H 
ATOM     12  H6  <0> d           3.737   2.702  -0.917  0.00  0.00     0.074 H 
BRANCH  10  13
ATOM     13  C1  <0> d           5.590   2.017  -0.039  0.00  0.00    -0.056 C 
ATOM     14  H2  <0> d           6.045   3.019  -0.038  0.00  0.00     0.030 H 
ATOM     15  H3  <0> d           5.902   1.474  -0.943  0.00  0.00     0.030 H 
ATOM     16  H4  <0> d           5.919   1.465   0.853  0.00  0.00     0.030 H 
ENDBRANCH  10  13
ENDBRANCH   9  10
ENDBRANCH   1   9
BRANCH   3  17
ATOM     17  N3  <0> d          -1.099  -0.839   0.008  0.00  0.00    -0.383 N 
ATOM     18  H7  <0> d          -2.113  -0.412   0.020  0.00  0.00     0.157 HD
ATOM     19  H8  <0> d          -0.962  -1.931   0.000  0.00  0.00     0.157 HD
ENDBRANCH   3  17
TORSDOF 4
