REMARK  5 active torsions:
REMARK  status: ('A' for Active; 'I' for Inactive)
REMARK    1  A    between atoms: C2_2  and  C3_3 
REMARK    2  A    between atoms: C3_3  and  C4_4 
REMARK    3  A    between atoms: C4_4  and  O1_5 
REMARK    4  A    between atoms: O1_5  and  C5_6 
REMARK    5  A    between atoms: C5_6  and  C6_7 
ROOT
ATOM      1  C4  <0> d          -2.182   1.345  -1.162  0.00  0.00     0.023 C 
ATOM      2  H6  <0> d          -1.653   1.553  -2.103  0.00  0.00     0.074 H 
ATOM      3  H7  <0> d          -2.366   0.264  -1.077  0.00  0.00     0.074 H 
ENDROOT
BRANCH   1   4
ATOM      4  C3  <0> d          -1.328   1.812   0.018  0.00  0.00    -0.031 C 
ATOM      5  H4  <0> d          -1.857   1.603   0.960  0.00  0.00     0.042 H 
ATOM      6  H5  <0> d          -1.144   2.893  -0.067  0.00  0.00     0.042 H 
BRANCH   4   7
ATOM      7  C2  <0> d          -0.013   1.076   0.008  0.00  0.00    -0.110 C 
ATOM      8  C1  <0> d           1.113   1.746   0.001  0.00  0.00    -0.125 C 
ATOM      9  H1  <0> d           2.073   1.209  -0.007  0.00  0.00     0.066 H 
ATOM     10  H2  <0> d           1.098   2.846   0.002  0.00  0.00     0.066 H 
ATOM     11  H3  <0> d           0.002  -0.024   0.007  0.00  0.00     0.075 H 
ENDBRANCH   4   7
ENDBRANCH   1   4
BRANCH   1  12
ATOM     12  O1  <0> d          -3.429   2.042  -1.152  0.00  0.00    -0.380 OA
BRANCH  12  13
ATOM     13  C5  <0> d          -4.307   1.679  -2.219  0.00  0.00     0.099 C 
ATOM     14  H8  <0> d          -3.822   1.894  -3.183  0.00  0.00     0.091 H 
ATOM     15  H9  <0> d          -4.536   0.604  -2.156  0.00  0.00     0.091 H 
BRANCH  13  16
ATOM     16  C6  <0> d          -5.585   2.471  -2.112  0.00  0.00     0.197 C 
ATOM     17  O2  <0> d          -5.729   3.266  -1.213  0.00  0.00    -0.646 OA
ATOM     18  O3  <0> d          -6.563   2.294  -3.014  0.00  0.00    -0.646 OA
ENDBRANCH  13  16
ENDBRANCH  12  13
ENDBRANCH   1  12
TORSDOF 5
