REMARK  1 active torsions:
REMARK  status: ('A' for Active; 'I' for Inactive)
REMARK    1  A    between atoms: C1_1  and  N1_2 
ROOT
ATOM      1  N1  <0> d           2.154   4.139   0.002  0.00  0.00    -0.295 N 
ATOM      2  C2  <0> d           1.155   3.167   0.008  0.00  0.00     0.072 A 
ATOM      3  C3  <0> d           1.175   1.781   0.000  0.00  0.00    -0.054 A 
ATOM      4  C4  <0> d          -0.013   1.076   0.008  0.00  0.00    -0.081 A 
ATOM      5  C5  <0> d          -1.222   1.750   0.017  0.00  0.00    -0.080 A 
ATOM      6  C6  <0> d          -1.250   3.130   0.030  0.00  0.00    -0.048 A 
ATOM      7  C7  <0> d          -0.063   3.846   0.022  0.00  0.00     0.107 A 
ATOM      8  O1  <0> d           0.216   5.173   0.026  0.00  0.00    -0.259 OA
ATOM      9  C8  <0> d           1.548   5.343   0.014  0.00  0.00     0.372 A 
ATOM     10  O2  <0> d           2.118   6.417   0.013  0.00  0.00    -0.238 OA
ATOM     11  H4  <0> d           2.118   1.254  -0.011  0.00  0.00     0.087 H 
ATOM     12  H5  <0> d           0.002  -0.004   0.002  0.00  0.00     0.083 H 
ATOM     13  H6  <0> d          -2.147   1.193   0.019  0.00  0.00     0.083 H 
ATOM     14  H7  <0> d          -2.196   3.652   0.041  0.00  0.00     0.087 H 
ENDROOT
BRANCH   1  15
ATOM     15  C1  <0> d           3.599   3.897  -0.012  0.00  0.00    -0.009 C 
ATOM     16  H1  <0> d           3.947   3.841  -1.043  0.00  0.00     0.057 H 
ATOM     17  H2  <0> d           4.109   4.713   0.500  0.00  0.00     0.057 H 
ATOM     18  H3  <0> d           3.814   2.957   0.496  0.00  0.00     0.057 H 
ENDBRANCH   1  15
TORSDOF 1
