REMARK  1 active torsions:
REMARK  status: ('A' for Active; 'I' for Inactive)
REMARK    1  A    between atoms: C2_2  and  C5_7 
ROOT
ATOM      1  C1  <0> d          -0.016   1.319   0.009  0.00  0.00     0.016 A 
ATOM      2  C2  <0> d           1.186   2.010   0.002  0.00  0.00     0.041 A 
ATOM      3  C3  <0> d           2.365   1.281  -0.014  0.00  0.00     0.016 A 
ATOM      4  N1  <0> d           2.304  -0.041  -0.020  0.00  0.00    -0.253 NA
ATOM      5  C4  <0> d           1.143  -0.664  -0.012  0.00  0.00     0.085 A 
ATOM      6  N2  <0> d           0.002  -0.004   0.002  0.00  0.00    -0.253 NA
ATOM      7  H1  <0> d          -0.954   1.854   0.026  0.00  0.00     0.116 H 
ATOM      8  H2  <0> d           3.320   1.785  -0.020  0.00  0.00     0.116 H 
ATOM      9  H3  <0> d           1.126  -1.744  -0.018  0.00  0.00     0.146 H 
ENDROOT
BRANCH   2  10
ATOM     10  C5  <0> d           1.210   3.517   0.009  0.00  0.00     0.236 C 
ATOM     11  F1  <0> d           2.353   3.968  -0.659  0.00  0.00    -0.209 F 
ATOM     12  F2  <0> d           0.069   4.004  -0.637  0.00  0.00    -0.209 F 
ATOM     13  H4  <0> d           1.225   3.875   1.038  0.00  0.00     0.153 H 
ENDBRANCH   2  10
TORSDOF 1
