REMARK  0 active torsions:
REMARK  status: ('A' for Active; 'I' for Inactive)
ROOT
ATOM      1  C1  <0> d           2.049   0.680  -0.016  0.00  0.00     0.125 A 
ATOM      2  N1  <0> d           1.249  -0.392  -0.014  0.00  0.00    -0.055 NA
ATOM      3  C2  <0> d           0.002  -0.004   0.002  0.00  0.00     0.719 A 
ATOM      4  N2  <0> d          -0.016   1.351   0.009  0.00  0.00    -0.098 N 
ATOM      5  N3  <0> d           1.316   1.765  -0.001  0.00  0.00    -0.150 NA
ATOM      6  C3  <0> d          -1.236   2.158   0.020  0.00  0.00     0.036 C 
ATOM      7  C4  <0> d          -2.410   1.289  -0.441  0.00  0.00    -0.032 C 
ATOM      8  C5  <0> d          -2.409  -0.038   0.327  0.00  0.00     0.011 C 
ATOM      9  N4  <0> d          -1.161  -0.762   0.013  0.00  0.00    -0.223 N 
ATOM     10  H1  <0> d           3.129   0.654  -0.027  0.00  0.00     0.150 H 
ATOM     11  H2  <0> d          -1.423   2.526   1.040  0.00  0.00     0.068 H 
ATOM     12  H3  <0> d          -1.115   3.013  -0.662  0.00  0.00     0.068 H 
ATOM     13  H4  <0> d          -3.355   1.818  -0.250  0.00  0.00     0.037 H 
ATOM     14  H5  <0> d          -2.316   1.085  -1.518  0.00  0.00     0.037 H 
ATOM     15  H6  <0> d          -2.463   0.164   1.407  0.00  0.00     0.064 H 
ATOM     16  H7  <0> d          -3.278  -0.639   0.022  0.00  0.00     0.064 H 
ATOM     17  H8  <0> d          -1.190  -1.842  -0.195  0.00  0.00     0.177 HD
ENDROOT
TORSDOF 0
