REMARK  2 active torsions:
REMARK  status: ('A' for Active; 'I' for Inactive)
REMARK    1  A    between atoms: C3_3  and  C6_8 
REMARK    2  A    between atoms: C4_5  and  C5_6 
ROOT
ATOM      1  C1  <0> d           1.347  -0.394  -0.013  0.00  0.00    -0.041 A 
ATOM      2  C2  <0> d           0.002  -0.004   0.002  0.00  0.00    -0.041 A 
ATOM      3  C3  <0> d          -0.017   1.362   0.009  0.00  0.00     0.152 A 
ATOM      4  O1  <0> d           1.254   1.804  -0.000  0.00  0.00    -0.297 OA
ATOM      5  C4  <0> d           2.093   0.751  -0.014  0.00  0.00     0.152 A 
ATOM      6  H1  <0> d           1.723  -1.406  -0.022  0.00  0.00     0.088 H 
ATOM      7  H2  <0> d          -0.857  -0.659   0.007  0.00  0.00     0.088 H 
ENDROOT
BRANCH   3   8
ATOM      8  C6  <0> d          -1.222   2.207   0.020  0.00  0.00     0.234 C 
ATOM      9  O3  <0> d          -2.323   1.694   0.023  0.00  0.00    -0.642 OA
ATOM     10  O5  <0> d          -1.103   3.550   0.027  0.00  0.00    -0.642 OA
ENDBRANCH   3   8
BRANCH   5  11
ATOM     11  C5  <0> d           3.563   0.822  -0.028  0.00  0.00     0.234 C 
ATOM     12  O2  <0> d           4.220  -0.201  -0.039  0.00  0.00    -0.642 OA
ATOM     13  O4  <0> d           4.180   2.020  -0.027  0.00  0.00    -0.642 OA
ENDBRANCH   5  11
TORSDOF 2
