REMARK  2 active torsions:
REMARK  status: ('A' for Active; 'I' for Inactive)
REMARK    1  A    between atoms: C1_1  and  C2_2 
REMARK    2  A    between atoms: C2_2  and  C3_3 
ROOT
ATOM      1  C3  <0> d           1.348   1.852  -0.001  0.00  0.00     0.048 C 
ATOM      2  H1  <0> d           1.726   1.950   1.017  0.00  0.00     0.084 H 
ATOM      3  C4  <0> d           2.157   0.787  -0.776  0.00  0.00    -0.032 C 
ATOM      4  C5  <0> d           1.335  -0.496  -0.520  0.00  0.00     0.018 C 
ATOM      5  C6  <0> d           0.002  -0.004   0.002  0.00  0.00     0.259 C 
ATOM      6  O1  <0> d          -0.909  -0.713   0.359  0.00  0.00    -0.265 OA
ATOM      7  O2  <0> d          -0.016   1.336   0.009  0.00  0.00    -0.316 OA
ATOM      8  H7  <0> d           3.163   0.691  -0.369  0.00  0.00     0.037 H 
ATOM      9  H8  <0> d           2.191   1.019  -1.841  0.00  0.00     0.037 H 
ATOM     10  H9  <0> d           1.827  -1.119   0.226  0.00  0.00     0.048 H 
ATOM     11  H10 <0> d           1.197  -1.052  -1.447  0.00  0.00     0.048 H 
ENDROOT
BRANCH   1  12
ATOM     12  C2  <0> d           1.405   3.198  -0.725  0.00  0.00    -0.044 C 
ATOM     13  H5  <0> d           2.444   3.513  -0.825  0.00  0.00     0.036 H 
ATOM     14  H6  <0> d           0.960   3.097  -1.715  0.00  0.00     0.036 H 
BRANCH  12  15
ATOM     15  C1  <0> d           0.630   4.243   0.079  0.00  0.00    -0.074 C 
ATOM     16  H2  <0> d          -0.409   3.928   0.179  0.00  0.00     0.027 H 
ATOM     17  H3  <0> d           1.075   4.344   1.069  0.00  0.00     0.027 H 
ATOM     18  H4  <0> d           0.671   5.202  -0.437  0.00  0.00     0.027 H 
ENDBRANCH  12  15
ENDBRANCH   1  12
TORSDOF 2
