REMARK  2 active torsions:
REMARK  status: ('A' for Active; 'I' for Inactive)
REMARK    1  A    between atoms: C1_1  and  O1_2 
REMARK    2  A    between atoms: O1_2  and  C2_3 
ROOT
ATOM      1  C2  <0> d          -0.017   1.398   0.010  0.00  0.00     0.095 A 
ATOM      2  C3  <0> d           1.204   2.088   0.093  0.00  0.00    -0.034 A 
ATOM      3  C4  <0> d           2.370   1.403   0.078  0.00  0.00    -0.017 A 
ATOM      4  N1  <0> d           2.393   0.050  -0.018  0.00  0.00    -0.332 N 
ATOM      5  H1  <0> d           3.354  -0.485  -0.030  0.00  0.00     0.168 HD
ATOM      6  C5  <0> d           1.254  -0.664  -0.101  0.00  0.00     0.268 A 
ATOM      7  O2  <0> d           1.300  -1.879  -0.186  0.00  0.00    -0.266 OA
ATOM      8  C6  <0> d           0.003  -0.001  -0.089  0.00  0.00     0.145 A 
ATOM      9  C7  <0> d          -1.218  -0.744  -0.176  0.00  0.00     0.108 C 
ATOM     10  N2  <0> d          -2.186  -1.333  -0.244  0.00  0.00    -0.191 NA
ATOM     11  H5  <0> d           1.211   3.165   0.170  0.00  0.00     0.089 H 
ATOM     12  H6  <0> d           3.302   1.945   0.142  0.00  0.00     0.111 H 
ENDROOT
BRANCH   1  13
ATOM     13  O1  <0> d          -1.190   2.070   0.019  0.00  0.00    -0.354 OA
BRANCH  13  14
ATOM     14  C1  <0> d          -1.530   2.764   1.221  0.00  0.00     0.010 C 
ATOM     15  H2  <0> d          -2.502   3.265   1.093  0.00  0.00     0.066 H 
ATOM     16  H3  <0> d          -0.758   3.515   1.442  0.00  0.00     0.066 H 
ATOM     17  H4  <0> d          -1.594   2.047   2.053  0.00  0.00     0.066 H 
ENDBRANCH  13  14
ENDBRANCH   1  13
TORSDOF 2
