REMARK  3 active torsions:
REMARK  status: ('A' for Active; 'I' for Inactive)
REMARK    1  A    between atoms: C1_1  and  C2_2 
REMARK    2  A    between atoms: C5_8  and  C6_10 
REMARK    3  A    between atoms: C6_10  and  O2_11 
ROOT
ATOM      1  C2  <0> d          -3.675  -0.090   0.038  0.00  0.00     0.038 A 
ATOM      2  C3  <0> d          -3.956  -1.423   0.033  0.00  0.00     0.006 A 
ATOM      3  C4  <0> d          -2.884  -2.338   0.018  0.00  0.00     0.248 A 
ATOM      4  O1  <0> d          -3.091  -3.541   0.013  0.00  0.00    -0.268 OA
ATOM      5  N1  <0> d          -1.623  -1.857   0.008  0.00  0.00    -0.310 N 
ATOM      6  H1  <0> d          -0.869  -2.468  -0.003  0.00  0.00     0.170 HD
ATOM      7  C5  <0> d          -1.412  -0.526   0.013  0.00  0.00     0.130 A 
ATOM      8  N2  <0> d          -2.405   0.323   0.032  0.00  0.00    -0.238 NA
ATOM      9  H5  <0> d          -4.978  -1.770   0.042  0.00  0.00     0.095 H 
ENDROOT
BRANCH   7  10
ATOM     10  C6  <0> d           0.002  -0.004   0.002  0.00  0.00     0.071 C 
ATOM     11  H6  <0> d           0.512  -0.356  -0.895  0.00  0.00     0.086 H 
ATOM     12  H7  <0> d           0.529  -0.365   0.885  0.00  0.00     0.086 H 
BRANCH  10  13
ATOM     13  O2  <0> d          -0.017   1.425   0.010  0.00  0.00    -0.393 OA
ATOM     14  H8  <0> d           0.861   1.830   0.004  0.00  0.00     0.209 HD
ENDBRANCH  10  13
ENDBRANCH   7  10
BRANCH   1  15
ATOM     15  C1  <0> d          -4.795   0.917   0.054  0.00  0.00    -0.035 C 
ATOM     16  H2  <0> d          -5.056   1.155   1.086  0.00  0.00     0.035 H 
ATOM     17  H3  <0> d          -4.476   1.825  -0.458  0.00  0.00     0.035 H 
ATOM     18  H4  <0> d          -5.666   0.501  -0.453  0.00  0.00     0.035 H 
ENDBRANCH   1  15
TORSDOF 3
