REMARK  3 active torsions:
REMARK  status: ('A' for Active; 'I' for Inactive)
REMARK    1  A    between atoms: C1_1  and  N1_2 
REMARK       I    between atoms: N1_2  and  C2_3 
REMARK    2  A    between atoms: C2_3  and  C3_5 
REMARK    3  A    between atoms: C3_5  and  N2_6 
ROOT
ATOM      1  N2  <0> d           1.335  -2.669   2.185  0.00  0.00     0.101 N 
ATOM      2  C4  <0> d           0.594  -2.342   3.412  0.00  0.00     0.133 C 
ATOM      3  C5  <0> d           1.396  -2.813   4.628  0.00  0.00     0.044 C 
ATOM      4  O2  <0> d           1.655  -4.215   4.508  0.00  0.00    -0.388 OA
ATOM      5  C6  <0> d           2.376  -4.568   3.325  0.00  0.00     0.044 C 
ATOM      6  C7  <0> d           1.584  -4.115   2.096  0.00  0.00     0.133 C 
ATOM      7  H7  <0> d           0.443  -1.264   3.470  0.00  0.00     0.083 H 
ATOM      8  H8  <0> d          -0.373  -2.845   3.397  0.00  0.00     0.083 H 
ATOM      9  H9  <0> d           2.341  -2.271   4.673  0.00  0.00     0.077 H 
ATOM     10  H10 <0> d           0.824  -2.625   5.536  0.00  0.00     0.077 H 
ATOM     11  H11 <0> d           3.349  -4.077   3.332  0.00  0.00     0.077 H 
ATOM     12  H12 <0> d           2.513  -5.649   3.292  0.00  0.00     0.077 H 
ATOM     13  H13 <0> d           0.632  -4.646   2.060  0.00  0.00     0.083 H 
ATOM     14  H14 <0> d           2.156  -4.331   1.194  0.00  0.00     0.083 H 
ENDROOT
BRANCH   1  15
ATOM     15  C3  <0> d           0.625  -2.182   0.995  0.00  0.00     0.185 C 
ATOM     16  H5  <0> d          -0.398  -2.559   1.003  0.00  0.00     0.094 H 
ATOM     17  H6  <0> d           1.135  -2.534   0.099  0.00  0.00     0.094 H 
BRANCH  15  18
ATOM     18  C2  <0> d           0.604  -0.675   1.004  0.00  0.00     0.245 C 
ATOM     19  N1  <0> d           0.002  -0.004   0.002  0.00  0.00    -0.364 N 
ATOM     20  H4  <0> d          -0.418  -0.491  -0.724  0.00  0.00     0.161 HD
ATOM     21  O1  <0> d           1.130  -0.067   1.911  0.00  0.00    -0.272 OA
BRANCH  19  22
ATOM     22  C1  <0> d          -0.018   1.461   0.010  0.00  0.00    -0.018 C 
ATOM     23  H1  <0> d           1.005   1.838   0.002  0.00  0.00     0.056 H 
ATOM     24  H2  <0> d          -0.545   1.822  -0.873  0.00  0.00     0.056 H 
ATOM     25  H3  <0> d          -0.528   1.812   0.907  0.00  0.00     0.056 H 
ENDBRANCH  19  22
ENDBRANCH  15  18
ENDBRANCH   1  15
TORSDOF 3
