REMARK  7 active torsions:
REMARK  status: ('A' for Active; 'I' for Inactive)
REMARK    1  A    between atoms: C1_1  and  O1_2 
REMARK    2  A    between atoms: O1_2  and  C2_3 
REMARK    3  A    between atoms: C3_4  and  C4_5 
REMARK    4  A    between atoms: C4_5  and  O2_6 
REMARK    5  A    between atoms: C4_5  and  O3_8 
REMARK    6  A    between atoms: O2_6  and  C5_7 
REMARK    7  A    between atoms: O3_8  and  C6_9 
ROOT
ATOM      1  C4  <0> d           1.548   2.114   0.514  0.00  0.00     0.149 C 
ATOM      2  H6  <0> d           2.197   1.513   1.151  0.00  0.00     0.136 H 
ENDROOT
BRANCH   1   3
ATOM      3  C3  <0> d           1.698   3.570   0.875  0.00  0.00    -0.030 C 
ATOM      4  C2  <0> d           2.525   3.928   1.836  0.00  0.00     0.013 C 
ATOM      5  H4  <0> d           3.095   3.179   2.365  0.00  0.00     0.122 H 
ATOM      6  H5  <0> d           1.129   4.319   0.345  0.00  0.00     0.087 H 
BRANCH   4   7
ATOM      7  O1  <0> d           2.660   5.239   2.161  0.00  0.00    -0.368 OA
BRANCH   7   8
ATOM      8  C1  <0> d           3.573   5.555   3.213  0.00  0.00     0.009 C 
ATOM      9  H1  <0> d           3.258   5.057   4.130  0.00  0.00     0.066 H 
ATOM     10  H2  <0> d           4.573   5.216   2.941  0.00  0.00     0.066 H 
ATOM     11  H3  <0> d           3.586   6.633   3.371  0.00  0.00     0.066 H 
ENDBRANCH   7   8
ENDBRANCH   4   7
ENDBRANCH   1   3
BRANCH   1  12
ATOM     12  O2  <0> d           0.190   1.714   0.705  0.00  0.00    -0.363 OA
BRANCH  12  13
ATOM     13  C5  <0> d           0.004   0.298   0.763  0.00  0.00     0.007 C 
ATOM     14  H7  <0> d           0.766  -0.142   1.407  0.00  0.00     0.066 H 
ATOM     15  H8  <0> d          -0.984   0.078   1.167  0.00  0.00     0.066 H 
ATOM     16  H9  <0> d           0.089  -0.121  -0.239  0.00  0.00     0.066 H 
ENDBRANCH  12  13
ENDBRANCH   1  12
BRANCH   1  17
ATOM     17  O3  <0> d           1.914   1.923  -0.854  0.00  0.00    -0.363 OA
BRANCH  17  18
ATOM     18  C6  <0> d           2.182   0.562  -1.199  0.00  0.00     0.007 C 
ATOM     19  H10 <0> d           2.809   0.110  -0.431  0.00  0.00     0.066 H 
ATOM     20  H11 <0> d           1.243   0.014  -1.272  0.00  0.00     0.066 H 
ATOM     21  H12 <0> d           2.700   0.526  -2.158  0.00  0.00     0.066 H 
ENDBRANCH  17  18
ENDBRANCH   1  17
TORSDOF 7
