REMARK  6 active torsions:
REMARK  status: ('A' for Active; 'I' for Inactive)
REMARK    1  A    between atoms: C1_1  and  C2_2 
REMARK    2  A    between atoms: C2_2  and  C3_4 
REMARK    3  A    between atoms: C2_2  and  O3_10 
REMARK    4  A    between atoms: C3_4  and  O2_6 
REMARK    5  A    between atoms: O2_6  and  C4_7 
REMARK    6  A    between atoms: C4_7  and  C5_8 
ROOT
ATOM      1  C3  <0> d          -0.014   1.204   0.009  0.00  0.00     0.287 C 
ATOM      2  O1  <0> d           0.002  -0.004   0.002  0.00  0.00    -0.262 OA
ENDROOT
BRANCH   1   3
ATOM      3  C2  <0> d          -1.329   1.940   0.019  0.00  0.00     0.115 C 
ATOM      4  H1  <0> d          -1.400   2.570  -0.867  0.00  0.00     0.098 H 
BRANCH   3   5
ATOM      5  C1  <0> d          -1.417   2.811   1.273  0.00  0.00    -0.044 C 
ATOM      6  H2  <0> d          -0.598   3.531   1.273  0.00  0.00     0.031 H 
ATOM      7  H3  <0> d          -2.368   3.344   1.281  0.00  0.00     0.031 H 
ATOM      8  H4  <0> d          -1.346   2.181   2.160  0.00  0.00     0.031 H 
ENDBRANCH   3   5
BRANCH   3   9
ATOM      9  O3  <0> d          -2.403   0.997   0.019  0.00  0.00    -0.386 OA
ATOM     10  H10 <0> d          -3.281   1.400   0.025  0.00  0.00     0.210 HD
ENDBRANCH   3   9
ENDBRANCH   1   3
BRANCH   1  11
ATOM     11  O2  <0> d           1.139   1.891   0.001  0.00  0.00    -0.316 OA
BRANCH  11  12
ATOM     12  C4  <0> d           2.367   1.117  -0.015  0.00  0.00     0.043 C 
ATOM     13  H5  <0> d           2.409   0.484   0.872  0.00  0.00     0.081 H 
ATOM     14  H6  <0> d           2.392   0.493  -0.908  0.00  0.00     0.081 H 
BRANCH  12  15
ATOM     15  C5  <0> d           3.550   2.051  -0.021  0.00  0.00    -0.089 C 
ATOM     16  C6  <0> d           4.569   1.823   0.770  0.00  0.00    -0.123 C 
ATOM     17  H8  <0> d           4.561   0.966   1.427  0.00  0.00     0.066 H 
ATOM     18  H9  <0> d           5.416   2.493   0.766  0.00  0.00     0.066 H 
ATOM     19  H7  <0> d           3.557   2.908  -0.678  0.00  0.00     0.078 H 
ENDBRANCH  12  15
ENDBRANCH  11  12
ENDBRANCH   1  11
TORSDOF 6
