REMARK  4 active torsions:
REMARK  status: ('A' for Active; 'I' for Inactive)
REMARK    1  A    between atoms: C1_1  and  C2_2 
REMARK    2  A    between atoms: C2_2  and  O2_12 
REMARK    3  A    between atoms: C5_7  and  C6_8 
REMARK    4  A    between atoms: C5_7  and  C7_9 
ROOT
ATOM      1  C2  <0> d           0.002  -0.004   0.002  0.00  0.00     0.102 C 
ATOM      2  C3  <0> d          -1.433  -0.566   0.145  0.00  0.00     0.083 C 
ATOM      3  H1  <0> d          -2.099   0.175   0.588  0.00  0.00     0.070 H 
ATOM      4  C4  <0> d          -1.219  -1.763   1.107  0.00  0.00     0.038 C 
ATOM      5  O1  <0> d          -0.210  -1.284   2.021  0.00  0.00    -0.376 OA
ATOM      6  C5  <0> d           0.743  -0.540   1.242  0.00  0.00     0.085 C 
ATOM      7  C8  <0> d          -1.951  -1.022  -1.155  0.00  0.00     0.069 C 
ATOM      8  N1  <0> d          -2.350  -1.375  -2.159  0.00  0.00    -0.197 NA
ATOM      9  H5  <0> d          -2.140  -1.996   1.640  0.00  0.00     0.076 H 
ATOM     10  H6  <0> d          -0.859  -2.635   0.560  0.00  0.00     0.076 H 
ENDROOT
BRANCH   1  11
ATOM     11  C1  <0> d          -0.019   1.526   0.010  0.00  0.00    -0.044 C 
ATOM     12  H2  <0> d           1.004   1.903   0.003  0.00  0.00     0.031 H 
ATOM     13  H3  <0> d          -0.546   1.887  -0.873  0.00  0.00     0.031 H 
ATOM     14  H4  <0> d          -0.529   1.877   0.907  0.00  0.00     0.031 H 
ENDBRANCH   1  11
BRANCH   1  15
ATOM     15  O2  <0> d           0.615  -0.488  -1.195  0.00  0.00    -0.386 OA
ATOM     16  H13 <0> d           0.172  -0.204  -2.006  0.00  0.00     0.210 HD
ENDBRANCH   1  15
BRANCH   6  17
ATOM     17  C6  <0> d           1.290   0.627   2.066  0.00  0.00    -0.045 C 
ATOM     18  H7  <0> d           0.466   1.264   2.387  0.00  0.00     0.031 H 
ATOM     19  H8  <0> d           1.813   0.240   2.941  0.00  0.00     0.031 H 
ATOM     20  H9  <0> d           1.983   1.208   1.457  0.00  0.00     0.031 H 
ENDBRANCH   6  17
BRANCH   6  21
ATOM     21  C7  <0> d           1.889  -1.457   0.808  0.00  0.00    -0.045 C 
ATOM     22  H10 <0> d           2.587  -0.896   0.186  0.00  0.00     0.031 H 
ATOM     23  H11 <0> d           2.408  -1.832   1.690  0.00  0.00     0.031 H 
ATOM     24  H12 <0> d           1.487  -2.295   0.238  0.00  0.00     0.031 H 
ENDBRANCH   6  21
TORSDOF 4
