REMARK  2 active torsions:
REMARK  status: ('A' for Active; 'I' for Inactive)
REMARK    1  A    between atoms: C1_1  and  C2_2 
REMARK    2  A    between atoms: C6_7  and  C7_9 
ROOT
ATOM      1  C2  <0> d          -1.183   1.744   0.017  0.00  0.00     0.053 A 
ATOM      2  C3  <0> d          -0.013   1.076   0.008  0.00  0.00    -0.006 A 
ATOM      3  C4  <0> d           1.200   1.813   0.000  0.00  0.00     0.176 A 
ATOM      4  O1  <0> d           2.280   1.244  -0.012  0.00  0.00    -0.288 OA
ATOM      5  C5  <0> d           1.122   3.230   0.008  0.00  0.00    -0.006 A 
ATOM      6  C6  <0> d          -0.091   3.817   0.022  0.00  0.00     0.053 A 
ATOM      7  O2  <0> d          -1.210   3.083   0.029  0.00  0.00    -0.320 OA
ATOM      8  H4  <0> d           0.002  -0.004   0.002  0.00  0.00     0.093 H 
ATOM      9  H5  <0> d           2.021   3.829   0.003  0.00  0.00     0.093 H 
ENDROOT
BRANCH   1  10
ATOM     10  C1  <0> d          -2.478   0.974   0.019  0.00  0.00    -0.031 C 
ATOM     11  H1  <0> d          -2.785   0.784   1.048  0.00  0.00     0.036 H 
ATOM     12  H2  <0> d          -3.248   1.556  -0.488  0.00  0.00     0.036 H 
ATOM     13  H3  <0> d          -2.338   0.026  -0.500  0.00  0.00     0.036 H 
ENDBRANCH   1  10
BRANCH   6  14
ATOM     14  C7  <0> d          -0.189   5.320   0.030  0.00  0.00    -0.031 C 
ATOM     15  H6  <0> d          -0.222   5.688  -0.995  0.00  0.00     0.036 H 
ATOM     16  H7  <0> d          -1.096   5.623   0.554  0.00  0.00     0.036 H 
ATOM     17  H8  <0> d           0.680   5.738   0.538  0.00  0.00     0.036 H 
ENDBRANCH   6  14
TORSDOF 2
