REMARK  3 active torsions:
REMARK  status: ('A' for Active; 'I' for Inactive)
REMARK    1  A    between atoms: C1_1  and  C2_2 
REMARK    2  A    between atoms: C5_6  and  N3_8 
REMARK    3  A    between atoms: N3_8  and  C6_9 
ROOT
ATOM      1  C2  <0> d           0.002  -0.004   0.002  0.00  0.00     0.055 A 
ATOM      2  C3  <0> d          -1.171  -0.701   0.004  0.00  0.00     0.007 A 
ATOM      3  C4  <0> d          -1.126  -2.107  -0.004  0.00  0.00     0.261 A 
ATOM      4  N1  <0> d           0.078  -2.717  -0.013  0.00  0.00    -0.154 N 
ATOM      5  C5  <0> d           1.215  -1.970  -0.015  0.00  0.00     0.703 A 
ATOM      6  N2  <0> d           1.164  -0.653  -0.013  0.00  0.00    -0.070 NA
ATOM      7  O1  <0> d          -2.156  -2.762  -0.002  0.00  0.00    -0.268 OA
ATOM      8  H4  <0> d          -2.118  -0.182   0.012  0.00  0.00     0.095 H 
ATOM      9  H9  <0> d           0.132  -3.686  -0.018  0.00  0.00     0.187 HD
ENDROOT
BRANCH   5  10
ATOM     10  N3  <0> d           2.432  -2.597  -0.023  0.00  0.00    -0.229 N 
ATOM     11  H5  <0> d           2.478  -3.566  -0.028  0.00  0.00     0.177 HD
BRANCH  10  12
ATOM     12  C6  <0> d           3.664  -1.804  -0.025  0.00  0.00    -0.005 C 
ATOM     13  H6  <0> d           3.687  -1.171  -0.912  0.00  0.00     0.057 H 
ATOM     14  H7  <0> d           3.695  -1.180   0.868  0.00  0.00     0.057 H 
ATOM     15  H8  <0> d           4.525  -2.471  -0.032  0.00  0.00     0.057 H 
ENDBRANCH  10  12
ENDBRANCH   5  10
BRANCH   1  16
ATOM     16  C1  <0> d          -0.018   1.503   0.010  0.00  0.00    -0.035 C 
ATOM     17  H1  <0> d           1.004   1.880   0.003  0.00  0.00     0.035 H 
ATOM     18  H2  <0> d          -0.545   1.864  -0.873  0.00  0.00     0.035 H 
ATOM     19  H3  <0> d          -0.529   1.854   0.907  0.00  0.00     0.035 H 
ENDBRANCH   1  16
TORSDOF 3
