REMARK  1 active torsions:
REMARK  status: ('A' for Active; 'I' for Inactive)
REMARK    1  A    between atoms: C7_7  and  N1_12 
ROOT
ATOM      1  C1  <0> d          -0.017   1.379   0.010  0.00  0.00    -0.082 A 
ATOM      2  C2  <0> d           1.170   2.091   0.002  0.00  0.00    -0.082 A 
ATOM      3  C3  <0> d           2.376   1.426  -0.013  0.00  0.00    -0.069 A 
ATOM      4  C4  <0> d           2.405   0.023  -0.021  0.00  0.00     0.018 A 
ATOM      5  C5  <0> d           1.204  -0.686  -0.013  0.00  0.00    -0.011 A 
ATOM      6  C6  <0> d           0.002  -0.004   0.002  0.00  0.00    -0.074 A 
ATOM      7  C7  <0> d           1.491  -2.168  -0.024  0.00  0.00     0.163 A 
ATOM      8  H1  <0> d           1.063  -2.626  -0.916  0.00  0.00     0.096 H 
ATOM      9  C8  <0> d           3.019  -2.312  -0.039  0.00  0.00     0.028 A 
ATOM     10  C9  <0> d           3.553  -0.900  -0.037  0.00  0.00     0.162 A 
ATOM     11  O1  <0> d           4.722  -0.581  -0.046  0.00  0.00    -0.292 OA
ATOM     12  H2  <0> d          -0.960   1.904   0.026  0.00  0.00     0.083 H 
ATOM     13  H3  <0> d           1.150   3.171   0.008  0.00  0.00     0.083 H 
ATOM     14  H4  <0> d           3.300   1.986  -0.019  0.00  0.00     0.085 H 
ATOM     15  H5  <0> d          -0.927  -0.554   0.008  0.00  0.00     0.084 H 
ATOM     16  H6  <0> d           3.357  -2.845   0.849  0.00  0.00     0.048 H 
ATOM     17  H7  <0> d           3.340  -2.835  -0.940  0.00  0.00     0.048 H 
ENDROOT
BRANCH   7  18
ATOM     18  N1  <0> d           0.936  -2.798   1.182  0.00  0.00     0.087 N 
ATOM     19  H8  <0> d           1.120  -3.790   1.188  0.00  0.00     0.313 HD
ATOM     20  H9  <0> d           1.293  -2.358   2.017  0.00  0.00     0.313 HD
ENDBRANCH   7  18
TORSDOF 1
