REMARK  3 active torsions:
REMARK  status: ('A' for Active; 'I' for Inactive)
REMARK    1  A    between atoms: C1_1  and  C2_2 
REMARK    2  A    between atoms: C2_2  and  N1_3 
REMARK    3  A    between atoms: C4_5  and  O1_8 
ROOT
ATOM      1  N1  <0> d           1.073   1.893   0.002  0.00  0.00    -0.279 N 
ATOM      2  C3  <0> d          -0.013   1.076   0.008  0.00  0.00     0.032 A 
ATOM      3  C4  <0> d          -1.117   1.862   0.017  0.00  0.00     0.101 A 
ATOM      4  C5  <0> d          -0.695   3.198   0.025  0.00  0.00     0.055 A 
ATOM      5  N2  <0> d           0.613   3.217   0.013  0.00  0.00    -0.182 NA
ATOM      6  H6  <0> d           0.002  -0.004   0.002  0.00  0.00     0.118 H 
ATOM      7  H7  <0> d          -1.340   4.064   0.034  0.00  0.00     0.121 H 
ENDROOT
BRANCH   1   8
ATOM      8  C2  <0> d           2.474   1.467  -0.013  0.00  0.00     0.013 C 
ATOM      9  H4  <0> d           2.957   1.772   0.915  0.00  0.00     0.066 H 
ATOM     10  H5  <0> d           2.523   0.382  -0.109  0.00  0.00     0.066 H 
BRANCH   8  11
ATOM     11  C1  <0> d           3.192   2.116  -1.198  0.00  0.00    -0.059 C 
ATOM     12  H1  <0> d           2.709   1.811  -2.127  0.00  0.00     0.029 H 
ATOM     13  H2  <0> d           3.143   3.200  -1.103  0.00  0.00     0.029 H 
ATOM     14  H3  <0> d           4.235   1.798  -1.210  0.00  0.00     0.029 H 
ENDBRANCH   8  11
ENDBRANCH   1   8
BRANCH   3  15
ATOM     15  O1  <0> d          -2.409   1.429   0.020  0.00  0.00    -0.358 OA
ATOM     16  H8  <0> d          -2.778   1.300   0.904  0.00  0.00     0.217 HD
ENDBRANCH   3  15
TORSDOF 3
