REMARK  4 active torsions:
REMARK  status: ('A' for Active; 'I' for Inactive)
REMARK    1  A    between atoms: C2_2  and  C6_11 
REMARK    2  A    between atoms: C4_6  and  C5_9 
REMARK    3  A    between atoms: C5_9  and  O3_10 
REMARK    4  A    between atoms: C6_11  and  O4_12 
ROOT
ATOM      1  C1  <0> d          -2.038  -0.421  -1.397  0.00  0.00     0.046 C 
ATOM      2  C2  <0> d          -1.259  -0.815  -2.655  0.00  0.00     0.079 C 
ATOM      3  H1  <0> d          -1.735  -0.419  -3.564  0.00  0.00     0.089 H 
ATOM      4  O1  <0> d           0.045  -0.228  -2.603  0.00  0.00    -0.379 OA
ATOM      5  C3  <0> d           0.026   1.199  -2.490  0.00  0.00     0.046 C 
ATOM      6  C4  <0> d          -0.753   1.593  -1.232  0.00  0.00     0.079 C 
ATOM      7  H2  <0> d          -0.910   2.680  -1.180  0.00  0.00     0.089 H 
ATOM      8  O2  <0> d          -2.056   1.005  -1.284  0.00  0.00    -0.379 OA
ATOM      9  H3  <0> d          -1.551  -0.853  -0.510  0.00  0.00     0.078 H 
ATOM     10  H4  <0> d          -3.069  -0.796  -1.468  0.00  0.00     0.078 H 
ATOM     11  H5  <0> d           1.058   1.574  -2.418  0.00  0.00     0.078 H 
ATOM     12  H6  <0> d          -0.461   1.630  -3.376  0.00  0.00     0.078 H 
ENDROOT
BRANCH   2  13
ATOM     13  C6  <0> d          -1.131  -2.338  -2.721  0.00  0.00     0.043 C 
ATOM     14  H10 <0> d          -0.519  -2.692  -1.878  0.00  0.00     0.078 H 
ATOM     15  H11 <0> d          -2.131  -2.793  -2.665  0.00  0.00     0.078 H 
BRANCH  13  16
ATOM     16  O4  <0> d          -0.507  -2.711  -3.951  0.00  0.00    -0.398 OA
ATOM     17  H12 <0> d          -0.329  -3.772  -4.179  0.00  0.00     0.209 HD
ENDBRANCH  13  16
ENDBRANCH   2  13
BRANCH   6  18
ATOM     18  C5  <0> d          -0.013   1.086   0.008  0.00  0.00     0.043 C 
ATOM     19  H7  <0> d           0.002  -0.014   0.002  0.00  0.00     0.078 H 
ATOM     20  H8  <0> d           1.019   1.466   0.000  0.00  0.00     0.078 H 
BRANCH  18  21
ATOM     21  O3  <0> d          -0.682   1.547   1.184  0.00  0.00    -0.398 OA
ATOM     22  H9  <0> d          -0.293   1.281   2.178  0.00  0.00     0.209 HD
ENDBRANCH  18  21
ENDBRANCH   6  18
TORSDOF 4
