REMARK  2 active torsions:
REMARK  status: ('A' for Active; 'I' for Inactive)
REMARK    1  A    between atoms: C1_1  and  C2_2 
REMARK    2  A    between atoms: C8_12  and  C9_14 
ROOT
ATOM      1  C2  <0> d          -0.729   1.579   1.267  0.00  0.00    -0.053 C 
ATOM      2  H1  <0> d          -0.788   2.668   1.267  0.00  0.00     0.040 H 
ATOM      3  C3  <0> d          -2.142   0.960   1.361  0.00  0.00    -0.058 C 
ATOM      4  C4  <0> d          -2.126   0.139   2.686  0.00  0.00    -0.049 C 
ATOM      5  H2  <0> d          -2.887  -0.634   2.789  0.00  0.00     0.040 H 
ATOM      6  C5  <0> d          -0.634  -0.348   2.707  0.00  0.00    -0.056 C 
ATOM      7  C6  <0> d           0.008   1.074   2.545  0.00  0.00    -0.035 C 
ATOM      8  H3  <0> d           1.097   1.110   2.512  0.00  0.00     0.042 H 
ATOM      9  C7  <0> d          -0.665   1.852   3.717  0.00  0.00     0.037 C 
ATOM     10  H4  <0> d          -0.719   2.916   3.485  0.00  0.00     0.064 H 
ATOM     11  C8  <0> d          -2.092   1.217   3.812  0.00  0.00    -0.038 C 
ATOM     12  H5  <0> d          -2.853   1.977   3.633  0.00  0.00     0.042 H 
ATOM     13  C10 <0> d           0.078   1.636   4.969  0.00  0.00     0.064 C 
ATOM     14  N1  <0> d           0.650   1.470   5.936  0.00  0.00    -0.197 NA
ATOM     15  H9  <0> d          -2.898   1.744   1.408  0.00  0.00     0.034 H 
ATOM     16  H10 <0> d          -2.327   0.304   0.510  0.00  0.00     0.034 H 
ATOM     17  H11 <0> d          -0.405  -0.999   1.863  0.00  0.00     0.034 H 
ATOM     18  H12 <0> d          -0.368  -0.811   3.658  0.00  0.00     0.034 H 
ENDROOT
BRANCH  11  19
ATOM     19  C9  <0> d          -2.302   0.566   5.181  0.00  0.00    -0.071 C 
ATOM     20  H13 <0> d          -1.511  -0.161   5.362  0.00  0.00     0.028 H 
ATOM     21  H14 <0> d          -2.276   1.332   5.956  0.00  0.00     0.028 H 
ATOM     22  H15 <0> d          -3.269   0.063   5.199  0.00  0.00     0.028 H 
ENDBRANCH  11  19
BRANCH   1  23
ATOM     23  C1  <0> d          -0.013   1.086   0.008  0.00  0.00    -0.072 C 
ATOM     24  H6  <0> d           0.002  -0.004   0.002  0.00  0.00     0.028 H 
ATOM     25  H7  <0> d           1.010   1.463   0.000  0.00  0.00     0.028 H 
ATOM     26  H8  <0> d          -0.540   1.447  -0.875  0.00  0.00     0.028 H 
ENDBRANCH   1  23
TORSDOF 2
