REMARK  1 active torsions:
REMARK  status: ('A' for Active; 'I' for Inactive)
REMARK    1  A    between atoms: C1_1  and  N1_2 
ROOT
ATOM      1  N1  <0> d           2.396   0.049  -0.021  0.00  0.00    -0.328 N 
ATOM      2  C2  <0> d           2.375   1.404  -0.013  0.00  0.00    -0.016 A 
ATOM      3  C3  <0> d           1.208   2.092   0.002  0.00  0.00    -0.046 A 
ATOM      4  C4  <0> d          -0.017   1.399   0.010  0.00  0.00     0.072 A 
ATOM      5  C5  <0> d           0.002  -0.004   0.002  0.00  0.00     0.133 A 
ATOM      6  C6  <0> d           1.257  -0.668  -0.013  0.00  0.00     0.269 A 
ATOM      7  O1  <0> d           1.302  -1.887  -0.021  0.00  0.00    -0.266 OA
ATOM      8  C7  <0> d          -1.220  -0.751   0.009  0.00  0.00     0.106 C 
ATOM      9  N2  <0> d          -2.189  -1.343   0.015  0.00  0.00    -0.191 NA
ATOM     10  C8  <0> d          -1.259   2.112   0.019  0.00  0.00     0.101 C 
ATOM     11  N3  <0> d          -2.244   2.678   0.027  0.00  0.00    -0.191 NA
ATOM     12  H4  <0> d           3.309   1.947  -0.019  0.00  0.00     0.111 H 
ATOM     13  H5  <0> d           1.218   3.172   0.007  0.00  0.00     0.088 H 
ENDROOT
BRANCH   1  14
ATOM     14  C1  <0> d           3.683  -0.650  -0.037  0.00  0.00    -0.011 C 
ATOM     15  H1  <0> d           3.993  -0.817  -1.069  0.00  0.00     0.057 H 
ATOM     16  H2  <0> d           4.432  -0.043   0.473  0.00  0.00     0.057 H 
ATOM     17  H3  <0> d           3.584  -1.608   0.472  0.00  0.00     0.057 H 
ENDBRANCH   1  14
TORSDOF 1
