REMARK  1 active torsions:
REMARK  status: ('A' for Active; 'I' for Inactive)
REMARK    1  A    between atoms: C2_2  and  O1_10 
ROOT
ATOM      1  C1  <0> d          -0.013   1.076   0.008  0.00  0.00    -0.011 A 
ATOM      2  C2  <0> d           1.179   1.786   0.000  0.00  0.00     0.071 A 
ATOM      3  C3  <0> d           1.159   3.172   0.008  0.00  0.00    -0.011 A 
ATOM      4  C4  <0> d          -0.049   3.847   0.023  0.00  0.00     0.160 A 
ATOM      5  C5  <0> d          -1.239   3.137   0.031  0.00  0.00     0.193 A 
ATOM      6  C6  <0> d          -1.220   1.752   0.017  0.00  0.00     0.160 A 
ATOM      7  F1  <0> d          -2.381   1.060   0.019  0.00  0.00    -0.203 F 
ATOM      8  F2  <0> d          -2.418   3.796   0.046  0.00  0.00    -0.200 F 
ATOM      9  F3  <0> d          -0.068   5.198   0.030  0.00  0.00    -0.203 F 
ATOM     10  H1  <0> d           0.002  -0.004   0.002  0.00  0.00     0.092 H 
ATOM     11  H2  <0> d           2.087   3.726   0.002  0.00  0.00     0.092 H 
ENDROOT
BRANCH   2  12
ATOM     12  O1  <0> d           2.365   1.122  -0.014  0.00  0.00    -0.361 OA
ATOM     13  H3  <0> d           2.700   0.935  -0.902  0.00  0.00     0.217 HD
ENDBRANCH   2  12
TORSDOF 1
