REMARK  4 active torsions:
REMARK  status: ('A' for Active; 'I' for Inactive)
REMARK    1  A    between atoms: C1_1  and  O1_2 
REMARK    2  A    between atoms: O1_2  and  C2_3 
REMARK    3  A    between atoms: C5_8  and  O4_9 
REMARK    4  A    between atoms: O4_9  and  C6_10 
ROOT
ATOM      1  C2  <0> d          -1.056   2.256   0.018  0.00  0.00     0.160 A 
ATOM      2  C3  <0> d          -0.014   1.212   0.009  0.00  0.00     0.260 A 
ATOM      3  O2  <0> d           0.002  -0.004   0.002  0.00  0.00    -0.281 OA
ATOM      4  C4  <0> d           1.008   2.295   0.005  0.00  0.00     0.260 A 
ATOM      5  O3  <0> d           2.222   2.348  -0.007  0.00  0.00    -0.281 OA
ATOM      6  C5  <0> d          -0.095   3.274   0.021  0.00  0.00     0.160 A 
ENDROOT
BRANCH   1   7
ATOM      7  O1  <0> d          -2.406   2.238   0.022  0.00  0.00    -0.350 OA
BRANCH   7   8
ATOM      8  C1  <0> d          -3.037   0.956   0.018  0.00  0.00     0.011 C 
ATOM      9  H1  <0> d          -4.120   1.084   0.022  0.00  0.00     0.067 H 
ATOM     10  H2  <0> d          -2.740   0.408  -0.876  0.00  0.00     0.067 H 
ATOM     11  H3  <0> d          -2.734   0.399   0.904  0.00  0.00     0.067 H 
ENDBRANCH   7   8
ENDBRANCH   1   7
BRANCH   6  12
ATOM     12  O4  <0> d          -0.155   4.623   0.028  0.00  0.00    -0.350 OA
BRANCH  12  13
ATOM     13  C6  <0> d           1.089   5.327   0.020  0.00  0.00     0.011 C 
ATOM     14  H4  <0> d           1.666   5.054   0.903  0.00  0.00     0.067 H 
ATOM     15  H5  <0> d           1.649   5.064  -0.876  0.00  0.00     0.067 H 
ATOM     16  H6  <0> d           0.898   6.401   0.028  0.00  0.00     0.067 H 
ENDBRANCH  12  13
ENDBRANCH   6  12
TORSDOF 4
