REMARK  3 active torsions:
REMARK  status: ('A' for Active; 'I' for Inactive)
REMARK    1  A    between atoms: C1_1  and  C2_2 
REMARK    2  A    between atoms: C6_6  and  C7_8 
REMARK    3  A    between atoms: C7_8  and  O1_9 
ROOT
ATOM      1  C2  <0> d          -0.742   1.585  -1.213  0.00  0.00     0.042 A 
ATOM      2  C3  <0> d          -2.111   1.795  -1.156  0.00  0.00     0.129 A 
ATOM      3  C4  <0> d          -2.772   2.256  -2.291  0.00  0.00    -0.044 A 
ATOM      4  C5  <0> d          -2.028   2.489  -3.437  0.00  0.00    -0.056 A 
ATOM      5  C6  <0> d          -0.666   2.256  -3.416  0.00  0.00     0.033 A 
ATOM      6  N1  <0> d          -0.070   1.823  -2.322  0.00  0.00    -0.359 N 
ATOM      7  O2  <0> d          -2.799   1.553  -0.009  0.00  0.00    -0.190 OA
ATOM      8  H4  <0> d          -3.838   2.429  -2.279  0.00  0.00     0.088 H 
ATOM      9  H5  <0> d          -2.507   2.847  -4.336  0.00  0.00     0.086 H 
ATOM     10  H9  <0> d           0.888   1.672  -2.335  0.00  0.00     0.165 HD
ENDROOT
BRANCH   5  11
ATOM     11  C7  <0> d           0.150   2.505  -4.658  0.00  0.00     0.054 C 
ATOM     12  H6  <0> d           0.911   3.257  -4.448  0.00  0.00     0.083 H 
ATOM     13  H7  <0> d           0.632   1.578  -4.968  0.00  0.00     0.083 H 
BRANCH  11  14
ATOM     14  O1  <0> d          -0.705   2.971  -5.704  0.00  0.00    -0.395 OA
ATOM     15  H8  <0> d          -0.246   3.152  -6.535  0.00  0.00     0.209 HD
ENDBRANCH  11  14
ENDBRANCH   5  11
BRANCH   1  16
ATOM     16  C1  <0> d          -0.013   1.086   0.008  0.00  0.00    -0.035 C 
ATOM     17  H1  <0> d           0.002  -0.004   0.002  0.00  0.00     0.035 H 
ATOM     18  H2  <0> d           1.010   1.463   0.000  0.00  0.00     0.035 H 
ATOM     19  H3  <0> d          -0.523   1.437   0.905  0.00  0.00     0.035 H 
ENDBRANCH   1  16
TORSDOF 3
