REMARK  2 active torsions:
REMARK  status: ('A' for Active; 'I' for Inactive)
REMARK    1  A    between atoms: C1_1  and  O1_2 
REMARK    2  A    between atoms: O1_2  and  C2_3 
ROOT
ATOM      1  C2  <0> d           1.303   1.797  -0.001  0.00  0.00     0.054 C 
ATOM      2  H1  <0> d           1.722   1.772  -1.006  0.00  0.00     0.089 H 
ATOM      3  C3  <0> d           1.109   3.252   0.432  0.00  0.00    -0.037 C 
ATOM      4  C4  <0> d          -0.047   3.850  -0.381  0.00  0.00    -0.060 C 
ATOM      5  C5  <0> d          -1.344   3.157   0.041  0.00  0.00    -0.050 C 
ATOM      6  C6  <0> d          -1.164   1.667   0.017  0.00  0.00    -0.104 C 
ATOM      7  C7  <0> d          -0.013   1.076   0.008  0.00  0.00    -0.079 C 
ATOM      8  H5  <0> d           0.868   3.290   1.494  0.00  0.00     0.037 H 
ATOM      9  H6  <0> d           2.023   3.816   0.243  0.00  0.00     0.037 H 
ATOM     10  H7  <0> d          -0.121   4.919  -0.181  0.00  0.00     0.033 H 
ATOM     11  H8  <0> d           0.130   3.687  -1.444  0.00  0.00     0.033 H 
ATOM     12  H9  <0> d          -1.613   3.475   1.048  0.00  0.00     0.038 H 
ATOM     13  H10 <0> d          -2.141   3.431  -0.649  0.00  0.00     0.038 H 
ATOM     14  H11 <0> d          -2.050   1.050   0.010  0.00  0.00     0.076 H 
ATOM     15  H12 <0> d           0.002  -0.004   0.002  0.00  0.00     0.080 H 
ENDROOT
BRANCH   1  16
ATOM     16  O1  <0> d           2.204   1.151   0.901  0.00  0.00    -0.387 OA
BRANCH  16  17
ATOM     17  C1  <0> d           2.986   0.118   0.300  0.00  0.00     0.005 C 
ATOM     18  H2  <0> d           2.326  -0.651  -0.101  0.00  0.00     0.066 H 
ATOM     19  H3  <0> d           3.586   0.539  -0.506  0.00  0.00     0.066 H 
ATOM     20  H4  <0> d           3.644  -0.323   1.050  0.00  0.00     0.066 H 
ENDBRANCH  16  17
ENDBRANCH   1  16
TORSDOF 2
