REMARK  1 active torsions:
REMARK  status: ('A' for Active; 'I' for Inactive)
REMARK    1  A    between atoms: C2_2  and  O1_3 
ROOT
ATOM      1  C1  <0> d          -0.017   1.414   0.010  0.00  0.00     0.173 A 
ATOM      2  C2  <0> d          -1.309   1.995   0.031  0.00  0.00     0.219 A 
ATOM      3  N1  <0> d          -2.360   1.189   0.041  0.00  0.00    -0.102 NA
ATOM      4  N2  <0> d          -2.254  -0.090   0.033  0.00  0.00    -0.040 NA
ATOM      5  N3  <0> d          -1.113  -0.695   0.014  0.00  0.00    -0.119 NA
ATOM      6  C3  <0> d           0.002  -0.004   0.002  0.00  0.00     0.176 A 
ATOM      7  S1  <0> d           1.743  -0.327  -0.016  0.00  0.00     0.059 SA
ATOM      8  N4  <0> d           2.268   1.209  -0.013  0.00  0.00    -0.108 NA
ATOM      9  N5  <0> d           1.210   1.937   0.001  0.00  0.00    -0.135 NA
ENDROOT
BRANCH   2  10
ATOM     10  O1  <0> d          -1.466   3.340   0.040  0.00  0.00    -0.342 OA
ATOM     11  H1  <0> d          -1.524   3.735  -0.841  0.00  0.00     0.219 HD
ENDBRANCH   2  10
TORSDOF 1
