REMARK  0 active torsions:
REMARK  status: ('A' for Active; 'I' for Inactive)
ROOT
ATOM      1  C1  <0> d          -1.276   1.659   0.018  0.00  0.00    -0.078 A 
ATOM      2  C2  <0> d          -0.013   1.076   0.008  0.00  0.00    -0.063 A 
ATOM      3  C3  <0> d           1.235   1.693  -0.001  0.00  0.00     0.047 A 
ATOM      4  C4  <0> d           1.536   3.065   0.004  0.00  0.00    -0.024 A 
ATOM      5  C5  <0> d           0.665   4.135   0.018  0.00  0.00     0.158 A 
ATOM      6  C6  <0> d          -0.753   4.113   0.031  0.00  0.00     0.208 A 
ATOM      7  O1  <0> d          -1.303   5.205   0.042  0.00  0.00    -0.285 OA
ATOM      8  C7  <0> d          -1.609   2.995   0.034  0.00  0.00    -0.032 A 
ATOM      9  O2  <0> d           1.238   5.363   0.018  0.00  0.00    -0.188 OA
ATOM     10  C8  <0> d           2.363   0.811  -0.017  0.00  0.00     0.099 C 
ATOM     11  N1  <0> d           3.257   0.112  -0.029  0.00  0.00    -0.191 NA
ATOM     12  H1  <0> d          -2.108   0.970   0.018  0.00  0.00     0.083 H 
ATOM     13  H2  <0> d           0.002  -0.004   0.002  0.00  0.00     0.085 H 
ATOM     14  H3  <0> d           2.587   3.315  -0.005  0.00  0.00     0.090 H 
ATOM     15  H4  <0> d          -2.667   3.214   0.045  0.00  0.00     0.089 H 
ENDROOT
TORSDOF 0
