REMARK  2 active torsions:
REMARK  status: ('A' for Active; 'I' for Inactive)
REMARK    1  A    between atoms: C1_1  and  O1_2 
REMARK    2  A    between atoms: O1_2  and  C2_3 
ROOT
ATOM      1  C2  <0> d           0.606  -0.607  -1.056  0.00  0.00     0.216 A 
ATOM      2  C3  <0> d           0.735  -2.046  -1.270  0.00  0.00     0.161 A 
ATOM      3  C4  <0> d           1.428  -2.204  -2.491  0.00  0.00     0.199 A 
ATOM      4  N1  <0> d           1.688  -0.948  -2.962  0.00  0.00    -0.255 N 
ATOM      5  H1  <0> d           2.155  -0.742  -3.787  0.00  0.00     0.191 HD
ATOM      6  N2  <0> d           1.171  -0.005  -2.068  0.00  0.00    -0.145 NA
ATOM      7  N3  <0> d           1.682  -3.432  -2.926  0.00  0.00    -0.127 NA
ATOM      8  N4  <0> d           1.297  -4.451  -2.238  0.00  0.00    -0.141 NA
ATOM      9  C5  <0> d           0.646  -4.320  -1.092  0.00  0.00     0.109 A 
ATOM     10  N5  <0> d           0.360  -3.133  -0.598  0.00  0.00    -0.232 NA
ATOM     11  H5  <0> d           0.344  -5.205  -0.551  0.00  0.00     0.149 H 
ENDROOT
BRANCH   1  12
ATOM     12  O1  <0> d           0.002  -0.004   0.002  0.00  0.00    -0.336 OA
BRANCH  12  13
ATOM     13  C1  <0> d          -0.017   1.425   0.010  0.00  0.00     0.012 C 
ATOM     14  H2  <0> d           1.005   1.802   0.002  0.00  0.00     0.067 H 
ATOM     15  H3  <0> d          -0.544   1.786  -0.873  0.00  0.00     0.067 H 
ATOM     16  H4  <0> d          -0.527   1.776   0.907  0.00  0.00     0.067 H 
ENDBRANCH  12  13
ENDBRANCH   1  12
TORSDOF 2
