REMARK  3 active torsions:
REMARK  status: ('A' for Active; 'I' for Inactive)
REMARK    1  A    between atoms: C1_1  and  C2_2 
REMARK    2  A    between atoms: C2_2  and  C3_4 
REMARK    3  A    between atoms: C2_2  and  C7_9 
ROOT
ATOM      1  C2  <0> d           0.918   5.160   0.020  0.00  0.00     0.059 C 
ATOM      2  H1  <0> d           0.055   5.843   0.017  0.00  0.00     0.064 H 
ENDROOT
BRANCH   1   3
ATOM      3  C1  <0> d           1.779   5.398   1.262  0.00  0.00    -0.059 C 
ATOM      4  H2  <0> d           2.142   6.436   1.264  0.00  0.00     0.029 H 
ATOM      5  H3  <0> d           2.636   4.710   1.251  0.00  0.00     0.029 H 
ATOM      6  H4  <0> d           1.176   5.218   2.165  0.00  0.00     0.029 H 
ENDBRANCH   1   3
BRANCH   1   7
ATOM      7  C3  <0> d           0.421   3.738   0.017  0.00  0.00    -0.004 A 
ATOM      8  S1  <0> d           1.359   2.219   0.001  0.00  0.00    -0.106 SA
ATOM      9  C6  <0> d          -0.013   1.076   0.008  0.00  0.00    -0.044 A 
ATOM     10  C5  <0> d          -1.077   1.915   0.017  0.00  0.00    -0.076 A 
ATOM     11  H7  <0> d           0.002  -0.004   0.002  0.00  0.00     0.095 H 
ATOM     12  C4  <0> d          -0.855   3.279   0.027  0.00  0.00    -0.069 A 
ATOM     13  H6  <0> d          -2.083   1.524   0.018  0.00  0.00     0.084 H 
ATOM     14  H5  <0> d          -1.685   3.970   0.039  0.00  0.00     0.085 H 
ENDBRANCH   1   7
BRANCH   1  15
ATOM     15  C7  <0> d           1.743   5.406  -1.217  0.00  0.00     0.181 C 
ATOM     16  O1  <0> d           1.910   4.517  -2.018  0.00  0.00    -0.647 OA
ATOM     17  O2  <0> d           2.292   6.612  -1.429  0.00  0.00    -0.647 OA
ENDBRANCH   1  15
TORSDOF 3
