REMARK  1 active torsions:
REMARK  status: ('A' for Active; 'I' for Inactive)
REMARK    1  A    between atoms: C1_1  and  N1_2 
ROOT
ATOM      1  N1  <0> d           1.141   1.912   0.001  0.00  0.00    -0.237 N 
ATOM      2  C2  <0> d          -0.015   1.217   0.009  0.00  0.00     0.263 A 
ATOM      3  O1  <0> d           0.002  -0.004   0.002  0.00  0.00    -0.267 OA
ATOM      4  C3  <0> d          -1.242   1.910   0.018  0.00  0.00    -0.012 A 
ATOM      5  C4  <0> d          -1.238   3.270   0.031  0.00  0.00    -0.022 A 
ATOM      6  C5  <0> d          -0.013   3.965   0.022  0.00  0.00     0.219 A 
ATOM      7  N2  <0> d           1.121   3.311   0.009  0.00  0.00    -0.141 NA
ATOM      8  O2  <0> d          -0.009   5.323   0.029  0.00  0.00    -0.169 OA
ATOM      9  H4  <0> d          -2.175   1.367   0.020  0.00  0.00     0.092 H 
ATOM     10  H5  <0> d          -2.170   3.815   0.043  0.00  0.00     0.090 H 
ENDROOT
BRANCH   1  11
ATOM     11  C1  <0> d           2.421   1.200  -0.015  0.00  0.00     0.006 C 
ATOM     12  H1  <0> d           2.237   0.115  -0.018  0.00  0.00     0.059 H 
ATOM     13  H2  <0> d           3.002   1.470   0.879  0.00  0.00     0.059 H 
ATOM     14  H3  <0> d           2.985   1.479  -0.917  0.00  0.00     0.059 H 
ENDBRANCH   1  11
TORSDOF 1
