REMARK  6 active torsions:
REMARK  status: ('A' for Active; 'I' for Inactive)
REMARK    1  A    between atoms: C1_1  and  C2_2 
REMARK    2  A    between atoms: C2_2  and  C3_4 
REMARK    3  A    between atoms: C2_2  and  C5_8 
REMARK    4  A    between atoms: C3_4  and  C4_5 
REMARK    5  A    between atoms: C5_8  and  C6_9 
REMARK    6  A    between atoms: C5_8  and  C7_10 
ROOT
ATOM      1  C2  <0> d           0.002  -0.004   0.002  0.00  0.00    -0.046 C 
ATOM      2  H1  <0> d          -1.020  -0.381   0.010  0.00  0.00     0.040 H 
ENDROOT
BRANCH   1   3
ATOM      3  C1  <0> d          -0.019   1.526   0.010  0.00  0.00    -0.072 C 
ATOM      4  H2  <0> d           1.004   1.903   0.003  0.00  0.00     0.028 H 
ATOM      5  H3  <0> d          -0.546   1.887  -0.873  0.00  0.00     0.028 H 
ATOM      6  H4  <0> d          -0.529   1.877   0.907  0.00  0.00     0.028 H 
ENDBRANCH   1   3
BRANCH   1   7
ATOM      7  C3  <0> d           0.718  -0.497  -1.257  0.00  0.00     0.019 C 
ATOM      8  H5  <0> d           1.710  -0.049  -1.310  0.00  0.00     0.049 H 
ATOM      9  H6  <0> d           0.812  -1.583  -1.220  0.00  0.00     0.049 H 
BRANCH   7  10
ATOM     10  C4  <0> d          -0.077  -0.103  -2.474  0.00  0.00     0.172 C 
ATOM     11  O1  <0> d          -1.120   0.516  -2.347  0.00  0.00    -0.648 OA
ATOM     12  O2  <0> d           0.322  -0.402  -3.587  0.00  0.00    -0.648 OA
ENDBRANCH   7  10
ENDBRANCH   1   7
BRANCH   1  13
ATOM     13  C5  <0> d           0.742  -0.511   1.242  0.00  0.00    -0.058 C 
ATOM     14  H7  <0> d           1.765  -0.134   1.234  0.00  0.00     0.039 H 
BRANCH  13  15
ATOM     15  C6  <0> d           0.026  -0.018   2.500  0.00  0.00    -0.073 C 
ATOM     16  H8  <0> d           0.553  -0.379   3.383  0.00  0.00     0.028 H 
ATOM     17  H9  <0> d           0.011   1.072   2.506  0.00  0.00     0.028 H 
ATOM     18  H10 <0> d          -0.997  -0.395   2.508  0.00  0.00     0.028 H 
ENDBRANCH  13  15
BRANCH  13  19
ATOM     19  C7  <0> d           0.763  -2.041   1.233  0.00  0.00    -0.073 C 
ATOM     20  H11 <0> d           1.273  -2.392   0.336  0.00  0.00     0.028 H 
ATOM     21  H12 <0> d           1.290  -2.402   2.116  0.00  0.00     0.028 H 
ATOM     22  H13 <0> d          -0.260  -2.418   1.241  0.00  0.00     0.028 H 
ENDBRANCH  13  19
ENDBRANCH   1  13
TORSDOF 6
