REMARK  3 active torsions:
REMARK  status: ('A' for Active; 'I' for Inactive)
REMARK    1  A    between atoms: C1_1  and  C2_2 
REMARK    2  A    between atoms: C2_2  and  C3_3 
REMARK    3  A    between atoms: C6_6  and  C9_9 
ROOT
ATOM      1  C3  <0> d          -1.412  -0.526   0.013  0.00  0.00    -0.059 A 
ATOM      2  C4  <0> d          -2.048  -0.765   1.218  0.00  0.00    -0.076 A 
ATOM      3  C5  <0> d          -3.342  -1.243   1.235  0.00  0.00    -0.066 A 
ATOM      4  C6  <0> d          -4.010  -1.485   0.032  0.00  0.00     0.040 A 
ATOM      5  C7  <0> d          -3.361  -1.240  -1.181  0.00  0.00    -0.066 A 
ATOM      6  C8  <0> d          -2.069  -0.758  -1.183  0.00  0.00    -0.076 A 
ATOM      7  H6  <0> d          -1.531  -0.578   2.147  0.00  0.00     0.084 H 
ATOM      8  H7  <0> d          -3.837  -1.430   2.177  0.00  0.00     0.085 H 
ATOM      9  H8  <0> d          -3.872  -1.425  -2.114  0.00  0.00     0.085 H 
ATOM     10  H9  <0> d          -1.568  -0.564  -2.119  0.00  0.00     0.084 H 
ENDROOT
BRANCH   1  11
ATOM     11  C2  <0> d           0.002  -0.004   0.002  0.00  0.00    -0.044 C 
ATOM     12  H4  <0> d           0.512  -0.356  -0.895  0.00  0.00     0.039 H 
ATOM     13  H5  <0> d           0.529  -0.365   0.885  0.00  0.00     0.039 H 
BRANCH  11  14
ATOM     14  C1  <0> d          -0.019   1.526   0.010  0.00  0.00    -0.073 C 
ATOM     15  H1  <0> d           1.004   1.903   0.003  0.00  0.00     0.028 H 
ATOM     16  H2  <0> d          -0.546   1.887  -0.873  0.00  0.00     0.028 H 
ATOM     17  H3  <0> d          -0.529   1.877   0.907  0.00  0.00     0.028 H 
ENDBRANCH  11  14
ENDBRANCH   1  11
BRANCH   4  18
ATOM     18  C9  <0> d          -5.394  -1.996   0.043  0.00  0.00     0.209 C 
ATOM     19  O1  <0> d          -5.959  -2.210   1.106  0.00  0.00    -0.644 OA
ATOM     20  O2  <0> d          -5.976  -2.207  -1.012  0.00  0.00    -0.644 OA
ENDBRANCH   4  18
TORSDOF 3
