REMARK  4 active torsions:
REMARK  status: ('A' for Active; 'I' for Inactive)
REMARK    1  A    between atoms: C1_1  and  C2_2 
REMARK    2  A    between atoms: C5_7  and  C6_8 
REMARK    3  A    between atoms: C6_8  and  C7_9 
REMARK    4  A    between atoms: C7_9  and  C8_10 
ROOT
ATOM      1  C2  <0> d           0.002  -0.004   0.002  0.00  0.00    -0.039 A 
ATOM      2  C3  <0> d           0.008  -0.796  -1.089  0.00  0.00    -0.017 A 
ATOM      3  N1  <0> d           0.028  -2.095  -0.673  0.00  0.00    -0.374 N 
ATOM      4  H1  <0> d           0.036  -2.873  -1.252  0.00  0.00     0.164 HD
ATOM      5  C4  <0> d           0.034  -2.118   0.690  0.00  0.00    -0.017 A 
ATOM      6  C5  <0> d           0.024  -0.844   1.133  0.00  0.00    -0.035 A 
ATOM      7  H5  <0> d          -0.001  -0.460  -2.116  0.00  0.00     0.112 H 
ATOM      8  H6  <0> d           0.048  -3.003   1.308  0.00  0.00     0.112 H 
ENDROOT
BRANCH   6   9
ATOM      9  C6  <0> d           0.033  -0.401   2.573  0.00  0.00    -0.030 C 
ATOM     10  H7  <0> d           0.483  -1.178   3.190  0.00  0.00     0.041 H 
ATOM     11  H8  <0> d           0.611   0.518   2.667  0.00  0.00     0.041 H 
BRANCH   9  12
ATOM     12  C7  <0> d          -1.403  -0.149   3.038  0.00  0.00     0.019 C 
ATOM     13  H9  <0> d          -1.854   0.628   2.421  0.00  0.00     0.049 H 
ATOM     14  H10 <0> d          -1.982  -1.068   2.944  0.00  0.00     0.049 H 
BRANCH  12  15
ATOM     15  C8  <0> d          -1.395   0.294   4.478  0.00  0.00     0.172 C 
ATOM     16  O1  <0> d          -0.338   0.399   5.077  0.00  0.00    -0.648 OA
ATOM     17  O2  <0> d          -2.445   0.547   5.044  0.00  0.00    -0.648 OA
ENDBRANCH  12  15
ENDBRANCH   9  12
ENDBRANCH   6   9
BRANCH   1  18
ATOM     18  C1  <0> d          -0.018   1.503   0.010  0.00  0.00    -0.049 C 
ATOM     19  H2  <0> d           1.004   1.880   0.003  0.00  0.00     0.033 H 
ATOM     20  H3  <0> d          -0.545   1.864  -0.873  0.00  0.00     0.033 H 
ATOM     21  H4  <0> d          -0.529   1.854   0.907  0.00  0.00     0.033 H 
ENDBRANCH   1  18
TORSDOF 4
