REMARK  2 active torsions:
REMARK  status: ('A' for Active; 'I' for Inactive)
REMARK    1  A    between atoms: C5_6  and  C6_7 
REMARK    2  A    between atoms: C6_7  and  C7_9 
ROOT
ATOM      1  C7  <0> d          -0.013   1.086   0.008  0.00  0.00     0.074 C 
ATOM      2  C8  <0> d          -0.725   1.573  -1.185  0.00  0.00     0.067 C 
ATOM      3  N2  <0> d          -1.274   1.950  -2.105  0.00  0.00    -0.197 NA
ATOM      4  H5  <0> d           1.019   1.467   0.000  0.00  0.00     0.067 H 
ATOM      5  H6  <0> d           0.002  -0.014   0.002  0.00  0.00     0.067 H 
ENDROOT
BRANCH   1   6
ATOM      6  C6  <0> d          -0.718   1.572   1.248  0.00  0.00     0.172 C 
ATOM      7  O1  <0> d          -1.711   2.254   1.150  0.00  0.00    -0.291 OA
BRANCH   6   8
ATOM      8  C5  <0> d          -0.196   1.215   2.581  0.00  0.00     0.013 A 
ATOM      9  C1  <0> d           0.949   0.421   2.717  0.00  0.00    -0.052 A 
ATOM     10  C2  <0> d           1.405   0.116   3.985  0.00  0.00     0.003 A 
ATOM     11  H1  <0> d           1.471   0.056   1.845  0.00  0.00     0.087 H 
ATOM     12  N1  <0> d           0.771   0.552   5.056  0.00  0.00    -0.273 NA
ATOM     13  H2  <0> d           2.289  -0.493   4.101  0.00  0.00     0.114 H 
ATOM     14  C3  <0> d          -0.313   1.297   4.973  0.00  0.00     0.003 A 
ATOM     15  C4  <0> d          -0.836   1.656   3.747  0.00  0.00    -0.052 A 
ATOM     16  H3  <0> d          -0.799   1.632   5.878  0.00  0.00     0.114 H 
ATOM     17  H4  <0> d          -1.725   2.266   3.687  0.00  0.00     0.087 H 
ENDBRANCH   6   8
ENDBRANCH   1   6
TORSDOF 2
