REMARK  2 active torsions:
REMARK  status: ('A' for Active; 'I' for Inactive)
REMARK    1  A    between atoms: C4_4  and  C7_7 
REMARK    2  A    between atoms: C7_7  and  C8_8 
ROOT
ATOM      1  C8  <0> d          -0.091   5.865  -1.409  0.00  0.00     0.117 C 
ATOM      2  C9  <0> d          -1.350   5.462  -2.057  0.00  0.00     0.079 C 
ATOM      3  N1  <0> d          -2.321   5.151  -2.557  0.00  0.00    -0.196 NA
ATOM      4  C10 <0> d           0.010   7.333  -1.403  0.00  0.00     0.079 C 
ATOM      5  N2  <0> d           0.088   8.467  -1.399  0.00  0.00    -0.196 NA
ATOM      6  H8  <0> d           0.751   5.445  -1.958  0.00  0.00     0.086 H 
ENDROOT
BRANCH   1   7
ATOM      7  C7  <0> d          -0.070   5.347   0.031  0.00  0.00    -0.014 C 
ATOM      8  H6  <0> d          -0.960   5.696   0.555  0.00  0.00     0.043 H 
ATOM      9  H7  <0> d           0.819   5.720   0.538  0.00  0.00     0.043 H 
BRANCH   7  10
ATOM     10  C4  <0> d          -0.050   3.840   0.023  0.00  0.00    -0.056 A 
ATOM     11  C3  <0> d          -1.238   3.133   0.030  0.00  0.00    -0.077 A 
ATOM     12  C2  <0> d          -1.219   1.751   0.017  0.00  0.00    -0.082 A 
ATOM     13  H3  <0> d          -2.180   3.660   0.041  0.00  0.00     0.084 H 
ATOM     14  C1  <0> d          -0.013   1.076   0.008  0.00  0.00    -0.083 A 
ATOM     15  H2  <0> d          -2.147   1.198   0.019  0.00  0.00     0.083 H 
ATOM     16  C6  <0> d           1.175   1.783   0.000  0.00  0.00    -0.082 A 
ATOM     17  H1  <0> d           0.002  -0.004   0.002  0.00  0.00     0.083 H 
ATOM     18  C5  <0> d           1.156   3.165   0.008  0.00  0.00    -0.077 A 
ATOM     19  H5  <0> d           2.118   1.256  -0.011  0.00  0.00     0.083 H 
ATOM     20  H4  <0> d           2.084   3.718   0.002  0.00  0.00     0.084 H 
ENDBRANCH   7  10
ENDBRANCH   1   7
TORSDOF 2
