REMARK  2 active torsions:
REMARK  status: ('A' for Active; 'I' for Inactive)
REMARK    1  A    between atoms: C2_2  and  C3_3 
REMARK    2  A    between atoms: C3_3  and  C4_4 
ROOT
ATOM      1  C4  <0> d          -1.730   5.495   0.046  0.00  0.00     0.016 A 
ATOM      2  H1  <0> d          -2.022   6.055  -0.842  0.00  0.00     0.073 H 
ATOM      3  C5  <0> d          -2.394   4.109   0.045  0.00  0.00    -0.020 A 
ATOM      4  C6  <0> d          -1.238   3.134   0.030  0.00  0.00    -0.030 A 
ATOM      5  C7  <0> d          -1.218   1.752   0.017  0.00  0.00    -0.075 A 
ATOM      6  C8  <0> d          -0.013   1.076   0.008  0.00  0.00    -0.082 A 
ATOM      7  C9  <0> d           1.175   1.785   0.000  0.00  0.00    -0.081 A 
ATOM      8  C10 <0> d           1.159   3.163   0.007  0.00  0.00    -0.057 A 
ATOM      9  C11 <0> d          -0.054   3.854   0.022  0.00  0.00     0.034 A 
ATOM     10  N1  <0> d          -0.289   5.230   0.031  0.00  0.00    -0.384 N 
ATOM     11  H7  <0> d          -3.010   3.983  -0.845  0.00  0.00     0.043 H 
ATOM     12  H8  <0> d          -2.995   3.972   0.945  0.00  0.00     0.043 H 
ATOM     13  H9  <0> d          -2.146   1.200   0.019  0.00  0.00     0.084 H 
ATOM     14  H10 <0> d           0.002  -0.004   0.002  0.00  0.00     0.083 H 
ATOM     15  H11 <0> d           2.117   1.258  -0.011  0.00  0.00     0.083 H 
ATOM     16  H12 <0> d           2.090   3.712   0.002  0.00  0.00     0.086 H 
ATOM     17  H13 <0> d           0.402   5.912   0.029  0.00  0.00     0.160 HD
ENDROOT
BRANCH   1  18
ATOM     18  C3  <0> d          -2.115   6.268   1.310  0.00  0.00    -0.032 C 
ATOM     19  H5  <0> d          -3.201   6.315   1.390  0.00  0.00     0.041 H 
ATOM     20  H6  <0> d          -1.707   5.760   2.184  0.00  0.00     0.041 H 
BRANCH  18  21
ATOM     21  C2  <0> d          -1.556   7.665   1.234  0.00  0.00    -0.110 C 
ATOM     22  C1  <0> d          -2.351   8.697   1.368  0.00  0.00    -0.125 C 
ATOM     23  H2  <0> d          -1.950   9.698   1.314  0.00  0.00     0.066 H 
ATOM     24  H3  <0> d          -3.408   8.546   1.533  0.00  0.00     0.066 H 
ATOM     25  H4  <0> d          -0.499   7.816   1.069  0.00  0.00     0.075 H 
ENDBRANCH  18  21
ENDBRANCH   1  18
TORSDOF 2
