REMARK  5 active torsions:
REMARK  status: ('A' for Active; 'I' for Inactive)
REMARK    1  A    between atoms: C1_1  and  C2_2 
REMARK    2  A    between atoms: C2_2  and  C3_3 
REMARK    3  A    between atoms: C3_3  and  C4_4 
REMARK    4  A    between atoms: C3_3  and  C7_8 
REMARK    5  A    between atoms: C4_4  and  C5_5 
REMARK       I    between atoms: C7_8  and  N2_10 
ROOT
ATOM      1  C3  <0> d          -1.208   3.131   0.025  0.00  0.00     0.128 C 
ATOM      2  C6  <0> d          -2.602   3.602   0.034  0.00  0.00     0.079 C 
ATOM      3  N1  <0> d          -3.678   3.966   0.041  0.00  0.00    -0.196 NA
ENDROOT
BRANCH   1   4
ATOM      4  C2  <0> d          -0.488   3.644   1.273  0.00  0.00    -0.041 C 
ATOM      5  H4  <0> d           0.545   3.294   1.267  0.00  0.00     0.035 H 
ATOM      6  H5  <0> d          -0.502   4.734   1.279  0.00  0.00     0.035 H 
BRANCH   4   7
ATOM      7  C1  <0> d          -1.196   3.117   2.523  0.00  0.00    -0.074 C 
ATOM      8  H1  <0> d          -1.181   2.027   2.517  0.00  0.00     0.027 H 
ATOM      9  H2  <0> d          -0.683   3.482   3.413  0.00  0.00     0.027 H 
ATOM     10  H3  <0> d          -2.228   3.466   2.530  0.00  0.00     0.027 H 
ENDBRANCH   4   7
ENDBRANCH   1   4
BRANCH   1  11
ATOM     11  C4  <0> d          -0.499   3.657  -1.225  0.00  0.00    -0.041 C 
ATOM     12  H6  <0> d          -0.514   4.747  -1.219  0.00  0.00     0.035 H 
ATOM     13  H7  <0> d           0.533   3.308  -1.232  0.00  0.00     0.035 H 
BRANCH  11  14
ATOM     14  C5  <0> d          -1.220   3.144  -2.474  0.00  0.00    -0.074 C 
ATOM     15  H8  <0> d          -1.205   2.054  -2.480  0.00  0.00     0.027 H 
ATOM     16  H9  <0> d          -2.252   3.494  -2.467  0.00  0.00     0.027 H 
ATOM     17  H10 <0> d          -0.715   3.519  -3.364  0.00  0.00     0.027 H 
ENDBRANCH  11  14
ENDBRANCH   1  11
BRANCH   1  18
ATOM     18  C7  <0> d          -1.187   1.624   0.017  0.00  0.00     0.238 C 
ATOM     19  O1  <0> d          -2.229   1.003   0.018  0.00  0.00    -0.272 OA
ATOM     20  N2  <0> d          -0.011   0.966   0.007  0.00  0.00    -0.369 N 
ATOM     21  H11 <0> d           0.002  -0.004   0.002  0.00  0.00     0.159 HD
ATOM     22  H12 <0> d           0.822   1.462   0.002  0.00  0.00     0.159 HD
ENDBRANCH   1  18
TORSDOF 5
