REMARK  4 active torsions:
REMARK  status: ('A' for Active; 'I' for Inactive)
REMARK    1  A    between atoms: C1_1  and  N1_2 
REMARK    2  A    between atoms: N1_2  and  C2_3 
REMARK    3  A    between atoms: C4_5  and  N5_10 
REMARK    4  A    between atoms: C5_7  and  N4_9 
ROOT
ATOM      1  C2  <0> d          -1.228   2.138   0.019  0.00  0.00     0.145 A 
ATOM      2  C3  <0> d          -2.429   1.434   0.015  0.00  0.00     0.006 A 
ATOM      3  C4  <0> d          -3.619   2.156   0.030  0.00  0.00     0.144 A 
ATOM      4  N2  <0> d          -3.569   3.486   0.037  0.00  0.00    -0.046 NA
ATOM      5  C5  <0> d          -2.408   4.122   0.035  0.00  0.00     0.724 A 
ATOM      6  N3  <0> d          -1.256   3.468   0.027  0.00  0.00    -0.046 NA
ATOM      7  H5  <0> d          -2.437   0.354   0.005  0.00  0.00     0.095 H 
ENDROOT
BRANCH   1   8
ATOM      8  N1  <0> d          -0.018   1.461   0.010  0.00  0.00    -0.379 N 
ATOM      9  H4  <0> d           0.927   2.024   0.009  0.00  0.00     0.160 HD
BRANCH   8  10
ATOM     10  C1  <0> d           0.002  -0.004   0.002  0.00  0.00    -0.020 C 
ATOM     11  H1  <0> d           1.044  -0.357  -0.005  0.00  0.00     0.056 H 
ATOM     12  H2  <0> d          -0.516  -0.373  -0.896  0.00  0.00     0.056 H 
ATOM     13  H3  <0> d          -0.507  -0.383   0.900  0.00  0.00     0.056 H 
ENDBRANCH   8  10
ENDBRANCH   1   8
BRANCH   5  14
ATOM     14  N4  <0> d          -2.397   5.506   0.043  0.00  0.00    -0.231 N 
ATOM     15  H6  <0> d          -1.440   6.048   0.042  0.00  0.00     0.174 HD
ATOM     16  H7  <0> d          -3.345   6.063   0.051  0.00  0.00     0.174 HD
ENDBRANCH   5  14
BRANCH   3  17
ATOM     17  N5  <0> d          -4.839   1.498   0.032  0.00  0.00    -0.383 N 
ATOM     18  H8  <0> d          -5.775   2.076   0.043  0.00  0.00     0.157 HD
ATOM     19  H9  <0> d          -4.871   0.399   0.021  0.00  0.00     0.157 HD
ENDBRANCH   3  17
TORSDOF 4
