REMARK  0 active torsions:
REMARK  status: ('A' for Active; 'I' for Inactive)
REMARK       I    between atoms: N1_4  and  C5_6 
REMARK       I    between atoms: C5_6  and  N2_8 
ROOT
ATOM      1  C1  <0> d          -0.019   1.547   0.011  0.00  0.00    -0.049 C 
ATOM      2  C2  <0> d           0.002  -0.004   0.002  0.00  0.00    -0.049 C 
ATOM      3  C3  <0> d           1.223  -0.328  -0.885  0.00  0.00    -0.001 C 
ATOM      4  N1  <0> d           2.098   0.853  -0.871  0.00  0.00    -0.334 N 
ATOM      5  C4  <0> d           1.494   1.879  -0.002  0.00  0.00    -0.001 C 
ATOM      6  C5  <0> d           3.260   0.977  -1.543  0.00  0.00     0.316 C 
ATOM      7  O1  <0> d           3.663   0.062  -2.234  0.00  0.00    -0.247 OA
ATOM      8  N2  <0> d           3.975   2.116  -1.448  0.00  0.00    -0.352 N 
ATOM      9  H1  <0> d          -0.480   1.970   0.915  0.00  0.00     0.035 H 
ATOM     10  H2  <0> d          -0.497   1.980  -0.881  0.00  0.00     0.035 H 
ATOM     11  H3  <0> d           0.116  -0.375   1.031  0.00  0.00     0.035 H 
ATOM     12  H4  <0> d          -0.941  -0.381  -0.421  0.00  0.00     0.035 H 
ATOM     13  H5  <0> d           1.749  -1.204  -0.478  0.00  0.00     0.064 H 
ATOM     14  H6  <0> d           0.884  -0.547  -1.909  0.00  0.00     0.064 H 
ATOM     15  H7  <0> d           1.644   2.892  -0.403  0.00  0.00     0.064 H 
ATOM     16  H8  <0> d           1.889   1.828   1.023  0.00  0.00     0.064 H 
ATOM     17  H9  <0> d           4.923   2.217  -1.997  0.00  0.00     0.160 HD
ATOM     18  H10 <0> d           3.610   2.944  -0.823  0.00  0.00     0.160 HD
ENDROOT
TORSDOF 0
