REMARK  5 active torsions:
REMARK  status: ('A' for Active; 'I' for Inactive)
REMARK    1  A    between atoms: C1_1  and  C2_2 
REMARK    2  A    between atoms: C2_2  and  C3_3 
REMARK    3  A    between atoms: C3_3  and  N1_4 
REMARK    4  A    between atoms: N1_4  and  S1_5 
REMARK    5  A    between atoms: S1_5  and  C4_8 
ROOT
ATOM      1  C3  <0> d          -1.299   2.367   0.021  0.00  0.00     0.002 C 
ATOM      2  H6  <0> d          -1.751   2.318  -0.970  0.00  0.00     0.065 H 
ATOM      3  H7  <0> d          -1.967   1.906   0.748  0.00  0.00     0.065 H 
ENDROOT
BRANCH   1   4
ATOM      4  C2  <0> d          -1.062   3.830   0.401  0.00  0.00    -0.053 C 
ATOM      5  H4  <0> d          -0.610   3.879   1.392  0.00  0.00     0.034 H 
ATOM      6  H5  <0> d          -0.394   4.291  -0.326  0.00  0.00     0.034 H 
BRANCH   4   7
ATOM      7  C1  <0> d          -2.397   4.577   0.412  0.00  0.00    -0.075 C 
ATOM      8  H1  <0> d          -2.228   5.619   0.682  0.00  0.00     0.027 H 
ATOM      9  H2  <0> d          -2.849   4.527  -0.579  0.00  0.00     0.027 H 
ATOM     10  H3  <0> d          -3.066   4.116   1.139  0.00  0.00     0.027 H 
ENDBRANCH   4   7
ENDBRANCH   1   4
BRANCH   1  11
ATOM     11  N1  <0> d          -0.020   1.652   0.011  0.00  0.00    -0.320 N 
ATOM     12  H8  <0> d           0.813   2.148   0.006  0.00  0.00     0.172 HD
BRANCH  11  13
ATOM     13  S1  <0> d           0.002  -0.004   0.002  0.00  0.00     0.222 S 
ATOM     14  O1  <0> d           1.381  -0.348   0.012  0.00  0.00    -0.206 OA
ATOM     15  O2  <0> d          -0.847  -0.384   1.076  0.00  0.00    -0.206 OA
BRANCH  13  16
ATOM     16  C4  <0> d          -0.748  -0.472  -1.582  0.00  0.00     0.032 C 
ATOM     17  H9  <0> d          -0.159  -0.056  -2.400  0.00  0.00     0.051 H 
ATOM     18  H10 <0> d          -0.770  -1.558  -1.667  0.00  0.00     0.051 H 
ATOM     19  H11 <0> d          -1.764  -0.082  -1.632  0.00  0.00     0.051 H 
ENDBRANCH  13  16
ENDBRANCH  11  13
ENDBRANCH   1  11
TORSDOF 5
