REMARK  1 active torsions:
REMARK  status: ('A' for Active; 'I' for Inactive)
REMARK    1  A    between atoms: C3_3  and  C6_8 
ROOT
ATOM      1  C1  <0> d           1.090   2.030   0.003  0.00  0.00     0.040 A 
ATOM      2  C2  <0> d           2.333   1.420  -0.013  0.00  0.00     0.153 A 
ATOM      3  C3  <0> d           2.402   0.020  -0.020  0.00  0.00     0.120 A 
ATOM      4  C4  <0> d           1.199  -0.700  -0.013  0.00  0.00     0.153 A 
ATOM      5  C5  <0> d           0.002  -0.004   0.002  0.00  0.00     0.040 A 
ATOM      6  N1  <0> d          -0.016   1.313   0.009  0.00  0.00    -0.267 NA
ATOM      7  F1  <0> d           1.208  -2.050  -0.019  0.00  0.00    -0.203 F 
ATOM      8  F2  <0> d           3.461   2.163  -0.019  0.00  0.00    -0.203 F 
ATOM      9  H1  <0> d           1.026   3.108   0.009  0.00  0.00     0.119 H 
ATOM     10  H2  <0> d          -0.930  -0.549   0.008  0.00  0.00     0.119 H 
ENDROOT
BRANCH   3  11
ATOM     11  C6  <0> d           3.704  -0.677  -0.036  0.00  0.00     0.215 C 
ATOM     12  O1  <0> d           4.230  -0.957  -1.095  0.00  0.00    -0.644 OA
ATOM     13  O2  <0> d           4.309  -1.000   1.123  0.00  0.00    -0.644 OA
ENDBRANCH   3  11
TORSDOF 1
