REMARK  0 active torsions:
REMARK  status: ('A' for Active; 'I' for Inactive)
ROOT
ATOM      1  C1  <0> d          -0.016   1.308   0.009  0.00  0.00     0.050 A 
ATOM      2  C2  <0> d           1.198   2.020   0.002  0.00  0.00     0.195 A 
ATOM      3  N1  <0> d           1.522   3.303   0.005  0.00  0.00    -0.107 NA
ATOM      4  N2  <0> d           2.801   3.439  -0.006  0.00  0.00    -0.022 NA
ATOM      5  N3  <0> d           3.384   2.287  -0.018  0.00  0.00    -0.038 NA
ATOM      6  N4  <0> d           2.376   1.319  -0.014  0.00  0.00    -0.180 N 
ATOM      7  C3  <0> d           2.343  -0.041  -0.021  0.00  0.00     0.149 A 
ATOM      8  C4  <0> d           1.150  -0.682  -0.013  0.00  0.00     0.041 A 
ATOM      9  N5  <0> d           0.002  -0.004   0.002  0.00  0.00    -0.266 NA
ATOM     10 Cl1  <0> d           3.822  -0.950  -0.041  0.00  0.00    -0.061 Cl
ATOM     11  H1  <0> d          -0.956   1.838   0.025  0.00  0.00     0.120 H 
ATOM     12  H2  <0> d           1.128  -1.762  -0.019  0.00  0.00     0.119 H 
ENDROOT
TORSDOF 0
