REMARK  3 active torsions:
REMARK  status: ('A' for Active; 'I' for Inactive)
REMARK    1  A    between atoms: C1_1  and  C2_2 
REMARK    2  A    between atoms: C3_3  and  C5_7 
REMARK    3  A    between atoms: C5_7  and  C6_9 
ROOT
ATOM      1  C2  <0> d          -1.902   0.924   3.355  0.00  0.00     0.038 A 
ATOM      2  C3  <0> d          -1.234   0.640   2.179  0.00  0.00     0.125 A 
ATOM      3  N1  <0> d          -1.179  -0.740   2.094  0.00  0.00    -0.238 NA
ATOM      4  C4  <0> d          -1.785  -1.228   3.189  0.00  0.00     0.065 A 
ATOM      5  N2  <0> d          -2.214  -0.236   3.929  0.00  0.00    -0.352 N 
ATOM      6  H4  <0> d          -1.905  -2.276   3.421  0.00  0.00     0.143 H 
ATOM      7  H8  <0> d          -2.755  -0.248   4.887  0.00  0.00     0.166 HD
ENDROOT
BRANCH   2   8
ATOM      8  C5  <0> d          -0.718   1.572   1.248  0.00  0.00     0.176 C 
ATOM      9  O1  <0> d          -0.843   2.763   1.448  0.00  0.00    -0.291 OA
BRANCH   8  10
ATOM     10  C6  <0> d          -0.013   1.086   0.008  0.00  0.00    -0.015 C 
ATOM     11  H5  <0> d           0.316   1.949  -0.589  0.00  0.00     0.038 H 
ATOM     12  H6  <0> d          -0.701   0.469  -0.588  0.00  0.00     0.038 H 
ATOM     13  H7  <0> d           0.863   0.485   0.296  0.00  0.00     0.038 H 
ENDBRANCH   8  10
ENDBRANCH   2   8
BRANCH   1  14
ATOM     14  C1  <0> d          -2.219   2.296   3.891  0.00  0.00    -0.035 C 
ATOM     15  H1  <0> d          -1.835   3.058   3.197  0.00  0.00     0.035 H 
ATOM     16  H2  <0> d          -1.745   2.425   4.875  0.00  0.00     0.035 H 
ATOM     17  H3  <0> d          -3.309   2.408   3.991  0.00  0.00     0.035 H 
ENDBRANCH   1  14
TORSDOF 3
