REMARK  2 active torsions:
REMARK  status: ('A' for Active; 'I' for Inactive)
REMARK    1  A    between atoms: N1_6  and  C5_7 
REMARK    2  A    between atoms: C5_7  and  O2_8 
ROOT
ATOM      1  C1  <0> d           1.421   1.950  -0.001  0.00  0.00     0.135 C 
ATOM      2  C2  <0> d          -0.017   1.426   0.010  0.00  0.00     0.044 C 
ATOM      3  O1  <0> d           0.002  -0.004   0.002  0.00  0.00    -0.388 OA
ATOM      4  C3  <0> d           0.701  -0.577   1.111  0.00  0.00     0.044 C 
ATOM      5  C4  <0> d           2.147  -0.072   1.111  0.00  0.00     0.135 C 
ATOM      6  N1  <0> d           2.148   1.397   1.151  0.00  0.00     0.115 N 
ATOM      7  H1  <0> d           1.913   1.643  -0.924  0.00  0.00     0.083 H 
ATOM      8  H2  <0> d           1.412   3.039   0.062  0.00  0.00     0.083 H 
ATOM      9  H3  <0> d          -0.543   1.788  -0.874  0.00  0.00     0.077 H 
ATOM     10  H4  <0> d          -0.526   1.778   0.907  0.00  0.00     0.077 H 
ATOM     11  H5  <0> d           0.213  -0.282   2.040  0.00  0.00     0.077 H 
ATOM     12  H6  <0> d           0.695  -1.663   1.023  0.00  0.00     0.077 H 
ATOM     13  H7  <0> d           2.668  -0.461   1.986  0.00  0.00     0.083 H 
ATOM     14  H8  <0> d           2.651  -0.412   0.206  0.00  0.00     0.083 H 
ENDROOT
BRANCH   6  15
ATOM     15  C5  <0> d           3.519   1.922   1.210  0.00  0.00     0.193 C 
ATOM     16  H9  <0> d           3.857   1.940   2.246  0.00  0.00     0.122 H 
ATOM     17  H10 <0> d           4.178   1.281   0.624  0.00  0.00     0.122 H 
BRANCH  15  18
ATOM     18  O2  <0> d           3.545   3.247   0.677  0.00  0.00    -0.373 OA
ATOM     19  H11 <0> d           4.421   3.657   0.684  0.00  0.00     0.211 HD
ENDBRANCH  15  18
ENDBRANCH   6  15
TORSDOF 2
