REMARK  1 active torsions:
REMARK  status: ('A' for Active; 'I' for Inactive)
REMARK    1  A    between atoms: C1_1  and  C2_2 
ROOT
ATOM      1  C2  <0> d          -0.742   1.585  -1.213  0.00  0.00    -0.023 A 
ATOM      2  C3  <0> d          -2.109   1.803  -1.183  0.00  0.00    -0.060 A 
ATOM      3  C4  <0> d          -2.745   2.261  -2.322  0.00  0.00    -0.023 A 
ATOM      4  N1  <0> d          -2.067   2.491  -3.429  0.00  0.00    -0.373 N 
ATOM      5  C5  <0> d          -0.764   2.297  -3.499  0.00  0.00     0.012 A 
ATOM      6  C6  <0> d          -0.056   1.844  -2.396  0.00  0.00     0.128 A 
ATOM      7  O1  <0> d           1.287   1.651  -2.471  0.00  0.00    -0.190 OA
ATOM      8  H4  <0> d          -2.673   1.617  -0.281  0.00  0.00     0.086 H 
ATOM      9  H5  <0> d          -3.811   2.433  -2.305  0.00  0.00     0.111 H 
ATOM     10  H6  <0> d          -0.243   2.496  -4.424  0.00  0.00     0.115 H 
ATOM     11  H7  <0> d          -2.538   2.813  -4.214  0.00  0.00     0.164 HD
ENDROOT
BRANCH   1  12
ATOM     12  C1  <0> d          -0.013   1.086   0.008  0.00  0.00    -0.048 C 
ATOM     13  H1  <0> d           0.002  -0.004   0.002  0.00  0.00     0.033 H 
ATOM     14  H2  <0> d           1.010   1.463   0.000  0.00  0.00     0.033 H 
ATOM     15  H3  <0> d          -0.523   1.437   0.905  0.00  0.00     0.033 H 
ENDBRANCH   1  12
TORSDOF 1
