REMARK  3 active torsions:
REMARK  status: ('A' for Active; 'I' for Inactive)
REMARK    1  A    between atoms: C1_1  and  C2_2 
REMARK    2  A    between atoms: C6_6  and  C9_9 
REMARK    3  A    between atoms: C7_7  and  C8_8 
ROOT
ATOM      1  C9  <0> d           0.052  -2.821   2.418  0.00  0.00    -0.077 C 
ATOM      2  C10 <0> d           0.065  -3.418   3.429  0.00  0.00    -0.149 C 
ATOM      3  H10 <0> d           0.077  -3.951   4.333  0.00  0.00     0.166 H 
ENDROOT
BRANCH   1   4
ATOM      4  C6  <0> d           0.037  -2.094   1.184  0.00  0.00     0.023 A 
ATOM      5  C5  <0> d           0.040  -2.778  -0.032  0.00  0.00    -0.064 A 
ATOM      6  C4  <0> d           0.025  -2.071  -1.217  0.00  0.00    -0.081 A 
ATOM      7  H6  <0> d           0.054  -3.857  -0.046  0.00  0.00     0.085 H 
ATOM      8  C3  <0> d           0.006  -0.688  -1.201  0.00  0.00    -0.077 A 
ATOM      9  H5  <0> d           0.026  -2.599  -2.159  0.00  0.00     0.083 H 
ATOM     10  C2  <0> d           0.002  -0.004   0.002  0.00  0.00    -0.055 A 
ATOM     11  H4  <0> d          -0.006  -0.139  -2.131  0.00  0.00     0.084 H 
ATOM     12  C7  <0> d           0.023  -0.699   1.194  0.00  0.00    -0.037 A 
BRANCH  10  13
ATOM     13  C1  <0> d          -0.018   1.503   0.010  0.00  0.00    -0.051 C 
ATOM     14  H1  <0> d           1.004   1.880   0.003  0.00  0.00     0.033 H 
ATOM     15  H2  <0> d          -0.545   1.864  -0.873  0.00  0.00     0.033 H 
ATOM     16  H3  <0> d          -0.529   1.854   0.907  0.00  0.00     0.033 H 
ENDBRANCH  10  13
BRANCH  12  17
ATOM     17  C8  <0> d           0.025   0.048   2.503  0.00  0.00    -0.049 C 
ATOM     18  H7  <0> d          -1.002   0.214   2.828  0.00  0.00     0.033 H 
ATOM     19  H8  <0> d           0.554  -0.538   3.254  0.00  0.00     0.033 H 
ATOM     20  H9  <0> d           0.525   1.008   2.373  0.00  0.00     0.033 H 
ENDBRANCH  12  17
ENDBRANCH   1   4
TORSDOF 3
