REMARK  6 active torsions:
REMARK  status: ('A' for Active; 'I' for Inactive)
REMARK    1  A    between atoms: C1_1  and  C2_2 
REMARK    2  A    between atoms: C2_2  and  C3_3 
REMARK    3  A    between atoms: C2_2  and  C4_4 
REMARK    4  A    between atoms: C4_4  and  C5_5 
REMARK    5  A    between atoms: C5_5  and  C6_6 
REMARK    6  A    between atoms: C8_8  and  N2_11 
ROOT
ATOM      1  C4  <0> d          -3.296   2.161   1.208  0.00  0.00    -0.057 C 
ATOM      2  H8  <0> d          -3.229   3.256   1.124  0.00  0.00     0.034 H 
ATOM      3  H9  <0> d          -2.819   1.836   2.145  0.00  0.00     0.034 H 
ENDROOT
BRANCH   1   4
ATOM      4  C2  <0> d          -4.766   1.739   1.212  0.00  0.00    -0.061 C 
ATOM      5  H4  <0> d          -5.221   1.984   0.240  0.00  0.00     0.038 H 
BRANCH   4   6
ATOM      6  C1  <0> d          -4.864   0.232   1.455  0.00  0.00    -0.073 C 
ATOM      7  H1  <0> d          -4.331  -0.304   0.655  0.00  0.00     0.028 H 
ATOM      8  H2  <0> d          -5.921  -0.072   1.457  0.00  0.00     0.028 H 
ATOM      9  H3  <0> d          -4.410  -0.013   2.426  0.00  0.00     0.028 H 
ENDBRANCH   4   6
BRANCH   4  10
ATOM     10  C3  <0> d          -5.508   2.484   2.324  0.00  0.00    -0.073 C 
ATOM     11  H5  <0> d          -5.438   3.567   2.150  0.00  0.00     0.028 H 
ATOM     12  H6  <0> d          -5.054   2.239   3.295  0.00  0.00     0.028 H 
ATOM     13  H7  <0> d          -6.565   2.180   2.326  0.00  0.00     0.028 H 
ENDBRANCH   4  10
ENDBRANCH   1   4
BRANCH   1  14
ATOM     14  C5  <0> d          -2.582   1.513   0.021  0.00  0.00    -0.022 C 
ATOM     15  H10 <0> d          -2.649   0.418   0.105  0.00  0.00     0.042 H 
ATOM     16  H11 <0> d          -3.059   1.838  -0.916  0.00  0.00     0.042 H 
BRANCH  14  17
ATOM     17  C6  <0> d          -1.133   1.929   0.017  0.00  0.00     0.066 A 
ATOM     18  N1  <0> d          -0.672   3.148   0.025  0.00  0.00    -0.131 NA
ATOM     19  O1  <0> d           0.536   3.172   0.014  0.00  0.00    -0.196 OA
ATOM     20  C8  <0> d           1.052   1.933   0.002  0.00  0.00     0.168 A 
ATOM     21  C7  <0> d          -0.013   1.076   0.008  0.00  0.00    -0.006 A 
ATOM     22  H12 <0> d           0.002  -0.004   0.002  0.00  0.00     0.093 H 
BRANCH  20  23
ATOM     23  N2  <0> d           2.392   1.591  -0.013  0.00  0.00    -0.378 N 
ATOM     24  H13 <0> d           3.160   2.379  -0.016  0.00  0.00     0.158 HD
ATOM     25  H14 <0> d           2.690   0.533  -0.022  0.00  0.00     0.158 HD
ENDBRANCH  20  23
ENDBRANCH  14  17
ENDBRANCH   1  14
TORSDOF 6
