REMARK  3 active torsions:
REMARK  status: ('A' for Active; 'I' for Inactive)
REMARK    1  A    between atoms: C1_1  and  C2_2 
REMARK    2  A    between atoms: C1_1  and  C4_5 
REMARK    3  A    between atoms: C2_2  and  C3_3 
ROOT
ATOM      1  C1  <0> d          -0.019   1.526   0.010  0.00  0.00    -0.039 C 
ATOM      2  H1  <0> d          -0.546   1.887  -0.873  0.00  0.00     0.036 H 
ATOM      3  H2  <0> d          -0.529   1.877   0.907  0.00  0.00     0.036 H 
ENDROOT
BRANCH   1   4
ATOM      4  C2  <0> d           0.002  -0.004   0.002  0.00  0.00    -0.039 C 
ATOM      5  H3  <0> d           0.512  -0.356  -0.895  0.00  0.00     0.036 H 
ATOM      6  H4  <0> d           0.529  -0.365   0.885  0.00  0.00     0.036 H 
BRANCH   4   7
ATOM      7  C3  <0> d          -1.433  -0.534   0.013  0.00  0.00     0.058 C 
ATOM      8  F1  <0> d          -1.414  -1.933   0.005  0.00  0.00    -0.255 F 
ATOM      9  H5  <0> d          -1.944  -0.182   0.910  0.00  0.00     0.082 H 
ATOM     10  H6  <0> d          -1.960  -0.173  -0.870  0.00  0.00     0.082 H 
ENDBRANCH   4   7
ENDBRANCH   1   4
BRANCH   1  11
ATOM     11  C4  <0> d           1.417   2.055  -0.000  0.00  0.00     0.058 C 
ATOM     12  F2  <0> d           1.398   3.454   0.007  0.00  0.00    -0.255 F 
ATOM     13  H7  <0> d           1.944   1.694   0.883  0.00  0.00     0.082 H 
ATOM     14  H8  <0> d           1.927   1.704  -0.897  0.00  0.00     0.082 H 
ENDBRANCH   1  11
TORSDOF 3
