REMARK  5 active torsions:
REMARK  status: ('A' for Active; 'I' for Inactive)
REMARK    1  A    between atoms: C1_1  and  O1_2 
REMARK    2  A    between atoms: O1_2  and  C2_3 
REMARK    3  A    between atoms: C2_3  and  C3_4 
REMARK    4  A    between atoms: C3_4  and  C4_5 
REMARK    5  A    between atoms: C4_5  and  N1_6 
REMARK       I    between atoms: N1_6  and  C5_7 
REMARK       I    between atoms: C5_7  and  N2_9 
ROOT
ATOM      1  C3  <0> d           3.571   2.196  -0.020  0.00  0.00    -0.030 C 
ATOM      2  H6  <0> d           3.497   2.827  -0.906  0.00  0.00     0.038 H 
ATOM      3  H7  <0> d           3.514   2.817   0.874  0.00  0.00     0.038 H 
ENDROOT
BRANCH   1   4
ATOM      4  C2  <0> d           4.907   1.449  -0.037  0.00  0.00     0.020 C 
ATOM      5  H4  <0> d           4.981   0.819   0.849  0.00  0.00     0.074 H 
ATOM      6  H5  <0> d           4.964   0.828  -0.931  0.00  0.00     0.074 H 
BRANCH   4   7
ATOM      7  O1  <0> d           5.980   2.393  -0.042  0.00  0.00    -0.396 OA
BRANCH   7   8
ATOM      8  C1  <0> d           7.278   1.796  -0.058  0.00  0.00     0.004 C 
ATOM      9  H1  <0> d           7.402   1.172   0.828  0.00  0.00     0.066 H 
ATOM     10  H2  <0> d           7.385   1.182  -0.952  0.00  0.00     0.066 H 
ATOM     11  H3  <0> d           8.037   2.578  -0.061  0.00  0.00     0.066 H 
ENDBRANCH   7   8
ENDBRANCH   4   7
ENDBRANCH   1   4
BRANCH   1  12
ATOM     12  C4  <0> d           2.422   1.186  -0.015  0.00  0.00    -0.001 C 
ATOM     13  H8  <0> d           2.497   0.556   0.871  0.00  0.00     0.064 H 
ATOM     14  H9  <0> d           2.480   0.565  -0.909  0.00  0.00     0.064 H 
BRANCH  12  15
ATOM     15  N1  <0> d           1.143   1.901   0.001  0.00  0.00    -0.343 N 
ATOM     16  C5  <0> d          -0.014   1.212   0.009  0.00  0.00     0.313 C 
ATOM     17  O2  <0> d           0.002  -0.004   0.002  0.00  0.00    -0.248 OA
ATOM     18  N2  <0> d          -1.191   1.870   0.018  0.00  0.00    -0.352 N 
ATOM     19  H11 <0> d          -2.024   1.373   0.019  0.00  0.00     0.160 HD
ATOM     20  H12 <0> d          -1.204   2.840   0.023  0.00  0.00     0.160 HD
ATOM     21  H10 <0> d           1.130   2.871   0.007  0.00  0.00     0.164 HD
ENDBRANCH  12  15
ENDBRANCH   1  12
TORSDOF 5
