REMARK  2 active torsions:
REMARK  status: ('A' for Active; 'I' for Inactive)
REMARK    1  A    between atoms: C4_5  and  C5_6 
REMARK    2  A    between atoms: C5_6  and  O1_7 
ROOT
ATOM      1  C1  <0> d           1.078   3.903   1.060  0.00  0.00    -0.061 A 
ATOM      2  C2  <0> d           0.950   5.286   0.850  0.00  0.00    -0.044 A 
ATOM      3  C3  <0> d           0.897   5.699  -0.440  0.00  0.00    -0.011 A 
ATOM      4  S1  <0> d           1.038   4.191  -1.371  0.00  0.00    -0.097 SA
ATOM      5  C4  <0> d           1.147   3.062   0.008  0.00  0.00     0.007 A 
ATOM      6  C6  <0> d           0.754   7.189  -0.553  0.00  0.00    -0.034 C 
ATOM      7  C7  <0> d           0.289   7.643   0.849  0.00  0.00    -0.057 C 
ATOM      8  C8  <0> d           0.850   6.523   1.747  0.00  0.00    -0.040 C 
ATOM      9  H1  <0> d           1.122   3.513   2.066  0.00  0.00     0.086 H 
ATOM     10  H5  <0> d           0.005   7.443  -1.303  0.00  0.00     0.041 H 
ATOM     11  H6  <0> d           1.712   7.645  -0.802  0.00  0.00     0.041 H 
ATOM     12  H7  <0> d          -0.799   7.679   0.905  0.00  0.00     0.033 H 
ATOM     13  H8  <0> d           0.724   8.607   1.111  0.00  0.00     0.033 H 
ATOM     14  H9  <0> d           0.172   6.332   2.578  0.00  0.00     0.040 H 
ATOM     15  H10 <0> d           1.837   6.798   2.119  0.00  0.00     0.040 H 
ENDROOT
BRANCH   5  16
ATOM     16  C5  <0> d           1.286   1.562  -0.002  0.00  0.00     0.046 C 
ATOM     17  H2  <0> d           1.840   1.243   0.881  0.00  0.00     0.082 H 
ATOM     18  H3  <0> d           1.823   1.252  -0.899  0.00  0.00     0.082 H 
BRANCH  16  19
ATOM     19  O1  <0> d          -0.011   0.963   0.007  0.00  0.00    -0.396 OA
ATOM     20  H4  <0> d           0.002  -0.004   0.002  0.00  0.00     0.209 HD
ENDBRANCH  16  19
ENDBRANCH   5  16
TORSDOF 2
