REMARK  2 active torsions:
REMARK  status: ('A' for Active; 'I' for Inactive)
REMARK    1  A    between atoms: C1_1  and  C2_2 
REMARK    2  A    between atoms: C3_3  and  C5_7 
ROOT
ATOM      1  C2  <0> d           2.314   0.099  -0.019  0.00  0.00     0.016 A 
ATOM      2  C3  <0> d           1.167  -0.655  -0.013  0.00  0.00     0.146 A 
ATOM      3  N1  <0> d           0.002  -0.004   0.002  0.00  0.00    -0.246 NA
ATOM      4  C4  <0> d          -0.016   1.303   0.009  0.00  0.00     0.041 A 
ATOM      5  S1  <0> d           1.670   1.710  -0.005  0.00  0.00    -0.085 SA
ATOM      6  H4  <0> d          -0.869   1.966   0.017  0.00  0.00     0.126 H 
ENDROOT
BRANCH   1   7
ATOM      7  C1  <0> d           3.751  -0.353  -0.036  0.00  0.00    -0.043 C 
ATOM      8  H1  <0> d           3.790  -1.452  -0.042  0.00  0.00     0.034 H 
ATOM      9  H2  <0> d           4.266   0.027   0.859  0.00  0.00     0.034 H 
ATOM     10  H3  <0> d           4.248   0.036  -0.937  0.00  0.00     0.034 H 
ENDBRANCH   1   7
BRANCH   2  11
ATOM     11  C5  <0> d           1.220  -2.125  -0.021  0.00  0.00     0.230 C 
ATOM     12  O1  <0> d           2.293  -2.695  -0.033  0.00  0.00    -0.643 OA
ATOM     13  O2  <0> d           0.077  -2.840  -0.013  0.00  0.00    -0.643 OA
ENDBRANCH   2  11
TORSDOF 2
