REMARK  4 active torsions:
REMARK  status: ('A' for Active; 'I' for Inactive)
REMARK    1  A    between atoms: C1_1  and  C2_2 
REMARK    2  A    between atoms: C2_2  and  C3_3 
REMARK    3  A    between atoms: C2_2  and  C4_4 
REMARK    4  A    between atoms: C7_7  and  N1_10 
ROOT
ATOM      1  C4  <0> d           1.208  -0.681  -0.013  0.00  0.00    -0.055 A 
ATOM      2  C5  <0> d           0.002  -0.004   0.002  0.00  0.00    -0.074 A 
ATOM      3  C6  <0> d          -0.017   1.377   0.010  0.00  0.00    -0.057 A 
ATOM      4  C7  <0> d           1.178   2.086   0.002  0.00  0.00     0.025 A 
ATOM      5  C8  <0> d           2.387   1.403  -0.012  0.00  0.00    -0.057 A 
ATOM      6  C9  <0> d           2.399   0.022  -0.020  0.00  0.00    -0.074 A 
ATOM      7  H8  <0> d          -0.926  -0.556   0.008  0.00  0.00     0.084 H 
ATOM      8  H9  <0> d          -0.959   1.905   0.017  0.00  0.00     0.086 H 
ATOM      9  H10 <0> d           3.318   1.952  -0.018  0.00  0.00     0.086 H 
ATOM     10  H11 <0> d           3.339  -0.509  -0.032  0.00  0.00     0.084 H 
ENDROOT
BRANCH   1  11
ATOM     11  C2  <0> d           1.224  -2.188  -0.021  0.00  0.00    -0.036 C 
ATOM     12  H4  <0> d           0.201  -2.562  -0.014  0.00  0.00     0.046 H 
BRANCH  11  13
ATOM     13  C1  <0> d           1.939  -2.683  -1.280  0.00  0.00    -0.069 C 
ATOM     14  H1  <0> d           2.963  -2.308  -1.288  0.00  0.00     0.028 H 
ATOM     15  H2  <0> d           1.951  -3.773  -1.286  0.00  0.00     0.028 H 
ATOM     16  H3  <0> d           1.413  -2.321  -2.163  0.00  0.00     0.028 H 
ENDBRANCH  11  13
BRANCH  11  17
ATOM     17  C3  <0> d           1.963  -2.696   1.218  0.00  0.00    -0.069 C 
ATOM     18  H5  <0> d           1.454  -2.343   2.115  0.00  0.00     0.028 H 
ATOM     19  H6  <0> d           1.975  -3.786   1.212  0.00  0.00     0.028 H 
ATOM     20  H7  <0> d           2.987  -2.322   1.210  0.00  0.00     0.028 H 
ENDBRANCH  11  17
ENDBRANCH   1  11
BRANCH   4  21
ATOM     21  N1  <0> d           1.162   3.483   0.010  0.00  0.00    -0.399 N 
ATOM     22  H12 <0> d           0.317   3.958   0.020  0.00  0.00     0.156 HD
ATOM     23  H13 <0> d           1.997   3.977   0.004  0.00  0.00     0.156 HD
ENDBRANCH   4  21
TORSDOF 4
