REMARK  0 active torsions:
REMARK  status: ('A' for Active; 'I' for Inactive)
ROOT
ATOM      1  C1  <0> d          -1.354   3.112   0.030  0.00  0.00    -0.048 C 
ATOM      2  C2  <0> d          -0.944   2.065   1.083  0.00  0.00    -0.048 C 
ATOM      3  C3  <0> d          -0.018   1.468   0.010  0.00  0.00     0.046 C 
ATOM      4  H1  <0> d           1.071   1.624   0.001  0.00  0.00     0.064 H 
ATOM      5  C4  <0> d          -0.964   2.077  -1.038  0.00  0.00     0.046 C 
ATOM      6  H2  <0> d          -0.643   2.351  -2.054  0.00  0.00     0.064 H 
ATOM      7  C5  <0> d          -2.069   1.184  -1.424  0.00  0.00     0.065 C 
ATOM      8  N1  <0> d          -2.921   0.495  -1.723  0.00  0.00    -0.197 NA
ATOM      9  C6  <0> d           0.002  -0.004   0.002  0.00  0.00     0.065 C 
ATOM     10  N2  <0> d           0.018  -1.140  -0.004  0.00  0.00    -0.197 NA
ATOM     11  H3  <0> d          -0.740   4.016  -0.094  0.00  0.00     0.035 H 
ATOM     12  H4  <0> d          -2.417   3.372  -0.082  0.00  0.00     0.035 H 
ATOM     13  H5  <0> d          -0.501   2.573   1.952  0.00  0.00     0.035 H 
ATOM     14  H6  <0> d          -1.831   1.499   1.402  0.00  0.00     0.035 H 
ENDROOT
TORSDOF 0
