REMARK  4 active torsions:
REMARK  status: ('A' for Active; 'I' for Inactive)
REMARK    1  A    between atoms: C1_1  and  O1_2 
REMARK    2  A    between atoms: O1_2  and  C2_3 
REMARK    3  A    between atoms: C2_3  and  C3_4 
REMARK    4  A    between atoms: C3_4  and  N1_5 
ROOT
ATOM      1  N1  <0> d          -0.742   3.127  -1.186  0.00  0.00     0.091 N 
ATOM      2  C4  <0> d          -0.323   1.729  -1.348  0.00  0.00     0.119 C 
ATOM      3  C5  <0> d           0.591   1.333  -0.183  0.00  0.00     0.015 C 
ATOM      4  C6  <0> d          -0.129   1.643   1.112  0.00  0.00     0.130 C 
ATOM      5  O2  <0> d          -0.204   0.824   1.996  0.00  0.00    -0.298 OA
ATOM      6  C7  <0> d          -0.755   3.014   1.261  0.00  0.00     0.015 C 
ATOM      7  C8  <0> d          -1.583   3.304   0.004  0.00  0.00     0.119 C 
ATOM      8  H8  <0> d          -1.210   1.079  -1.357  0.00  0.00     0.080 H 
ATOM      9  H9  <0> d           0.222   1.617  -2.297  0.00  0.00     0.080 H 
ATOM     10  H10 <0> d           0.815   0.258  -0.242  0.00  0.00     0.046 H 
ATOM     11  H11 <0> d           1.528   1.907  -0.240  0.00  0.00     0.046 H 
ATOM     12  H12 <0> d          -1.402   3.028   2.151  0.00  0.00     0.046 H 
ATOM     13  H13 <0> d           0.038   3.769   1.372  0.00  0.00     0.046 H 
ATOM     14  H14 <0> d          -1.956   4.338   0.039  0.00  0.00     0.080 H 
ATOM     15  H15 <0> d          -2.435   2.609  -0.043  0.00  0.00     0.080 H 
ENDROOT
BRANCH   1  16
ATOM     16  C3  <0> d          -1.425   3.615  -2.391  0.00  0.00     0.133 C 
ATOM     17  H6  <0> d          -2.281   2.962  -2.617  0.00  0.00     0.083 H 
ATOM     18  H7  <0> d          -0.724   3.607  -3.239  0.00  0.00     0.083 H 
BRANCH  16  19
ATOM     19  C2  <0> d          -1.921   5.043  -2.154  0.00  0.00     0.044 C 
ATOM     20  H4  <0> d          -2.597   5.057  -1.286  0.00  0.00     0.076 H 
ATOM     21  H5  <0> d          -2.461   5.396  -3.044  0.00  0.00     0.076 H 
BRANCH  19  22
ATOM     22  O1  <0> d          -0.805   5.899  -1.902  0.00  0.00    -0.394 OA
BRANCH  22  23
ATOM     23  C1  <0> d          -1.161   7.263  -1.666  0.00  0.00     0.004 C 
ATOM     24  H1  <0> d          -0.250   7.853  -1.482  0.00  0.00     0.066 H 
ATOM     25  H2  <0> d          -1.820   7.323  -0.788  0.00  0.00     0.066 H 
ATOM     26  H3  <0> d          -1.685   7.663  -2.546  0.00  0.00     0.066 H 
ENDBRANCH  22  23
ENDBRANCH  19  22
ENDBRANCH  16  19
ENDBRANCH   1  16
TORSDOF 4
