REMARK  2 active torsions:
REMARK  status: ('A' for Active; 'I' for Inactive)
REMARK    1  A    between atoms: C1_1  and  C2_2 
REMARK    2  A    between atoms: C4_5  and  O2_9 
ROOT
ATOM      1  C2  <0> d          -0.742   1.585  -1.213  0.00  0.00     0.102 A 
ATOM      2  N1  <0> d          -1.228   0.721  -2.062  0.00  0.00    -0.245 NA
ATOM      3  C3  <0> d          -1.882   1.111  -3.159  0.00  0.00     0.042 A 
ATOM      4  C4  <0> d          -2.054   2.442  -3.412  0.00  0.00     0.152 A 
ATOM      5  C5  <0> d          -1.526   3.377  -2.491  0.00  0.00     0.281 A 
ATOM      6  N2  <0> d          -0.880   2.914  -1.399  0.00  0.00    -0.309 N 
ATOM      7  O1  <0> d          -1.655   4.576  -2.677  0.00  0.00    -0.265 OA
ATOM      8  H4  <0> d          -2.275   0.376  -3.846  0.00  0.00     0.119 H 
ATOM      9  H5  <0> d          -0.513   3.536  -0.752  0.00  0.00     0.170 HD
ENDROOT
BRANCH   1  10
ATOM     10  C1  <0> d          -0.013   1.086   0.008  0.00  0.00    -0.021 C 
ATOM     11  H1  <0> d           0.002  -0.004   0.002  0.00  0.00     0.037 H 
ATOM     12  H2  <0> d           1.010   1.463   0.000  0.00  0.00     0.037 H 
ATOM     13  H3  <0> d          -0.523   1.437   0.905  0.00  0.00     0.037 H 
ENDBRANCH   1  10
BRANCH   4  14
ATOM     14  O2  <0> d          -2.717   2.858  -4.524  0.00  0.00    -0.355 OA
ATOM     15  H6  <0> d          -3.035   2.138  -5.085  0.00  0.00     0.218 HD
ENDBRANCH   4  14
TORSDOF 2
