REMARK  3 active torsions:
REMARK  status: ('A' for Active; 'I' for Inactive)
REMARK    1  A    between atoms: C1_1  and  C2_2 
REMARK       I    between atoms: C2_2  and  N1_4 
REMARK    2  A    between atoms: N1_4  and  C3_5 
REMARK    3  A    between atoms: C3_5  and  C4_6 
ROOT
ATOM      1  C4  <0> d           1.506  -0.359  -0.014  0.00  0.00     0.053 C 
ATOM      2  H1  <0> d           1.845  -0.525  -1.037  0.00  0.00     0.085 H 
ATOM      3  C5  <0> d           0.002  -0.004   0.002  0.00  0.00    -0.037 C 
ATOM      4  C6  <0> d          -0.019   1.541   0.011  0.00  0.00    -0.043 C 
ATOM      5  C7  <0> d           1.474   1.937  -0.002  0.00  0.00     0.020 C 
ATOM      6  O2  <0> d           2.163   0.795   0.553  0.00  0.00    -0.384 OA
ATOM      7  H8  <0> d          -0.473  -0.397   0.900  0.00  0.00     0.036 H 
ATOM      8  H9  <0> d          -0.493  -0.388  -0.890  0.00  0.00     0.036 H 
ATOM      9  H10 <0> d          -0.522   1.921  -0.879  0.00  0.00     0.036 H 
ATOM     10  H11 <0> d          -0.505   1.911   0.913  0.00  0.00     0.036 H 
ATOM     11  H12 <0> d           1.809   2.123  -1.022  0.00  0.00     0.074 H 
ATOM     12  H13 <0> d           1.639   2.817   0.619  0.00  0.00     0.074 H 
ENDROOT
BRANCH   1  13
ATOM     13  C3  <0> d           1.769  -1.600   0.841  0.00  0.00     0.019 C 
ATOM     14  H6  <0> d           1.461  -1.405   1.869  0.00  0.00     0.068 H 
ATOM     15  H7  <0> d           1.201  -2.442   0.445  0.00  0.00     0.068 H 
BRANCH  13  16
ATOM     16  N1  <0> d           3.199  -1.918   0.812  0.00  0.00    -0.359 N 
ATOM     17  C2  <0> d           3.667  -2.979   1.499  0.00  0.00     0.213 C 
ATOM     18  O1  <0> d           2.905  -3.670   2.142  0.00  0.00    -0.274 OA
ATOM     19  H5  <0> d           3.808  -1.366   0.298  0.00  0.00     0.162 HD
BRANCH  17  20
ATOM     20  C1  <0> d           5.138  -3.307   1.469  0.00  0.00    -0.003 C 
ATOM     21  H2  <0> d           5.706  -2.465   1.865  0.00  0.00     0.040 H 
ATOM     22  H3  <0> d           5.325  -4.191   2.079  0.00  0.00     0.040 H 
ATOM     23  H4  <0> d           5.446  -3.502   0.442  0.00  0.00     0.040 H 
ENDBRANCH  17  20
ENDBRANCH  13  16
ENDBRANCH   1  13
TORSDOF 3
