REMARK  3 active torsions:
REMARK  status: ('A' for Active; 'I' for Inactive)
REMARK    1  A    between atoms: C1_1  and  C2_2 
REMARK    2  A    between atoms: C2_2  and  O2_4 
REMARK    3  A    between atoms: O2_4  and  C3_5 
ROOT
ATOM      1  C3  <0> d           1.161   2.086  -0.005  0.00  0.00     0.079 A 
ATOM      2  C4  <0> d          -0.037   1.391  -0.092  0.00  0.00    -0.047 A 
ATOM      3  C5  <0> d          -0.033   0.010  -0.106  0.00  0.00    -0.043 A 
ATOM      4  C6  <0> d           1.165  -0.681  -0.033  0.00  0.00     0.116 A 
ATOM      5  C7  <0> d           2.361   0.012   0.054  0.00  0.00    -0.043 A 
ATOM      6  C8  <0> d           2.360   1.393   0.068  0.00  0.00    -0.047 A 
ATOM      7  F1  <0> d           1.167  -2.032  -0.047  0.00  0.00    -0.206 F 
ATOM      8  H4  <0> d          -0.971   1.929  -0.152  0.00  0.00     0.087 H 
ATOM      9  H5  <0> d          -0.965  -0.532  -0.173  0.00  0.00     0.088 H 
ATOM     10  H6  <0> d           3.294  -0.528   0.111  0.00  0.00     0.088 H 
ATOM     11  H7  <0> d           3.293   1.933   0.137  0.00  0.00     0.087 H 
ENDROOT
BRANCH   1  12
ATOM     12  O2  <0> d           1.158   3.446   0.009  0.00  0.00    -0.279 OA
BRANCH  12  13
ATOM     13  C2  <0> d           0.655   4.043   1.101  0.00  0.00     0.260 C 
ATOM     14  O1  <0> d           0.328   3.380   2.056  0.00  0.00    -0.265 OA
BRANCH  13  15
ATOM     15  C1  <0> d           0.500   5.542   1.135  0.00  0.00     0.004 C 
ATOM     16  H1  <0> d          -0.486   5.814   0.756  0.00  0.00     0.041 H 
ATOM     17  H2  <0> d           0.604   5.895   2.162  0.00  0.00     0.041 H 
ATOM     18  H3  <0> d           1.268   6.002   0.513  0.00  0.00     0.041 H 
ENDBRANCH  13  15
ENDBRANCH  12  13
ENDBRANCH   1  12
TORSDOF 3
