REMARK  0 active torsions:
REMARK  status: ('A' for Active; 'I' for Inactive)
ROOT
ATOM      1  C1  <0> d          -0.017   1.378   0.010  0.00  0.00    -0.082 A 
ATOM      2  C2  <0> d           0.002  -0.004   0.002  0.00  0.00    -0.082 A 
ATOM      3  C3  <0> d           1.209  -0.681  -0.013  0.00  0.00    -0.074 A 
ATOM      4  C4  <0> d           2.391   0.026  -0.021  0.00  0.00    -0.026 A 
ATOM      5  C5  <0> d           2.372   1.413  -0.013  0.00  0.00    -0.026 A 
ATOM      6  C6  <0> d           1.171   2.088   0.002  0.00  0.00    -0.074 A 
ATOM      7  C7  <0> d           3.816   1.871  -0.025  0.00  0.00     0.044 C 
ATOM      8  O1  <0> d           4.544   0.752  -0.586  0.00  0.00    -0.382 OA
ATOM      9  C8  <0> d           3.846  -0.393  -0.038  0.00  0.00     0.044 C 
ATOM     10  H1  <0> d          -0.960   1.905   0.017  0.00  0.00     0.083 H 
ATOM     11  H2  <0> d          -0.926  -0.556   0.008  0.00  0.00     0.083 H 
ATOM     12  H3  <0> d           1.224  -1.761  -0.019  0.00  0.00     0.084 H 
ATOM     13  H4  <0> d           1.157   3.168   0.009  0.00  0.00     0.084 H 
ATOM     14  H5  <0> d           3.930   2.754  -0.655  0.00  0.00     0.081 H 
ATOM     15  H6  <0> d           4.157   2.082   0.988  0.00  0.00     0.081 H 
ATOM     16  H7  <0> d           4.194  -0.602   0.974  0.00  0.00     0.081 H 
ATOM     17  H8  <0> d           3.984  -1.264  -0.677  0.00  0.00     0.081 H 
ENDROOT
TORSDOF 0
