REMARK  4 active torsions:
REMARK  status: ('A' for Active; 'I' for Inactive)
REMARK    1  A    between atoms: C1_1  and  C2_2 
REMARK    2  A    between atoms: C2_2  and  C3_3 
REMARK    3  A    between atoms: C2_2  and  N1_4 
REMARK    4  A    between atoms: C4_5  and  N4_11 
ROOT
ATOM      1  N1  <0> d          -1.387   2.979   0.030  0.00  0.00    -0.249 N 
ATOM      2  C4  <0> d          -1.217   1.640   0.017  0.00  0.00     0.140 A 
ATOM      3  C5  <0> d          -2.486   1.067   0.020  0.00  0.00     0.108 A 
ATOM      4  C6  <0> d          -3.420   2.128   0.031  0.00  0.00     0.045 A 
ATOM      5  N2  <0> d          -2.759   3.252   0.033  0.00  0.00    -0.181 NA
ATOM      6  C7  <0> d          -2.787  -0.333   0.014  0.00  0.00     0.105 C 
ATOM      7  N3  <0> d          -3.027  -1.444   0.009  0.00  0.00    -0.191 NA
ATOM      8  H8  <0> d          -4.495   2.026   0.036  0.00  0.00     0.119 H 
ENDROOT
BRANCH   2   9
ATOM      9  N4  <0> d          -0.011   0.966   0.007  0.00  0.00    -0.383 N 
ATOM     10  H9  <0> d           0.004  -0.134  -0.004  0.00  0.00     0.157 HD
ATOM     11  H10 <0> d           0.934   1.529   0.011  0.00  0.00     0.157 HD
ENDBRANCH   2   9
BRANCH   1  12
ATOM     12  C2  <0> d          -0.315   3.978   0.037  0.00  0.00     0.029 C 
ATOM     13  H4  <0> d           0.639   3.430   0.030  0.00  0.00     0.074 H 
BRANCH  12  14
ATOM     14  C1  <0> d          -0.436   4.865  -1.203  0.00  0.00    -0.056 C 
ATOM     15  H1  <0> d          -0.353   4.245  -2.107  0.00  0.00     0.030 H 
ATOM     16  H2  <0> d           0.368   5.615  -1.197  0.00  0.00     0.030 H 
ATOM     17  H3  <0> d          -1.412   5.374  -1.196  0.00  0.00     0.030 H 
ENDBRANCH  12  14
BRANCH  12  18
ATOM     18  C3  <0> d          -0.430   4.841   1.296  0.00  0.00    -0.056 C 
ATOM     19  H5  <0> d          -0.343   4.203   2.187  0.00  0.00     0.030 H 
ATOM     20  H6  <0> d          -1.406   5.350   1.303  0.00  0.00     0.030 H 
ATOM     21  H7  <0> d           0.374   5.591   1.301  0.00  0.00     0.030 H 
ENDBRANCH  12  18
ENDBRANCH   1  12
TORSDOF 4
