REMARK  1 active torsions:
REMARK  status: ('A' for Active; 'I' for Inactive)
REMARK    1  A    between atoms: C3_3  and  N1_11 
ROOT
ATOM      1  C1  <0> d           0.002  -0.004   0.002  0.00  0.00    -0.078 A 
ATOM      2  C2  <0> d           1.206  -0.682  -0.013  0.00  0.00    -0.055 A 
ATOM      3  C3  <0> d           2.401   0.024  -0.019  0.00  0.00     0.062 A 
ATOM      4  C4  <0> d           2.385   1.417  -0.011  0.00  0.00     0.128 A 
ATOM      5  C5  <0> d           1.174   2.092   0.002  0.00  0.00     0.104 A 
ATOM      6  C6  <0> d          -0.017   1.377   0.010  0.00  0.00    -0.048 A 
ATOM      7  O1  <0> d           1.135   3.453   0.002  0.00  0.00    -0.346 OA
ATOM      8  C7  <0> d           2.340   4.131   0.372  0.00  0.00     0.046 C 
ATOM      9  C8  <0> d           3.509   3.481  -0.381  0.00  0.00     0.046 C 
ATOM     10  O2  <0> d           3.565   2.098  -0.013  0.00  0.00    -0.344 OA
ATOM     11  H1  <0> d          -0.927  -0.555   0.008  0.00  0.00     0.083 H 
ATOM     12  H2  <0> d           1.218  -1.762  -0.019  0.00  0.00     0.087 H 
ATOM     13  H3  <0> d          -0.960   1.903   0.017  0.00  0.00     0.087 H 
ATOM     14  H4  <0> d           2.499   4.039   1.447  0.00  0.00     0.078 H 
ATOM     15  H5  <0> d           2.268   5.184   0.100  0.00  0.00     0.078 H 
ATOM     16  H6  <0> d           4.442   3.972  -0.107  0.00  0.00     0.078 H 
ATOM     17  H7  <0> d           3.348   3.569  -1.456  0.00  0.00     0.078 H 
ENDROOT
BRANCH   3  18
ATOM     18  N1  <0> d           3.621  -0.663  -0.033  0.00  0.00    -0.397 N 
ATOM     19  H8  <0> d           3.631  -1.633  -0.038  0.00  0.00     0.156 HD
ATOM     20  H9  <0> d           4.455  -0.169  -0.037  0.00  0.00     0.156 HD
ENDBRANCH   3  18
TORSDOF 1
