REMARK  3 active torsions:
REMARK  status: ('A' for Active; 'I' for Inactive)
REMARK    1  A    between atoms: C1_1  and  C2_2 
REMARK    2  A    between atoms: C6_6  and  N1_9 
REMARK    3  A    between atoms: N1_9  and  C8_10 
ROOT
ATOM      1  C2  <0> d           0.002  -0.004   0.002  0.00  0.00    -0.021 A 
ATOM      2  C3  <0> d           0.006  -0.689  -1.200  0.00  0.00    -0.074 A 
ATOM      3  C4  <0> d           0.024  -2.071  -1.212  0.00  0.00    -0.080 A 
ATOM      4  C5  <0> d           0.039  -2.774  -0.023  0.00  0.00    -0.054 A 
ATOM      5  C6  <0> d           0.036  -2.092   1.186  0.00  0.00     0.067 A 
ATOM      6  C7  <0> d           0.023  -0.701   1.196  0.00  0.00     0.148 A 
ATOM      7  F1  <0> d           0.025  -0.033   2.370  0.00  0.00    -0.203 F 
ATOM      8  H4  <0> d          -0.006  -0.142  -2.131  0.00  0.00     0.084 H 
ATOM      9  H5  <0> d           0.026  -2.602  -2.153  0.00  0.00     0.083 H 
ATOM     10  H6  <0> d           0.053  -3.854  -0.034  0.00  0.00     0.087 H 
ENDROOT
BRANCH   5  11
ATOM     11  N1  <0> d           0.051  -2.801   2.391  0.00  0.00    -0.392 N 
ATOM     12  H7  <0> d           0.049  -2.324   3.235  0.00  0.00     0.159 HD
BRANCH  11  13
ATOM     13  C8  <0> d           0.070  -4.266   2.379  0.00  0.00    -0.021 C 
ATOM     14  H8  <0> d           0.080  -4.638   3.403  0.00  0.00     0.056 H 
ATOM     15  H9  <0> d          -0.818  -4.637   1.866  0.00  0.00     0.056 H 
ATOM     16  H10 <0> d           0.962  -4.614   1.858  0.00  0.00     0.056 H 
ENDBRANCH  11  13
ENDBRANCH   5  11
BRANCH   1  17
ATOM     17  C1  <0> d          -0.018   1.503   0.010  0.00  0.00    -0.048 C 
ATOM     18  H1  <0> d           1.004   1.880   0.003  0.00  0.00     0.033 H 
ATOM     19  H2  <0> d          -0.545   1.864  -0.873  0.00  0.00     0.033 H 
ATOM     20  H3  <0> d          -0.529   1.854   0.907  0.00  0.00     0.033 H 
ENDBRANCH   1  17
TORSDOF 3
