REMARK  1 active torsions:
REMARK  status: ('A' for Active; 'I' for Inactive)
REMARK    1  A    between atoms: C6_6  and  N1_7 
ROOT
ATOM      1  C1  <0> d           2.381   1.420  -0.013  0.00  0.00    -0.017 A 
ATOM      2  C2  <0> d           1.171   2.092   0.002  0.00  0.00     0.121 A 
ATOM      3  C3  <0> d          -0.017   1.381   0.010  0.00  0.00    -0.005 A 
ATOM      4  C4  <0> d           0.002  -0.004   0.002  0.00  0.00     0.160 A 
ATOM      5  C5  <0> d           1.210  -0.680  -0.013  0.00  0.00     0.181 A 
ATOM      6  C6  <0> d           2.404   0.032  -0.021  0.00  0.00     0.070 A 
ATOM      7  F1  <0> d           1.228  -2.031  -0.020  0.00  0.00    -0.200 F 
ATOM      8  F2  <0> d          -1.159  -0.695   0.009  0.00  0.00    -0.203 F 
ATOM      9  F3  <0> d           1.149   3.442   0.009  0.00  0.00    -0.206 F 
ATOM     10  H1  <0> d           3.307   1.976  -0.019  0.00  0.00     0.091 H 
ATOM     11  H2  <0> d          -0.960   1.907   0.017  0.00  0.00     0.093 H 
ENDROOT
BRANCH   6  12
ATOM     12  N1  <0> d           3.625  -0.648  -0.037  0.00  0.00    -0.396 N 
ATOM     13  H3  <0> d           3.640  -1.618  -0.042  0.00  0.00     0.156 HD
ATOM     14  H4  <0> d           4.458  -0.150  -0.042  0.00  0.00     0.156 HD
ENDBRANCH   6  12
TORSDOF 1
