REMARK  5 active torsions:
REMARK  status: ('A' for Active; 'I' for Inactive)
REMARK    1  A    between atoms: C1_1  and  C2_2 
REMARK    2  A    between atoms: C4_4  and  N2_11 
REMARK    3  A    between atoms: C5_5  and  N1_10 
REMARK    4  A    between atoms: C7_7  and  O1_8 
REMARK    5  A    between atoms: O1_8  and  C8_9 
ROOT
ATOM      1  C2  <0> d          -0.748   1.595   3.560  0.00  0.00    -0.026 A 
ATOM      2  C3  <0> d          -0.208   1.227   4.779  0.00  0.00    -0.047 A 
ATOM      3  C4  <0> d           0.933   0.443   4.825  0.00  0.00     0.052 A 
ATOM      4  C5  <0> d           1.538   0.025   3.639  0.00  0.00     0.055 A 
ATOM      5  C6  <0> d           0.991   0.392   2.419  0.00  0.00    -0.023 A 
ATOM      6  C7  <0> d          -0.148   1.182   2.380  0.00  0.00     0.076 A 
ATOM      7  H4  <0> d          -0.677   1.550   5.697  0.00  0.00     0.088 H 
ATOM      8  H5  <0> d           1.455   0.067   1.500  0.00  0.00     0.091 H 
ENDROOT
BRANCH   6   9
ATOM      9  O1  <0> d          -0.682   1.547   1.184  0.00  0.00    -0.355 OA
BRANCH   9  10
ATOM     10  C8  <0> d          -0.013   1.086   0.008  0.00  0.00     0.010 C 
ATOM     11  H6  <0> d          -0.545   1.450  -0.883  0.00  0.00     0.066 H 
ATOM     12  H7  <0> d           0.002  -0.014   0.002  0.00  0.00     0.066 H 
ATOM     13  H8  <0> d           1.019   1.467   0.000  0.00  0.00     0.066 H 
ENDBRANCH   9  10
ENDBRANCH   6   9
BRANCH   1  14
ATOM     14  C1  <0> d          -1.990   2.448   3.514  0.00  0.00    -0.049 C 
ATOM     15  H1  <0> d          -2.317   2.674   4.540  0.00  0.00     0.033 H 
ATOM     16  H2  <0> d          -2.787   1.906   2.986  0.00  0.00     0.033 H 
ATOM     17  H3  <0> d          -1.770   3.386   2.984  0.00  0.00     0.033 H 
ENDBRANCH   1  14
BRANCH   4  18
ATOM     18  N1  <0> d           2.692  -0.766   3.681  0.00  0.00    -0.397 N 
ATOM     19  H9  <0> d           3.168  -1.095   2.745  0.00  0.00     0.156 HD
ATOM     20  H10 <0> d           3.122  -1.060   4.650  0.00  0.00     0.156 HD
ENDBRANCH   4  18
BRANCH   3  21
ATOM     21  N2  <0> d           1.481   0.070   6.061  0.00  0.00    -0.397 N 
ATOM     22  H11 <0> d           2.387  -0.552   6.096  0.00  0.00     0.156 HD
ATOM     23  H12 <0> d           1.004   0.400   6.996  0.00  0.00     0.156 HD
ENDBRANCH   3  21
TORSDOF 5
