REMARK  3 active torsions:
REMARK  status: ('A' for Active; 'I' for Inactive)
REMARK    1  A    between atoms: C1_1  and  C2_2 
REMARK    2  A    between atoms: C4_4  and  C6_9 
REMARK    3  A    between atoms: C5_6  and  N3_8 
ROOT
ATOM      1  C2  <0> d           2.303  -0.052  -0.020  0.00  0.00     0.051 A 
ATOM      2  C3  <0> d           2.321   1.334  -0.013  0.00  0.00    -0.035 A 
ATOM      3  C4  <0> d           1.112   2.012   0.002  0.00  0.00     0.051 A 
ATOM      4  N1  <0> d          -0.016   1.321   0.009  0.00  0.00    -0.068 NA
ATOM      5  C5  <0> d           0.002  -0.004   0.002  0.00  0.00     0.720 A 
ATOM      6  N2  <0> d           1.140  -0.682  -0.013  0.00  0.00    -0.068 NA
ATOM      7  H4  <0> d           3.256   1.874  -0.019  0.00  0.00     0.089 H 
ENDROOT
BRANCH   1   8
ATOM      8  C1  <0> d           3.593  -0.831  -0.036  0.00  0.00    -0.035 C 
ATOM      9  H1  <0> d           3.894  -1.013  -1.068  0.00  0.00     0.035 H 
ATOM     10  H2  <0> d           4.369  -0.259   0.473  0.00  0.00     0.035 H 
ATOM     11  H3  <0> d           3.449  -1.783   0.474  0.00  0.00     0.035 H 
ENDBRANCH   1   8
BRANCH   5  12
ATOM     12  N3  <0> d          -1.197  -0.696   0.010  0.00  0.00    -0.231 N 
ATOM     13  H5  <0> d          -2.037  -0.211   0.021  0.00  0.00     0.174 HD
ATOM     14  H6  <0> d          -1.197  -1.666   0.005  0.00  0.00     0.174 HD
ENDBRANCH   5  12
BRANCH   3  15
ATOM     15  C6  <0> d           1.082   3.519   0.011  0.00  0.00    -0.035 C 
ATOM     16  H7  <0> d           1.085   3.877   1.040  0.00  0.00     0.035 H 
ATOM     17  H8  <0> d           1.960   3.902  -0.510  0.00  0.00     0.035 H 
ATOM     18  H9  <0> d           0.181   3.868  -0.493  0.00  0.00     0.035 H 
ENDBRANCH   3  15
TORSDOF 3
