REMARK  3 active torsions:
REMARK  status: ('A' for Active; 'I' for Inactive)
REMARK    1  A    between atoms: C1_1  and  C2_2 
REMARK    2  A    between atoms: C5_5  and  C9_11 
REMARK    3  A    between atoms: C6_6  and  C8_8 
REMARK       I    between atoms: C8_8  and  N1_10 
ROOT
ATOM      1  C2  <0> d          -1.271   3.091   0.022  0.00  0.00    -0.061 A 
ATOM      2  C3  <0> d          -1.181   1.733   0.276  0.00  0.00    -0.077 A 
ATOM      3  C4  <0> d           0.050   1.103   0.275  0.00  0.00    -0.076 A 
ATOM      4  C5  <0> d           1.197   1.823   0.009  0.00  0.00    -0.046 A 
ATOM      5  C6  <0> d           1.113   3.191  -0.253  0.00  0.00     0.038 A 
ATOM      6  C7  <0> d          -0.133   3.822  -0.244  0.00  0.00    -0.061 A 
ATOM      7  H4  <0> d          -2.076   1.164   0.480  0.00  0.00     0.084 H 
ATOM      8  H5  <0> d           0.114   0.044   0.478  0.00  0.00     0.084 H 
ATOM      9  H6  <0> d          -0.204   4.880  -0.447  0.00  0.00     0.085 H 
ENDROOT
BRANCH   5  10
ATOM     10  C8  <0> d           2.337   3.969  -0.538  0.00  0.00     0.249 C 
ATOM     11  O1  <0> d           3.405   3.400  -0.657  0.00  0.00    -0.268 OA
ATOM     12  N1  <0> d           2.270   5.309  -0.665  0.00  0.00    -0.366 N 
ATOM     13  H7  <0> d           1.418   5.763  -0.570  0.00  0.00     0.159 HD
ATOM     14  H8  <0> d           3.074   5.819  -0.852  0.00  0.00     0.159 HD
ENDBRANCH   5  10
BRANCH   4  15
ATOM     15  C9  <0> d           2.537   1.133   0.002  0.00  0.00    -0.050 C 
ATOM     16  H9  <0> d           2.805   0.873  -1.022  0.00  0.00     0.033 H 
ATOM     17  H10 <0> d           3.291   1.802   0.416  0.00  0.00     0.033 H 
ATOM     18  H11 <0> d           2.482   0.227   0.605  0.00  0.00     0.033 H 
ENDBRANCH   4  15
BRANCH   1  19
ATOM     19  C1  <0> d          -2.616   3.770   0.032  0.00  0.00    -0.051 C 
ATOM     20  H1  <0> d          -3.048   3.735  -0.968  0.00  0.00     0.033 H 
ATOM     21  H2  <0> d          -3.277   3.258   0.731  0.00  0.00     0.033 H 
ATOM     22  H3  <0> d          -2.496   4.809   0.340  0.00  0.00     0.033 H 
ENDBRANCH   1  19
TORSDOF 3
