REMARK  3 active torsions:
REMARK  status: ('A' for Active; 'I' for Inactive)
REMARK    1  A    between atoms: C1_1  and  C2_2 
REMARK    2  A    between atoms: C2_2  and  N1_3 
REMARK       I    between atoms: N1_3  and  C3_4 
REMARK       I    between atoms: C3_4  and  N2_6 
REMARK    3  A    between atoms: C4_7  and  N6_11 
ROOT
ATOM      1  N1  <0> d          -3.397   2.710   0.030  0.00  0.00    -0.341 N 
ATOM      2  C3  <0> d          -2.415   1.787   0.021  0.00  0.00     0.360 C 
ATOM      3  O1  <0> d          -2.694   0.604   0.016  0.00  0.00    -0.244 OA
ATOM      4  N2  <0> d          -1.125   2.175   0.018  0.00  0.00     0.014 N 
ATOM      5  C4  <0> d          -0.017   1.377   0.010  0.00  0.00     0.746 A 
ATOM      6  N3  <0> d           1.029   2.174   0.004  0.00  0.00     0.065 NA
ATOM      7  N4  <0> d           0.659   3.403   0.014  0.00  0.00    -0.007 NA
ATOM      8  N5  <0> d          -0.627   3.490   0.026  0.00  0.00    -0.021 NA
ATOM      9  H6  <0> d          -3.175   3.654   0.035  0.00  0.00     0.164 HD
ENDROOT
BRANCH   1  10
ATOM     10  C2  <0> d          -4.800   2.288   0.034  0.00  0.00    -0.006 C 
ATOM     11  H4  <0> d          -5.003   1.696  -0.859  0.00  0.00     0.063 H 
ATOM     12  H5  <0> d          -4.996   1.686   0.921  0.00  0.00     0.063 H 
BRANCH  10  13
ATOM     13  C1  <0> d          -5.704   3.522   0.044  0.00  0.00    -0.061 C 
ATOM     14  H1  <0> d          -6.747   3.208   0.046  0.00  0.00     0.029 H 
ATOM     15  H2  <0> d          -5.500   4.114   0.937  0.00  0.00     0.029 H 
ATOM     16  H3  <0> d          -5.507   4.124  -0.843  0.00  0.00     0.029 H 
ENDBRANCH  10  13
ENDBRANCH   1  10
BRANCH   5  17
ATOM     17  N6  <0> d           0.002  -0.004   0.002  0.00  0.00    -0.229 N 
ATOM     18  H7  <0> d           0.849  -0.478  -0.008  0.00  0.00     0.174 HD
ATOM     19  H8  <0> d          -0.831  -0.500   0.007  0.00  0.00     0.174 HD
ENDBRANCH   5  17
TORSDOF 3
