REMARK  3 active torsions:
REMARK  status: ('A' for Active; 'I' for Inactive)
REMARK    1  A    between atoms: C1_1  and  O1_2 
REMARK    2  A    between atoms: O1_2  and  C2_3 
REMARK    3  A    between atoms: C4_5  and  C6_9 
ROOT
ATOM      1  C2  <0> d           1.242  -0.647  -0.013  0.00  0.00     0.167 A 
ATOM      2  C3  <0> d           0.002  -0.004   0.002  0.00  0.00     0.003 A 
ATOM      3  C4  <0> d          -0.017   1.387   0.010  0.00  0.00     0.138 A 
ATOM      4  N1  <0> d           1.141   2.049   0.002  0.00  0.00    -0.235 NA
ATOM      5  C5  <0> d           2.287   1.404  -0.012  0.00  0.00     0.090 A 
ATOM      6  N2  <0> d           2.347   0.086  -0.020  0.00  0.00    -0.218 NA
ATOM      7  H4  <0> d          -0.917  -0.571   0.008  0.00  0.00     0.094 H 
ATOM      8  H5  <0> d           3.206   1.970  -0.018  0.00  0.00     0.146 H 
ENDROOT
BRANCH   1   9
ATOM      9  O1  <0> d           1.314  -2.000  -0.022  0.00  0.00    -0.339 OA
BRANCH   9  10
ATOM     10  C1  <0> d           2.620  -2.580  -0.037  0.00  0.00     0.012 C 
ATOM     11  H1  <0> d           3.169  -2.263   0.850  0.00  0.00     0.067 H 
ATOM     12  H2  <0> d           2.535  -3.667  -0.043  0.00  0.00     0.067 H 
ATOM     13  H3  <0> d           3.152  -2.253  -0.930  0.00  0.00     0.067 H 
ENDBRANCH   9  10
ENDBRANCH   1   9
BRANCH   3  14
ATOM     14  C6  <0> d          -1.305   2.124   0.020  0.00  0.00     0.229 C 
ATOM     15  O2  <0> d          -2.353   1.512   0.021  0.00  0.00    -0.643 OA
ATOM     16  O3  <0> d          -1.311   3.470   0.027  0.00  0.00    -0.643 OA
ENDBRANCH   3  14
TORSDOF 3
