REMARK  0 active torsions:
REMARK  status: ('A' for Active; 'I' for Inactive)
ROOT
ATOM      1  C1  <0> d          -0.017   1.393   0.010  0.00  0.00    -0.028 A 
ATOM      2  C2  <0> d           1.195   2.066   0.002  0.00  0.00     0.006 A 
ATOM      3  N1  <0> d           2.319   1.369  -0.013  0.00  0.00    -0.254 NA
ATOM      4  C3  <0> d           2.303   0.050  -0.020  0.00  0.00     0.087 A 
ATOM      5  N2  <0> d           1.177  -0.631  -0.013  0.00  0.00    -0.231 NA
ATOM      6  C4  <0> d           0.002  -0.004   0.002  0.00  0.00     0.139 A 
ATOM      7  C5  <0> d          -1.221  -0.749   0.010  0.00  0.00     0.119 C 
ATOM      8  N3  <0> d          -2.191  -1.340   0.017  0.00  0.00    -0.190 NA
ATOM      9  H1  <0> d          -0.951   1.934   0.026  0.00  0.00     0.090 H 
ATOM     10  H2  <0> d           1.221   3.146   0.007  0.00  0.00     0.114 H 
ATOM     11  H3  <0> d           3.240  -0.486  -0.032  0.00  0.00     0.146 H 
ENDROOT
TORSDOF 0
