REMARK  2 active torsions:
REMARK  status: ('A' for Active; 'I' for Inactive)
REMARK    1  A    between atoms: C2_2  and  N2_9 
REMARK    2  A    between atoms: C6_6  and  N1_7 
ROOT
ATOM      1  C1  <0> d           0.002  -0.004   0.002  0.00  0.00    -0.032 A 
ATOM      2  C2  <0> d          -0.017   1.384   0.010  0.00  0.00     0.029 A 
ATOM      3  C3  <0> d           1.178   2.093   0.002  0.00  0.00    -0.037 A 
ATOM      4  C4  <0> d           2.384   1.418  -0.013  0.00  0.00     0.038 A 
ATOM      5  C5  <0> d           2.406   0.036  -0.021  0.00  0.00    -0.037 A 
ATOM      6  C6  <0> d           1.215  -0.679  -0.013  0.00  0.00     0.029 A 
ATOM      7 Cl1  <0> d           3.875   2.308  -0.024  0.00  0.00    -0.084 Cl
ATOM      8  H1  <0> d          -0.925  -0.558   0.008  0.00  0.00     0.090 H 
ATOM      9  H2  <0> d           1.164   3.173   0.008  0.00  0.00     0.089 H 
ATOM     10  H3  <0> d           3.350  -0.489  -0.033  0.00  0.00     0.089 H 
ENDROOT
BRANCH   2  11
ATOM     11  N2  <0> d          -1.235   2.066   0.019  0.00  0.00    -0.399 N 
ATOM     12  H6  <0> d          -2.069   1.570   0.020  0.00  0.00     0.156 HD
ATOM     13  H7  <0> d          -1.248   3.036   0.025  0.00  0.00     0.156 HD
ENDBRANCH   2  11
BRANCH   6  14
ATOM     14  N1  <0> d           1.237  -2.075  -0.021  0.00  0.00    -0.399 N 
ATOM     15  H4  <0> d           0.405  -2.574  -0.016  0.00  0.00     0.156 HD
ATOM     16  H5  <0> d           2.085  -2.547  -0.032  0.00  0.00     0.156 HD
ENDBRANCH   6  14
TORSDOF 2
