REMARK  2 active torsions:
REMARK  status: ('A' for Active; 'I' for Inactive)
REMARK    1  A    between atoms: C1_1  and  N1_2 
REMARK    2  A    between atoms: C5_6  and  N3_11 
ROOT
ATOM      1  N1  <0> d           3.708  -0.378  -0.035  0.00  0.00    -0.274 N 
ATOM      2  C2  <0> d           2.391   0.009  -0.020  0.00  0.00     0.064 A 
ATOM      3  C3  <0> d           1.184  -0.686  -0.013  0.00  0.00    -0.053 A 
ATOM      4  C4  <0> d           0.002  -0.004   0.002  0.00  0.00    -0.056 A 
ATOM      5  C5  <0> d          -0.017   1.391   0.010  0.00  0.00     0.026 A 
ATOM      6  C6  <0> d           1.165   2.104   0.002  0.00  0.00    -0.044 A 
ATOM      7  C7  <0> d           2.384   1.417  -0.013  0.00  0.00     0.013 A 
ATOM      8  C8  <0> d           3.782   1.835  -0.025  0.00  0.00     0.034 A 
ATOM      9  N2  <0> d           4.519   0.761  -0.037  0.00  0.00    -0.184 NA
ATOM     10  H4  <0> d           1.184  -1.766  -0.018  0.00  0.00     0.087 H 
ATOM     11  H5  <0> d          -0.929  -0.551   0.008  0.00  0.00     0.087 H 
ATOM     12  H6  <0> d           1.149   3.184   0.008  0.00  0.00     0.088 H 
ATOM     13  H7  <0> d           4.142   2.853  -0.022  0.00  0.00     0.118 H 
ENDROOT
BRANCH   1  14
ATOM     14  C1  <0> d           4.187  -1.763  -0.046  0.00  0.00     0.003 C 
ATOM     15  H1  <0> d           4.295  -2.102  -1.076  0.00  0.00     0.059 H 
ATOM     16  H2  <0> d           5.152  -1.818   0.458  0.00  0.00     0.059 H 
ATOM     17  H3  <0> d           3.469  -2.399   0.472  0.00  0.00     0.059 H 
ENDBRANCH   1  14
BRANCH   5  18
ATOM     18  N3  <0> d          -1.240   2.071   0.019  0.00  0.00    -0.399 N 
ATOM     19  H8  <0> d          -2.072   1.572   0.020  0.00  0.00     0.156 HD
ATOM     20  H9  <0> d          -1.256   3.041   0.025  0.00  0.00     0.156 HD
ENDBRANCH   5  18
TORSDOF 2
