REMARK  4 active torsions:
REMARK  status: ('A' for Active; 'I' for Inactive)
REMARK    1  A    between atoms: C1_1  and  O1_2 
REMARK    2  A    between atoms: O1_2  and  C2_3 
REMARK    3  A    between atoms: C5_7  and  O2_9 
REMARK    4  A    between atoms: O2_9  and  C6_10 
ROOT
ATOM      1  C2  <0> d          -3.895   1.210   2.613  0.00  0.00     0.208 A 
ATOM      2  C3  <0> d          -4.522   0.402   1.663  0.00  0.00     0.186 A 
ATOM      3  C4  <0> d          -3.796   0.003   0.555  0.00  0.00     0.048 A 
ATOM      4  N1  <0> d          -2.537   0.398   0.430  0.00  0.00    -0.216 NA
ATOM      5  C5  <0> d          -1.971   1.164   1.348  0.00  0.00     0.270 A 
ATOM      6  N2  <0> d          -2.629   1.562   2.424  0.00  0.00    -0.179 NA
ATOM      7  F1  <0> d          -5.807   0.018   1.823  0.00  0.00    -0.200 F 
ATOM      8  H4  <0> d          -4.250  -0.622  -0.199  0.00  0.00     0.119 H 
ENDROOT
BRANCH   1   9
ATOM      9  O1  <0> d          -4.567   1.625   3.714  0.00  0.00    -0.337 OA
BRANCH   9  10
ATOM     10  C1  <0> d          -3.854   2.450   4.638  0.00  0.00     0.012 C 
ATOM     11  H1  <0> d          -2.985   1.909   5.012  0.00  0.00     0.067 H 
ATOM     12  H2  <0> d          -3.526   3.360   4.134  0.00  0.00     0.067 H 
ATOM     13  H3  <0> d          -4.506   2.711   5.471  0.00  0.00     0.067 H 
ENDBRANCH   9  10
ENDBRANCH   1   9
BRANCH   5  14
ATOM     14  O2  <0> d          -0.682   1.547   1.184  0.00  0.00    -0.324 OA
BRANCH  14  15
ATOM     15  C6  <0> d          -0.013   1.086   0.008  0.00  0.00     0.013 C 
ATOM     16  H5  <0> d           0.002  -0.004   0.002  0.00  0.00     0.067 H 
ATOM     17  H6  <0> d           1.010   1.463   0.000  0.00  0.00     0.067 H 
ATOM     18  H7  <0> d          -0.540   1.447  -0.875  0.00  0.00     0.067 H 
ENDBRANCH  14  15
ENDBRANCH   5  14
TORSDOF 4
