REMARK  6 active torsions:
REMARK  status: ('A' for Active; 'I' for Inactive)
REMARK    1  A    between atoms: C1_1  and  C2_2 
REMARK    2  A    between atoms: C2_2  and  C3_3 
REMARK    3  A    between atoms: C2_2  and  C4_4 
REMARK    4  A    between atoms: C4_4  and  C5_5 
REMARK    5  A    between atoms: C4_4  and  C6_6 
REMARK    6  A    between atoms: C4_4  and  O2_9 
REMARK       I    between atoms: C6_6  and  N1_8 
ROOT
ATOM      1  C4  <0> d           0.003  -0.028   0.010  0.00  0.00     0.137 C 
ENDROOT
BRANCH   1   2
ATOM      2  C2  <0> d          -1.478  -0.414   0.030  0.00  0.00    -0.023 C 
ATOM      3  H4  <0> d          -1.995   0.090  -0.787  0.00  0.00     0.044 H 
BRANCH   2   4
ATOM      4  C1  <0> d          -1.613  -1.928  -0.138  0.00  0.00    -0.070 C 
ATOM      5  H1  <0> d          -1.095  -2.432   0.678  0.00  0.00     0.028 H 
ATOM      6  H2  <0> d          -2.668  -2.203  -0.124  0.00  0.00     0.028 H 
ATOM      7  H3  <0> d          -1.172  -2.229  -1.089  0.00  0.00     0.028 H 
ENDBRANCH   2   4
BRANCH   2   8
ATOM      8  C3  <0> d          -2.097   0.009   1.363  0.00  0.00    -0.070 C 
ATOM      9  H5  <0> d          -1.514  -0.410   2.184  0.00  0.00     0.028 H 
ATOM     10  H6  <0> d          -2.096   1.096   1.436  0.00  0.00     0.028 H 
ATOM     11  H7  <0> d          -3.121  -0.358   1.421  0.00  0.00     0.028 H 
ENDBRANCH   2   8
ENDBRANCH   1   2
BRANCH   1  12
ATOM     12  C5  <0> d           0.140   1.481   0.217  0.00  0.00    -0.039 C 
ATOM     13  H8  <0> d           1.195   1.756   0.203  0.00  0.00     0.032 H 
ATOM     14  H9  <0> d          -0.383   2.006  -0.583  0.00  0.00     0.032 H 
ATOM     15  H10 <0> d          -0.294   1.758   1.177  0.00  0.00     0.032 H 
ENDBRANCH   1  12
BRANCH   1  16
ATOM     16  C6  <0> d           0.604  -0.410  -1.318  0.00  0.00     0.250 C 
ATOM     17  O1  <0> d          -0.100  -0.488  -2.302  0.00  0.00    -0.270 OA
ATOM     18  N1  <0> d           1.924  -0.665  -1.412  0.00  0.00    -0.368 N 
ATOM     19  H11 <0> d           2.487  -0.604  -0.625  0.00  0.00     0.159 HD
ATOM     20  H12 <0> d           2.311  -0.911  -2.267  0.00  0.00     0.159 HD
ENDBRANCH   1  16
BRANCH   1  21
ATOM     21  O2  <0> d           0.688  -0.717   1.058  0.00  0.00    -0.380 OA
ATOM     22  H13 <0> d           0.643  -1.680   0.991  0.00  0.00     0.211 HD
ENDBRANCH   1  21
TORSDOF 6
