REMARK  2 active torsions:
REMARK  status: ('A' for Active; 'I' for Inactive)
REMARK    1  A    between atoms: C4_4  and  C7_7 
REMARK    2  A    between atoms: C9_12  and  N3_13 
ROOT
ATOM      1  C1  <0> d          -0.017   1.379   0.010  0.00  0.00    -0.083 A 
ATOM      2  C2  <0> d           1.169   2.092   0.002  0.00  0.00    -0.082 A 
ATOM      3  C3  <0> d           2.377   1.427  -0.013  0.00  0.00    -0.072 A 
ATOM      4  C4  <0> d           2.402   0.033  -0.021  0.00  0.00    -0.021 A 
ATOM      5  C5  <0> d           1.205  -0.680  -0.013  0.00  0.00    -0.072 A 
ATOM      6  C6  <0> d           0.002  -0.004   0.002  0.00  0.00    -0.082 A 
ATOM      7  H2  <0> d          -0.960   1.904   0.026  0.00  0.00     0.083 H 
ATOM      8  H3  <0> d           1.148   3.172   0.008  0.00  0.00     0.083 H 
ATOM      9  H4  <0> d           3.302   1.984  -0.020  0.00  0.00     0.084 H 
ATOM     10  H5  <0> d           1.218  -1.760  -0.019  0.00  0.00     0.084 H 
ATOM     11  H6  <0> d          -0.926  -0.556   0.008  0.00  0.00     0.083 H 
ENDROOT
BRANCH   4  12
ATOM     12  C7  <0> d           3.698  -0.688  -0.038  0.00  0.00     0.038 A 
ATOM     13  C9  <0> d           4.076  -1.718   0.806  0.00  0.00     0.128 A 
ATOM     14  N2  <0> d           5.326  -2.089   0.450  0.00  0.00    -0.263 N 
ATOM     15  N1  <0> d           5.736  -1.282  -0.618  0.00  0.00    -0.185 NA
ATOM     16  H1  <0> d           5.850  -2.792   0.866  0.00  0.00     0.191 HD
ATOM     17  C8  <0> d           4.776  -0.448  -0.913  0.00  0.00     0.036 A 
ATOM     18  H7  <0> d           4.803   0.297  -1.694  0.00  0.00     0.118 H 
BRANCH  13  19
ATOM     19  N3  <0> d           3.312  -2.268   1.826  0.00  0.00    -0.384 N 
ATOM     20  H8  <0> d           2.420  -1.930   2.001  0.00  0.00     0.157 HD
ATOM     21  H9  <0> d           3.671  -2.991   2.364  0.00  0.00     0.157 HD
ENDBRANCH  13  19
ENDBRANCH   4  12
TORSDOF 2
