REMARK  3 active torsions:
REMARK  status: ('A' for Active; 'I' for Inactive)
REMARK    1  A    between atoms: C1_1  and  N1_2 
REMARK       I    between atoms: N1_2  and  C2_3 
REMARK    2  A    between atoms: C2_3  and  O2_5 
REMARK    3  A    between atoms: O2_5  and  C3_6 
ROOT
ATOM      1  N1  <0> d           0.002  -0.004   0.002  0.00  0.00    -0.341 N 
ATOM      2  C2  <0> d          -0.016   1.344   0.009  0.00  0.00     0.359 C 
ATOM      3  O1  <0> d           1.028   1.965   0.003  0.00  0.00    -0.239 OA
ATOM      4  H4  <0> d          -0.831  -0.500   0.007  0.00  0.00     0.164 HD
ENDROOT
BRANCH   2   5
ATOM      5  O2  <0> d          -1.191   2.001   0.019  0.00  0.00    -0.309 OA
BRANCH   5   6
ATOM      6  C3  <0> d          -1.135   3.452   0.026  0.00  0.00     0.015 C 
ATOM      7  H5  <0> d          -0.603   3.790   0.915  0.00  0.00     0.067 H 
ATOM      8  H6  <0> d          -0.612   3.800  -0.864  0.00  0.00     0.067 H 
ATOM      9  H7  <0> d          -2.148   3.855   0.033  0.00  0.00     0.067 H 
ENDBRANCH   5   6
ENDBRANCH   2   5
BRANCH   1  10
ATOM     10  C1  <0> d           1.281  -0.719  -0.014  0.00  0.00    -0.016 C 
ATOM     11  H1  <0> d           1.840  -0.443  -0.908  0.00  0.00     0.056 H 
ATOM     12  H2  <0> d           1.857  -0.453   0.872  0.00  0.00     0.056 H 
ATOM     13  H3  <0> d           1.096  -1.794  -0.018  0.00  0.00     0.056 H 
ENDBRANCH   1  10
TORSDOF 3
