REMARK  0 active torsions:
REMARK  status: ('A' for Active; 'I' for Inactive)
ROOT
ATOM      1  C1  <0> d          -1.217   1.750   0.017  0.00  0.00    -0.065 A 
ATOM      2  C2  <0> d          -1.233   3.133   0.022  0.00  0.00    -0.073 A 
ATOM      3  C3  <0> d          -0.025   3.835   0.004  0.00  0.00    -0.022 A 
ATOM      4  C4  <0> d           1.143   3.071   0.003  0.00  0.00     0.099 A 
ATOM      5  N1  <0> d           1.122   1.752   0.001  0.00  0.00    -0.254 NA
ATOM      6  C5  <0> d          -0.013   1.076   0.008  0.00  0.00     0.003 A 
ATOM      7  S1  <0> d           2.497   4.225   0.017  0.00  0.00    -0.110 SA
ATOM      8  C6  <0> d           1.563   5.750   0.450  0.00  0.00    -0.014 C 
ATOM      9  C7  <0> d           0.152   5.332  -0.023  0.00  0.00    -0.030 C 
ATOM     10  H1  <0> d          -2.145   1.198   0.025  0.00  0.00     0.085 H 
ATOM     11  H2  <0> d          -2.172   3.667   0.034  0.00  0.00     0.084 H 
ATOM     12  H3  <0> d           0.002  -0.004   0.002  0.00  0.00     0.114 H 
ATOM     13  H4  <0> d           1.639   5.933   1.532  0.00  0.00     0.050 H 
ATOM     14  H5  <0> d           1.985   6.607  -0.097  0.00  0.00     0.050 H 
ATOM     15  H6  <0> d           0.009   5.699  -1.050  0.00  0.00     0.041 H 
ATOM     16  H7  <0> d          -0.588   5.800   0.641  0.00  0.00     0.041 H 
ENDROOT
TORSDOF 0
