REMARK  0 active torsions:
REMARK  status: ('A' for Active; 'I' for Inactive)
ROOT
ATOM      1  C1  <0> d          -0.018   1.490   0.010  0.00  0.00     0.079 A 
ATOM      2  C2  <0> d           0.002  -0.004   0.002  0.00  0.00     0.250 A 
ATOM      3  O1  <0> d          -1.012  -0.670   0.009  0.00  0.00    -0.271 OA
ATOM      4  N1  <0> d           1.226  -0.553  -0.013  0.00  0.00    -0.236 N 
ATOM      5  S1  <0> d           2.326   0.698  -0.016  0.00  0.00     0.321 S 
ATOM      6  O2  <0> d           3.013   0.661   1.227  0.00  0.00    -0.182 OA
ATOM      7  O3  <0> d           2.991   0.672  -1.272  0.00  0.00    -0.182 OA
ATOM      8  N2  <0> d           1.342   2.047   0.000  0.00  0.00    -0.294 N 
ATOM      9  H1  <0> d          -0.555   1.844  -0.870  0.00  0.00     0.079 H 
ATOM     10  H2  <0> d          -0.538   1.835   0.904  0.00  0.00     0.079 H 
ATOM     11  H3  <0> d           1.432  -1.501  -0.020  0.00  0.00     0.183 HD
ATOM     12  H4  <0> d           1.606   2.980   0.003  0.00  0.00     0.174 HD
ENDROOT
TORSDOF 0
