REMARK  1 active torsions:
REMARK  status: ('A' for Active; 'I' for Inactive)
REMARK    1  A    between atoms: C1_1  and  C2_2 
ROOT
ATOM      1  C2  <0> d           1.160   3.188   0.008  0.00  0.00    -0.038 A 
ATOM      2  C3  <0> d          -0.048   3.852   0.023  0.00  0.00    -0.038 A 
ATOM      3  C4  <0> d          -1.235   3.136   0.031  0.00  0.00     0.117 A 
ATOM      4  C5  <0> d          -1.215   1.750   0.017  0.00  0.00    -0.044 A 
ATOM      5  C6  <0> d          -0.013   1.076   0.008  0.00  0.00    -0.059 A 
ATOM      6  C7  <0> d           1.187   1.792   0.000  0.00  0.00     0.050 A 
ATOM      7  C8  <0> d           2.439   1.097  -0.016  0.00  0.00     0.100 C 
ATOM      8  N1  <0> d           3.432   0.546  -0.029  0.00  0.00    -0.191 NA
ATOM      9  F1  <0> d          -2.416   3.792   0.045  0.00  0.00    -0.206 F 
ATOM     10  H4  <0> d          -0.070   4.932   0.029  0.00  0.00     0.089 H 
ATOM     11  H5  <0> d          -2.143   1.197   0.018  0.00  0.00     0.088 H 
ATOM     12  H6  <0> d           0.002  -0.004   0.002  0.00  0.00     0.086 H 
ENDROOT
BRANCH   1  13
ATOM     13  C1  <0> d           2.450   3.968   0.001  0.00  0.00    -0.050 C 
ATOM     14  H1  <0> d           2.752   4.162  -1.029  0.00  0.00     0.033 H 
ATOM     15  H2  <0> d           2.305   4.915   0.521  0.00  0.00     0.033 H 
ATOM     16  H3  <0> d           3.226   3.392   0.504  0.00  0.00     0.033 H 
ENDBRANCH   1  13
TORSDOF 1
