REMARK  1 active torsions:
REMARK  status: ('A' for Active; 'I' for Inactive)
REMARK    1  A    between atoms: N2_11  and  N3_12 
ROOT
ATOM      1  C1  <0> d           1.179   1.781   0.000  0.00  0.00    -0.081 A 
ATOM      2  C2  <0> d          -0.013   1.076   0.008  0.00  0.00    -0.081 A 
ATOM      3  C3  <0> d          -1.220   1.747   0.017  0.00  0.00    -0.053 A 
ATOM      4  C4  <0> d          -1.238   3.134   0.031  0.00  0.00     0.082 A 
ATOM      5  C5  <0> d          -0.037   3.845   0.023  0.00  0.00     0.065 A 
ATOM      6  C6  <0> d           1.170   3.162   0.007  0.00  0.00    -0.055 A 
ATOM      7  N1  <0> d          -0.370   5.197   0.033  0.00  0.00    -0.305 N 
ATOM      8  H1  <0> d           0.258   5.937   0.031  0.00  0.00     0.171 HD
ATOM      9  C7  <0> d          -1.712   5.304   0.046  0.00  0.00     0.342 A 
ATOM     10  O1  <0> d          -2.332   6.351   0.058  0.00  0.00    -0.245 OA
ATOM     11  N2  <0> d          -2.264   4.076   0.045  0.00  0.00    -0.228 N 
ATOM     12  H2  <0> d           2.118   1.250  -0.011  0.00  0.00     0.083 H 
ATOM     13  H3  <0> d           0.002  -0.004   0.002  0.00  0.00     0.083 H 
ATOM     14  H4  <0> d          -2.147   1.193   0.018  0.00  0.00     0.087 H 
ATOM     15  H5  <0> d           2.101   3.709   0.002  0.00  0.00     0.087 H 
ENDROOT
BRANCH  11  16
ATOM     16  N3  <0> d          -3.602   3.800   0.057  0.00  0.00    -0.238 NA
ATOM     17  H6  <0> d          -4.146   4.650   0.067  0.00  0.00     0.143 HD
ATOM     18  H7  <0> d          -3.858   3.217  -0.725  0.00  0.00     0.143 HD
ENDBRANCH  11  16
TORSDOF 1
