REMARK  3 active torsions:
REMARK  status: ('A' for Active; 'I' for Inactive)
REMARK    1  A    between atoms: C1_1  and  C2_2 
REMARK    2  A    between atoms: C2_2  and  O1_3 
REMARK    3  A    between atoms: O1_3  and  C3_4 
ROOT
ATOM      1  C3  <0> d          -1.227   2.038   0.019  0.00  0.00     0.110 A 
ATOM      2  C4  <0> d          -1.193   3.429   0.031  0.00  0.00    -0.031 A 
ATOM      3  C5  <0> d           0.028   4.071   0.023  0.00  0.00     0.005 A 
ATOM      4  N1  <0> d           1.154   3.383   0.009  0.00  0.00    -0.270 NA
ATOM      5  C6  <0> d           1.165   2.064   0.002  0.00  0.00     0.042 A 
ATOM      6  C7  <0> d          -0.016   1.347   0.009  0.00  0.00     0.167 A 
ATOM      7  F1  <0> d           0.002  -0.004   0.002  0.00  0.00    -0.202 F 
ATOM      8  H6  <0> d          -2.111   3.999   0.043  0.00  0.00     0.090 H 
ATOM      9  H7  <0> d           0.063   5.150   0.028  0.00  0.00     0.114 H 
ATOM     10  H8  <0> d           2.108   1.538  -0.009  0.00  0.00     0.119 H 
ENDROOT
BRANCH   1  11
ATOM     11  O1  <0> d          -2.410   1.370   0.021  0.00  0.00    -0.348 OA
BRANCH  11  12
ATOM     12  C2  <0> d          -3.601   2.159   0.031  0.00  0.00     0.023 C 
ATOM     13  H4  <0> d          -3.615   2.784   0.924  0.00  0.00     0.074 H 
ATOM     14  H5  <0> d          -3.624   2.793  -0.856  0.00  0.00     0.074 H 
BRANCH  12  15
ATOM     15  C1  <0> d          -4.823   1.239   0.032  0.00  0.00    -0.056 C 
ATOM     16  H1  <0> d          -5.731   1.841   0.040  0.00  0.00     0.030 H 
ATOM     17  H2  <0> d          -4.808   0.615  -0.861  0.00  0.00     0.030 H 
ATOM     18  H3  <0> d          -4.800   0.606   0.919  0.00  0.00     0.030 H 
ENDBRANCH  12  15
ENDBRANCH  11  12
ENDBRANCH   1  11
TORSDOF 3
