REMARK  5 active torsions:
REMARK  status: ('A' for Active; 'I' for Inactive)
REMARK    1  A    between atoms: C1_1  and  C2_2 
REMARK    2  A    between atoms: C2_2  and  C3_3 
REMARK    3  A    between atoms: C3_3  and  C4_4 
REMARK    4  A    between atoms: C4_4  and  C5_5 
REMARK    5  A    between atoms: C10_11  and  O1_13 
ROOT
ATOM      1  C5  <0> d           0.739  -2.027  -1.265  0.00  0.00    -0.029 C 
ATOM      2  H1  <0> d           1.187  -2.390  -0.340  0.00  0.00     0.043 H 
ATOM      3  C6  <0> d          -0.692  -2.556  -1.380  0.00  0.00    -0.059 C 
ATOM      4  C7  <0> d          -0.671  -4.086  -1.389  0.00  0.00    -0.065 C 
ATOM      5  C8  <0> d           0.151  -4.578  -2.581  0.00  0.00    -0.063 C 
ATOM      6  C9  <0> d           1.583  -4.050  -2.466  0.00  0.00    -0.041 C 
ATOM      7  C10 <0> d           1.562  -2.520  -2.457  0.00  0.00     0.039 C 
ATOM      8  H2  <0> d           1.114  -2.157  -3.383  0.00  0.00     0.083 H 
ATOM      9  H12 <0> d          -1.278  -2.205  -0.531  0.00  0.00     0.033 H 
ATOM     10  H13 <0> d          -1.140  -2.194  -2.305  0.00  0.00     0.033 H 
ATOM     11  H14 <0> d          -0.223  -4.448  -0.463  0.00  0.00     0.033 H 
ATOM     12  H15 <0> d          -1.691  -4.463  -1.470  0.00  0.00     0.033 H 
ATOM     13  H16 <0> d           0.166  -5.668  -2.587  0.00  0.00     0.033 H 
ATOM     14  H17 <0> d          -0.297  -4.216  -3.506  0.00  0.00     0.033 H 
ATOM     15  H18 <0> d           2.031  -4.412  -1.541  0.00  0.00     0.036 H 
ATOM     16  H19 <0> d           2.169  -4.400  -3.315  0.00  0.00     0.036 H 
ENDROOT
BRANCH   1  17
ATOM     17  C4  <0> d           0.718  -0.497  -1.257  0.00  0.00    -0.059 C 
ATOM     18  H10 <0> d           0.191  -0.136  -2.140  0.00  0.00     0.033 H 
ATOM     19  H11 <0> d           1.741  -0.120  -1.264  0.00  0.00     0.033 H 
BRANCH  17  20
ATOM     20  C3  <0> d           0.002  -0.004   0.002  0.00  0.00    -0.065 C 
ATOM     21  H8  <0> d           0.529  -0.365   0.885  0.00  0.00     0.033 H 
ATOM     22  H9  <0> d          -1.020  -0.381   0.010  0.00  0.00     0.033 H 
BRANCH  20  23
ATOM     23  C2  <0> d          -0.019   1.526   0.010  0.00  0.00    -0.069 C 
ATOM     24  H6  <0> d           1.004   1.903   0.003  0.00  0.00     0.032 H 
ATOM     25  H7  <0> d          -0.546   1.887  -0.873  0.00  0.00     0.032 H 
BRANCH  23  26
ATOM     26  C1  <0> d          -0.735   2.019   1.269  0.00  0.00    -0.077 C 
ATOM     27  H3  <0> d          -1.757   1.642   1.277  0.00  0.00     0.027 H 
ATOM     28  H4  <0> d          -0.208   1.658   2.152  0.00  0.00     0.027 H 
ATOM     29  H5  <0> d          -0.750   3.109   1.275  0.00  0.00     0.027 H 
ENDBRANCH  23  26
ENDBRANCH  20  23
ENDBRANCH  17  20
ENDBRANCH   1  17
BRANCH   7  30
ATOM     30  O1  <0> d           2.898  -2.026  -2.350  0.00  0.00    -0.395 OA
ATOM     31  H20 <0> d           3.478  -2.299  -3.074  0.00  0.00     0.210 HD
ENDBRANCH   7  30
TORSDOF 5
