REMARK  3 active torsions:
REMARK  status: ('A' for Active; 'I' for Inactive)
REMARK    1  A    between atoms: C2_2  and  C3_3 
REMARK    2  A    between atoms: C3_3  and  O1_4 
REMARK    3  A    between atoms: O1_4  and  C4_5 
ROOT
ATOM      1  C1  <0> d           0.018  -1.178  -0.004  0.00  0.00    -0.152 C 
ATOM      2  C2  <0> d           0.002  -0.004   0.002  0.00  0.00    -0.091 C 
ATOM      3  H2  <0> d           0.032  -2.228  -0.010  0.00  0.00     0.166 H 
ENDROOT
BRANCH   2   4
ATOM      4  C3  <0> d          -0.018   1.468   0.010  0.00  0.00     0.076 C 
ATOM      5  H3  <0> d          -0.545   1.829  -0.873  0.00  0.00     0.094 H 
ATOM      6  H4  <0> d          -0.528   1.819   0.907  0.00  0.00     0.094 H 
BRANCH   4   7
ATOM      7  O1  <0> d           1.323   1.962  -0.000  0.00  0.00    -0.350 OA
BRANCH   7   8
ATOM      8  C4  <0> d           1.416   3.388   0.007  0.00  0.00     0.132 C 
ATOM      9  H1  <0> d           0.860   3.785   0.856  0.00  0.00     0.129 H 
ATOM     10  O2  <0> d           0.868   3.908  -1.206  0.00  0.00    -0.361 OA
ATOM     11  C8  <0> d           0.888   5.334  -1.292  0.00  0.00     0.023 C 
ATOM     12  C7  <0> d           2.337   5.827  -1.232  0.00  0.00    -0.045 C 
ATOM     13  H11 <0> d           0.437   5.648  -2.234  0.00  0.00     0.074 H 
ATOM     14  H12 <0> d           0.325   5.756  -0.460  0.00  0.00     0.074 H 
ATOM     15  C6  <0> d           2.982   5.331   0.066  0.00  0.00    -0.059 C 
ATOM     16  H9  <0> d           2.890   5.438  -2.086  0.00  0.00     0.036 H 
ATOM     17  H10 <0> d           2.352   6.917  -1.252  0.00  0.00     0.036 H 
ATOM     18  C5  <0> d           2.885   3.803   0.120  0.00  0.00    -0.019 C 
ATOM     19  H7  <0> d           4.030   5.631   0.090  0.00  0.00     0.033 H 
ATOM     20  H8  <0> d           2.460   5.761   0.921  0.00  0.00     0.033 H 
ATOM     21  H5  <0> d           3.293   3.446   1.066  0.00  0.00     0.040 H 
ATOM     22  H6  <0> d           3.450   3.373  -0.707  0.00  0.00     0.040 H 
ENDBRANCH   7   8
ENDBRANCH   4   7
ENDBRANCH   2   4
TORSDOF 3
