REMARK  2 active torsions:
REMARK  status: ('A' for Active; 'I' for Inactive)
REMARK    1  A    between atoms: C2_2  and  C4_7 
REMARK    2  A    between atoms: C3_5  and  N2_6 
ROOT
ATOM      1  C4  <0> d           1.240   4.814   0.016  0.00  0.00    -0.009 C 
ATOM      2  C5  <0> d           2.730   4.679  -0.343  0.00  0.00    -0.056 C 
ATOM      3  C6  <0> d           3.006   5.725   0.752  0.00  0.00    -0.064 C 
ATOM      4  C7  <0> d           1.697   5.264   1.414  0.00  0.00    -0.056 C 
ATOM      5  H4  <0> d           0.535   5.399  -0.593  0.00  0.00     0.049 H 
ATOM      6  H5  <0> d           3.052   3.639  -0.186  0.00  0.00     0.034 H 
ATOM      7  H6  <0> d           2.879   4.953  -1.398  0.00  0.00     0.034 H 
ATOM      8  H7  <0> d           3.964   5.497   1.243  0.00  0.00     0.033 H 
ATOM      9  H8  <0> d           3.055   6.726   0.299  0.00  0.00     0.033 H 
ATOM     10  H9  <0> d           0.998   6.019   1.803  0.00  0.00     0.034 H 
ATOM     11  H10 <0> d           1.714   4.397   2.091  0.00  0.00     0.034 H 
ENDROOT
BRANCH   1  12
ATOM     12  C2  <0> d           0.498   3.503   0.016  0.00  0.00     0.070 A 
ATOM     13  C1  <0> d           1.065   2.214   0.004  0.00  0.00    -0.006 A 
ATOM     14  C3  <0> d          -0.017   1.378   0.010  0.00  0.00     0.168 A 
ATOM     15  H1  <0> d           2.112   1.947  -0.007  0.00  0.00     0.093 H 
ATOM     16  O1  <0> d          -1.101   2.170   0.018  0.00  0.00    -0.196 OA
ATOM     17  N1  <0> d          -0.796   3.339   0.028  0.00  0.00    -0.131 NA
BRANCH  14  18
ATOM     18  N2  <0> d           0.002  -0.004   0.002  0.00  0.00    -0.378 N 
ATOM     19  H2  <0> d          -0.943  -0.567   0.008  0.00  0.00     0.158 HD
ATOM     20  H3  <0> d           0.962  -0.541  -0.010  0.00  0.00     0.158 HD
ENDBRANCH  14  18
ENDBRANCH   1  12
TORSDOF 2
