REMARK  0 active torsions:
REMARK  status: ('A' for Active; 'I' for Inactive)
ROOT
ATOM      1  C1  <0> d           2.232   0.792   0.586  0.00  0.00    -0.064 C 
ATOM      2  C2  <0> d           1.486  -0.425  -0.014  0.00  0.00    -0.064 C 
ATOM      3  C3  <0> d           0.002  -0.004   0.002  0.00  0.00    -0.050 C 
ATOM      4  C4  <0> d          -0.019   1.534   0.011  0.00  0.00     0.030 C 
ATOM      5  C5  <0> d           1.453   1.995  -0.001  0.00  0.00    -0.050 C 
ATOM      6  C6  <0> d          -0.714   2.036  -1.187  0.00  0.00     0.064 C 
ATOM      7  N1  <0> d          -1.250   2.423  -2.110  0.00  0.00    -0.197 NA
ATOM      8  H1  <0> d           2.169   0.786   1.675  0.00  0.00     0.033 H 
ATOM      9  H2  <0> d           3.272   0.808   0.259  0.00  0.00     0.033 H 
ATOM     10  H3  <0> d           1.639  -1.309   0.604  0.00  0.00     0.033 H 
ATOM     11  H4  <0> d           1.819  -0.610  -1.036  0.00  0.00     0.033 H 
ATOM     12  H5  <0> d          -0.485  -0.389   0.898  0.00  0.00     0.035 H 
ATOM     13  H6  <0> d          -0.502  -0.379  -0.888  0.00  0.00     0.035 H 
ATOM     14  H7  <0> d          -0.516   1.896   0.910  0.00  0.00     0.062 H 
ATOM     15  H8  <0> d           1.781   2.201  -1.020  0.00  0.00     0.035 H 
ATOM     16  H9  <0> d           1.582   2.877   0.627  0.00  0.00     0.035 H 
ENDROOT
TORSDOF 0
