REMARK  8 active torsions:
REMARK  status: ('A' for Active; 'I' for Inactive)
REMARK    1  A    between atoms: C1_1  and  C2_2 
REMARK    2  A    between atoms: C2_2  and  C3_3 
REMARK    3  A    between atoms: C3_3  and  C4_4 
REMARK    4  A    between atoms: C3_3  and  C5_5 
REMARK    5  A    between atoms: C3_3  and  O1_9 
REMARK    6  A    between atoms: C5_5  and  C6_6 
REMARK    7  A    between atoms: C6_6  and  C7_7 
REMARK    8  A    between atoms: C6_6  and  C8_8 
ROOT
ATOM      1  C3  <0> d          -0.160   1.719   2.424  0.00  0.00     0.054 C 
ENDROOT
BRANCH   1   2
ATOM      2  C2  <0> d          -1.083   2.304   3.495  0.00  0.00    -0.040 C 
ATOM      3  H4  <0> d          -1.245   3.363   3.296  0.00  0.00     0.036 H 
ATOM      4  H5  <0> d          -2.038   1.780   3.477  0.00  0.00     0.036 H 
BRANCH   2   5
ATOM      5  C1  <0> d          -0.436   2.137   4.872  0.00  0.00    -0.074 C 
ATOM      6  H1  <0> d          -0.274   1.078   5.071  0.00  0.00     0.027 H 
ATOM      7  H2  <0> d           0.519   2.661   4.890  0.00  0.00     0.027 H 
ATOM      8  H3  <0> d          -1.094   2.554   5.635  0.00  0.00     0.027 H 
ENDBRANCH   2   5
ENDBRANCH   1   2
BRANCH   1   9
ATOM      9  C4  <0> d           0.068   0.232   2.704  0.00  0.00    -0.048 C 
ATOM     10  H6  <0> d           0.726  -0.185   1.941  0.00  0.00     0.031 H 
ATOM     11  H7  <0> d           0.529   0.113   3.685  0.00  0.00     0.031 H 
ATOM     12  H8  <0> d          -0.888  -0.292   2.686  0.00  0.00     0.031 H 
ENDBRANCH   1   9
BRANCH   1  13
ATOM     13  C5  <0> d          -0.806   1.885   1.048  0.00  0.00    -0.034 C 
ATOM     14  H9  <0> d          -0.879   2.946   0.806  0.00  0.00     0.037 H 
ATOM     15  H10 <0> d          -1.804   1.447   1.059  0.00  0.00     0.037 H 
BRANCH  13  16
ATOM     16  C6  <0> d           0.049   1.179  -0.006  0.00  0.00    -0.059 C 
ATOM     17  H11 <0> d           0.210   0.143   0.291  0.00  0.00     0.039 H 
BRANCH  16  18
ATOM     18  C7  <0> d           1.398   1.890  -0.128  0.00  0.00    -0.073 C 
ATOM     19  H12 <0> d           1.979   1.725   0.780  0.00  0.00     0.028 H 
ATOM     20  H13 <0> d           1.942   1.493  -0.985  0.00  0.00     0.028 H 
ATOM     21  H14 <0> d           1.235   2.959  -0.265  0.00  0.00     0.028 H 
ENDBRANCH  16  18
BRANCH  16  22
ATOM     22  C8  <0> d          -0.671   1.217  -1.356  0.00  0.00    -0.073 C 
ATOM     23  H15 <0> d          -0.061   0.714  -2.107  0.00  0.00     0.028 H 
ATOM     24  H16 <0> d          -1.632   0.710  -1.269  0.00  0.00     0.028 H 
ATOM     25  H17 <0> d          -0.832   2.253  -1.653  0.00  0.00     0.028 H 
ENDBRANCH  16  22
ENDBRANCH  13  16
ENDBRANCH   1  13
BRANCH   1  26
ATOM     26  O1  <0> d           1.093   2.406   2.448  0.00  0.00    -0.390 OA
ATOM     27  H18 <0> d           1.025   3.355   2.278  0.00  0.00     0.210 HD
ENDBRANCH   1  26
TORSDOF 8
