REMARK  1 active torsions:
REMARK  status: ('A' for Active; 'I' for Inactive)
REMARK    1  A    between atoms: C2_2  and  C3_3 
ROOT
ATOM      1  C3  <0> d           1.221  -0.686  -0.013  0.00  0.00    -0.037 A 
ATOM      2  C4  <0> d           0.002  -0.004   0.002  0.00  0.00    -0.072 A 
ATOM      3  C5  <0> d          -0.017   1.372   0.010  0.00  0.00    -0.062 A 
ATOM      4  C6  <0> d           1.185   2.087   0.002  0.00  0.00     0.044 A 
ATOM      5  C7  <0> d           2.404   1.404  -0.013  0.00  0.00    -0.062 A 
ATOM      6  C8  <0> d           2.422   0.028  -0.021  0.00  0.00    -0.072 A 
ATOM      7  C9  <0> d           1.166   3.519   0.009  0.00  0.00     0.099 C 
ATOM      8  N1  <0> d           1.151   4.655   0.015  0.00  0.00    -0.191 NA
ATOM      9  H4  <0> d          -0.926  -0.557   0.008  0.00  0.00     0.084 H 
ATOM     10  H5  <0> d          -0.959   1.899   0.017  0.00  0.00     0.085 H 
ATOM     11  H6  <0> d           3.332   1.956  -0.019  0.00  0.00     0.085 H 
ATOM     12  H7  <0> d           3.364  -0.500  -0.032  0.00  0.00     0.084 H 
ENDROOT
BRANCH   1  13
ATOM     13  C2  <0> d           1.241  -2.163  -0.020  0.00  0.00    -0.082 C 
ATOM     14  C1  <0> d           2.398  -2.811  -0.034  0.00  0.00    -0.120 C 
ATOM     15  H1  <0> d           2.413  -3.891  -0.039  0.00  0.00     0.066 H 
ATOM     16  H2  <0> d           3.326  -2.259  -0.040  0.00  0.00     0.066 H 
ATOM     17  H3  <0> d           0.313  -2.715  -0.014  0.00  0.00     0.083 H 
ENDBRANCH   1  13
TORSDOF 1
