REMARK  4 active torsions:
REMARK  status: ('A' for Active; 'I' for Inactive)
REMARK    1  A    between atoms: C1_1  and  C2_2 
REMARK    2  A    between atoms: C2_2  and  C3_4 
REMARK    3  A    between atoms: C2_2  and  O2_11 
REMARK    4  A    between atoms: C7_8  and  O1_10 
ROOT
ATOM      1  C3  <0> d           1.176   1.782   0.000  0.00  0.00    -0.027 A 
ATOM      2  C4  <0> d          -0.013   1.076   0.008  0.00  0.00    -0.074 A 
ATOM      3  C5  <0> d          -1.220   1.750   0.017  0.00  0.00    -0.080 A 
ATOM      4  C6  <0> d          -1.241   3.131   0.031  0.00  0.00    -0.051 A 
ATOM      5  C7  <0> d          -0.050   3.842   0.024  0.00  0.00     0.066 A 
ATOM      6  C8  <0> d           1.160   3.163   0.008  0.00  0.00    -0.043 A 
ATOM      7  H5  <0> d           0.002  -0.004   0.002  0.00  0.00     0.084 H 
ATOM      8  H6  <0> d          -2.147   1.196   0.018  0.00  0.00     0.083 H 
ATOM      9  H7  <0> d          -2.184   3.657   0.043  0.00  0.00     0.087 H 
ATOM     10  H8  <0> d           2.089   3.715   0.003  0.00  0.00     0.088 H 
ENDROOT
BRANCH   1  11
ATOM     11  C2  <0> d           2.490   1.045  -0.016  0.00  0.00     0.057 C 
ATOM     12  H1  <0> d           3.276   1.711  -0.371  0.00  0.00     0.089 H 
BRANCH  11  13
ATOM     13  C1  <0> d           2.826   0.569   1.399  0.00  0.00    -0.049 C 
ATOM     14  H2  <0> d           2.901   1.430   2.063  0.00  0.00     0.031 H 
ATOM     15  H3  <0> d           2.040  -0.097   1.754  0.00  0.00     0.031 H 
ATOM     16  H4  <0> d           3.776   0.036   1.387  0.00  0.00     0.031 H 
ENDBRANCH  11  13
BRANCH  11  17
ATOM     17  O2  <0> d           2.392  -0.084  -0.887  0.00  0.00    -0.391 OA
ATOM     18  H10 <0> d           3.204  -0.606  -0.947  0.00  0.00     0.210 HD
ENDBRANCH  11  17
ENDBRANCH   1  11
BRANCH   5  19
ATOM     19  O1  <0> d          -0.069   5.201   0.031  0.00  0.00    -0.361 OA
ATOM     20  H9  <0> d          -0.082   5.599  -0.850  0.00  0.00     0.217 HD
ENDBRANCH   5  19
TORSDOF 4
