REMARK  3 active torsions:
REMARK  status: ('A' for Active; 'I' for Inactive)
REMARK    1  A    between atoms: C1_1  and  C2_2 
REMARK    2  A    between atoms: C5_5  and  C8_9 
REMARK    3  A    between atoms: C6_6  and  N1_8 
ROOT
ATOM      1  C8  <0> d          -0.018   1.468   0.010  0.00  0.00     0.041 C 
ATOM      2  C9  <0> d           0.002  -0.004   0.002  0.00  0.00     0.063 C 
ATOM      3  N2  <0> d           0.018  -1.140  -0.004  0.00  0.00    -0.197 NA
ATOM      4  H9  <0> d          -0.545   1.829  -0.873  0.00  0.00     0.062 H 
ATOM      5  H10 <0> d          -0.528   1.819   0.907  0.00  0.00     0.062 H 
ENDROOT
BRANCH   1   6
ATOM      6  C5  <0> d           1.396   1.989  -0.001  0.00  0.00    -0.019 A 
ATOM      7  C4  <0> d           2.020   2.320   1.187  0.00  0.00    -0.073 A 
ATOM      8  C3  <0> d           3.317   2.798   1.178  0.00  0.00    -0.077 A 
ATOM      9  H5  <0> d           1.494   2.205   2.123  0.00  0.00     0.084 H 
ATOM     10  C2  <0> d           3.995   2.946  -0.019  0.00  0.00    -0.060 A 
ATOM     11  H4  <0> d           3.803   3.055   2.107  0.00  0.00     0.084 H 
ATOM     12  C7  <0> d           3.377   2.618  -1.209  0.00  0.00    -0.051 A 
ATOM     13  C6  <0> d           2.075   2.133  -1.204  0.00  0.00     0.033 A 
ATOM     14  H6  <0> d           3.906   2.734  -2.143  0.00  0.00     0.087 H 
BRANCH  10  15
ATOM     15  C1  <0> d           5.409   3.466  -0.024  0.00  0.00    -0.051 C 
ATOM     16  H1  <0> d           6.104   2.631   0.056  0.00  0.00     0.033 H 
ATOM     17  H2  <0> d           5.595   4.006  -0.953  0.00  0.00     0.033 H 
ATOM     18  H3  <0> d           5.552   4.139   0.822  0.00  0.00     0.033 H 
ENDBRANCH  10  15
BRANCH  13  19
ATOM     19  N1  <0> d           1.449   1.794  -2.405  0.00  0.00    -0.399 N 
ATOM     20  H7  <0> d           0.539   1.459  -2.401  0.00  0.00     0.156 HD
ATOM     21  H8  <0> d           1.924   1.895  -3.245  0.00  0.00     0.156 HD
ENDBRANCH  13  19
ENDBRANCH   1   6
TORSDOF 3
