REMARK  3 active torsions:
REMARK  status: ('A' for Active; 'I' for Inactive)
REMARK    1  A    between atoms: C4_6  and  C5_8 
REMARK    2  A    between atoms: C5_8  and  C6_9 
REMARK    3  A    between atoms: C6_9  and  C7_10 
ROOT
ATOM      1  C1  <0> d          -2.171   5.853  -0.043  0.00  0.00    -0.033 C 
ATOM      2  C2  <0> d          -3.125   6.388   1.050  0.00  0.00     0.030 C 
ATOM      3  O1  <0> d          -3.246   5.286   1.997  0.00  0.00    -0.321 OA
ATOM      4  C3  <0> d          -3.121   4.114   1.354  0.00  0.00     0.263 C 
ATOM      5  O2  <0> d          -3.517   3.048   1.764  0.00  0.00    -0.265 OA
ATOM      6  C4  <0> d          -2.407   4.329   0.037  0.00  0.00     0.033 C 
ATOM      7  H1  <0> d          -3.033   3.997  -0.792  0.00  0.00     0.055 H 
ATOM      8  H2  <0> d          -1.135   6.099   0.191  0.00  0.00     0.037 H 
ATOM      9  H3  <0> d          -2.450   6.238  -1.024  0.00  0.00     0.037 H 
ATOM     10  H4  <0> d          -2.693   7.263   1.536  0.00  0.00     0.075 H 
ATOM     11  H5  <0> d          -4.097   6.630   0.621  0.00  0.00     0.075 H 
ENDROOT
BRANCH   6  12
ATOM     12  C5  <0> d          -1.072   3.582   0.027  0.00  0.00    -0.044 C 
ATOM     13  H6  <0> d          -0.500   3.848   0.915  0.00  0.00     0.035 H 
ATOM     14  H7  <0> d          -0.508   3.857  -0.865  0.00  0.00     0.035 H 
BRANCH  12  15
ATOM     15  C6  <0> d          -1.331   2.074   0.020  0.00  0.00     0.017 C 
ATOM     16  H8  <0> d          -1.903   1.808  -0.869  0.00  0.00     0.049 H 
ATOM     17  H9  <0> d          -1.895   1.798   0.911  0.00  0.00     0.049 H 
BRANCH  15  18
ATOM     18  C7  <0> d          -0.016   1.338   0.009  0.00  0.00     0.172 C 
ATOM     19  O3  <0> d           1.022   1.956   0.003  0.00  0.00    -0.648 OA
ATOM     20  O4  <0> d           0.002  -0.004   0.002  0.00  0.00    -0.648 OA
ENDBRANCH  15  18
ENDBRANCH  12  15
ENDBRANCH   6  12
TORSDOF 3
