REMARK  9 active torsions:
REMARK  status: ('A' for Active; 'I' for Inactive)
REMARK    1  A    between atoms: C1_1  and  C2_2 
REMARK    2  A    between atoms: C2_2  and  C3_3 
REMARK    3  A    between atoms: C3_3  and  C4_4 
REMARK    4  A    between atoms: C4_4  and  C5_5 
REMARK    5  A    between atoms: C5_5  and  C6_7 
REMARK    6  A    between atoms: C5_5  and  O2_12 
REMARK    7  A    between atoms: C6_7  and  C7_8 
REMARK    8  A    between atoms: C7_8  and  C8_10 
REMARK    9  A    between atoms: C7_8  and  O1_11 
ROOT
ATOM      1  C5  <0> d           1.397   3.581  -0.118  0.00  0.00     0.038 C 
ATOM      2  H1  <0> d           0.785   3.999   0.682  0.00  0.00     0.083 H 
ENDROOT
BRANCH   1   3
ATOM      3  C4  <0> d           2.824   4.120  -0.003  0.00  0.00    -0.041 C 
ATOM      4  H10 <0> d           3.275   3.761   0.922  0.00  0.00     0.036 H 
ATOM      5  H11 <0> d           3.413   3.773  -0.853  0.00  0.00     0.036 H 
BRANCH   3   6
ATOM      6  C3  <0> d           2.792   5.649   0.004  0.00  0.00    -0.063 C 
ATOM      7  H8  <0> d           2.341   6.008  -0.921  0.00  0.00     0.033 H 
ATOM      8  H9  <0> d           2.204   5.996   0.854  0.00  0.00     0.033 H 
BRANCH   6   9
ATOM      9  C2  <0> d           4.220   6.189   0.119  0.00  0.00    -0.068 C 
ATOM     10  H6  <0> d           4.670   5.830   1.044  0.00  0.00     0.032 H 
ATOM     11  H7  <0> d           4.808   5.842  -0.731  0.00  0.00     0.032 H 
BRANCH   9  12
ATOM     12  C1  <0> d           4.188   7.718   0.127  0.00  0.00    -0.077 C 
ATOM     13  H3  <0> d           3.737   8.077  -0.798  0.00  0.00     0.027 H 
ATOM     14  H4  <0> d           3.599   8.065   0.976  0.00  0.00     0.027 H 
ATOM     15  H5  <0> d           5.205   8.102   0.208  0.00  0.00     0.027 H 
ENDBRANCH   9  12
ENDBRANCH   6   9
ENDBRANCH   3   6
ENDBRANCH   1   3
BRANCH   1  16
ATOM     16  C6  <0> d           1.417   2.055  -0.000  0.00  0.00    -0.018 C 
ATOM     17  H12 <0> d           1.917   1.769   0.925  0.00  0.00     0.040 H 
ATOM     18  H13 <0> d           1.954   1.633  -0.850  0.00  0.00     0.040 H 
BRANCH  16  19
ATOM     19  C7  <0> d          -0.019   1.526   0.010  0.00  0.00     0.034 C 
ATOM     20  H2  <0> d          -0.546   1.887  -0.873  0.00  0.00     0.082 H 
BRANCH  19  21
ATOM     21  C8  <0> d           0.002  -0.004   0.002  0.00  0.00    -0.052 C 
ATOM     22  H14 <0> d           0.529  -0.365   0.885  0.00  0.00     0.030 H 
ATOM     23  H15 <0> d          -1.020  -0.381   0.010  0.00  0.00     0.030 H 
ATOM     24  H16 <0> d           0.512  -0.356  -0.895  0.00  0.00     0.030 H 
ENDBRANCH  19  21
BRANCH  19  25
ATOM     25  O1  <0> d          -0.688   1.987   1.186  0.00  0.00    -0.396 OA
ATOM     26  H17 <0> d          -0.272   1.702   2.012  0.00  0.00     0.210 HD
ENDBRANCH  19  25
ENDBRANCH  16  19
ENDBRANCH   1  16
BRANCH   1  27
ATOM     27  O2  <0> d           0.846   3.954  -1.383  0.00  0.00    -0.395 OA
ATOM     28  H18 <0> d           1.341   3.616  -2.142  0.00  0.00     0.210 HD
ENDBRANCH   1  27
TORSDOF 9
