REMARK  3 active torsions:
REMARK  status: ('A' for Active; 'I' for Inactive)
REMARK    1  A    between atoms: C1_1  and  O1_2 
REMARK    2  A    between atoms: O1_2  and  C2_3 
REMARK    3  A    between atoms: C3_4  and  O3_11 
ROOT
ATOM      1  C2  <0> d           1.123  -0.863  -0.013  0.00  0.00     0.151 A 
ATOM      2  C3  <0> d           2.469  -0.516  -0.024  0.00  0.00     0.103 A 
ATOM      3  C4  <0> d           3.036   0.763  -0.022  0.00  0.00    -0.048 A 
ATOM      4  C5  <0> d           2.404   1.986  -0.010  0.00  0.00    -0.080 A 
ATOM      5  C6  <0> d           1.039   2.269   0.004  0.00  0.00    -0.079 A 
ATOM      6  C7  <0> d          -0.017   1.403   0.010  0.00  0.00    -0.032 A 
ATOM      7  C8  <0> d           0.002  -0.004   0.002  0.00  0.00     0.207 A 
ATOM      8  O2  <0> d          -1.092  -0.554   0.009  0.00  0.00    -0.285 OA
ATOM      9  H4  <0> d           4.115   0.795  -0.033  0.00  0.00     0.087 H 
ATOM     10  H5  <0> d           3.056   2.846  -0.011  0.00  0.00     0.083 H 
ATOM     11  H6  <0> d           0.781   3.317   0.012  0.00  0.00     0.083 H 
ATOM     12  H7  <0> d          -0.996   1.858   0.017  0.00  0.00     0.089 H 
ENDROOT
BRANCH   1  13
ATOM     13  O1  <0> d           0.853  -2.192  -0.018  0.00  0.00    -0.350 OA
BRANCH  13  14
ATOM     14  C1  <0> d           0.712  -2.820  -1.294  0.00  0.00     0.011 C 
ATOM     15  H1  <0> d          -0.107  -2.353  -1.841  0.00  0.00     0.067 H 
ATOM     16  H2  <0> d           1.637  -2.707  -1.859  0.00  0.00     0.067 H 
ATOM     17  H3  <0> d           0.498  -3.880  -1.155  0.00  0.00     0.067 H 
ENDBRANCH  13  14
ENDBRANCH   1  13
BRANCH   2  18
ATOM     18  O3  <0> d           3.346  -1.550  -0.038  0.00  0.00    -0.358 OA
ATOM     19  H8  <0> d           3.592  -1.846  -0.925  0.00  0.00     0.217 HD
ENDBRANCH   2  18
TORSDOF 3
