REMARK  2 active torsions:
REMARK  status: ('A' for Active; 'I' for Inactive)
REMARK    1  A    between atoms: C2_2  and  C3_3 
REMARK    2  A    between atoms: C2_2  and  C5_5 
ROOT
ATOM      1  C3  <0> d          -1.228  -0.737   0.010  0.00  0.00    -0.083 C 
ATOM      2  C4  <0> d          -2.237  -1.338   0.016  0.00  0.00    -0.149 C 
ATOM      3  H3  <0> d          -3.139  -1.875   0.022  0.00  0.00     0.166 H 
ENDROOT
BRANCH   1   4
ATOM      4  C2  <0> d           0.002  -0.004   0.002  0.00  0.00    -0.011 C 
ATOM      5  C1  <0> d          -0.016   1.325   0.009  0.00  0.00    -0.107 C 
ATOM      6  H1  <0> d           0.912   1.877   0.003  0.00  0.00     0.068 H 
ATOM      7  H2  <0> d          -0.959   1.852   0.017  0.00  0.00     0.068 H 
BRANCH   4   8
ATOM      8  C5  <0> d           1.317  -0.740  -0.015  0.00  0.00    -0.022 C 
ATOM      9  C10 <0> d           1.422  -1.625   1.229  0.00  0.00    -0.057 C 
ATOM     10  C9  <0> d           2.757  -2.372   1.212  0.00  0.00    -0.064 C 
ATOM     11  H13 <0> d           1.364  -1.004   2.123  0.00  0.00     0.034 H 
ATOM     12  H14 <0> d           0.603  -2.344   1.233  0.00  0.00     0.034 H 
ATOM     13  C8  <0> d           2.838  -3.243  -0.043  0.00  0.00    -0.065 C 
ATOM     14  H11 <0> d           2.832  -3.002   2.098  0.00  0.00     0.033 H 
ATOM     15  H12 <0> d           3.576  -1.652   1.208  0.00  0.00     0.033 H 
ATOM     16  C7  <0> d           2.733  -2.358  -1.286  0.00  0.00    -0.064 C 
ATOM     17  H9  <0> d           2.020  -3.963  -0.038  0.00  0.00     0.033 H 
ATOM     18  H10 <0> d           3.790  -3.776  -0.054  0.00  0.00     0.033 H 
ATOM     19  C6  <0> d           1.398  -1.611  -1.269  0.00  0.00    -0.057 C 
ATOM     20  H7  <0> d           2.791  -2.979  -2.180  0.00  0.00     0.033 H 
ATOM     21  H8  <0> d           3.552  -1.639  -1.290  0.00  0.00     0.033 H 
ATOM     22  H5  <0> d           0.580  -2.331  -1.265  0.00  0.00     0.034 H 
ATOM     23  H6  <0> d           1.323  -0.981  -2.155  0.00  0.00     0.034 H 
ATOM     24  H4  <0> d           2.136  -0.020  -0.018  0.00  0.00     0.048 H 
ENDBRANCH   4   8
ENDBRANCH   1   4
TORSDOF 2
