REMARK  2 active torsions:
REMARK  status: ('A' for Active; 'I' for Inactive)
REMARK    1  A    between atoms: C1_1  and  O1_2 
REMARK    2  A    between atoms: O1_2  and  C2_3 
ROOT
ATOM      1  C2  <0> d          -0.855   3.281   0.028  0.00  0.00     0.075 A 
ATOM      2  C3  <0> d          -1.078   1.915   0.017  0.00  0.00    -0.044 A 
ATOM      3  C4  <0> d          -0.013   1.076   0.008  0.00  0.00    -0.042 A 
ATOM      4  S1  <0> d           1.359   2.218   0.001  0.00  0.00    -0.111 SA
ATOM      5  C5  <0> d           0.423   3.738   0.018  0.00  0.00    -0.013 A 
ATOM      6  H4  <0> d          -2.084   1.523   0.018  0.00  0.00     0.088 H 
ATOM      7  H5  <0> d           0.002  -0.004   0.002  0.00  0.00     0.095 H 
ATOM      8  H6  <0> d           0.781   4.757   0.020  0.00  0.00     0.099 H 
ENDROOT
BRANCH   1   9
ATOM      9  O1  <0> d          -1.902   4.153   0.043  0.00  0.00    -0.355 OA
BRANCH   9  10
ATOM     10  C1  <0> d          -1.585   5.547   0.047  0.00  0.00     0.010 C 
ATOM     11  H1  <0> d          -2.507   6.129   0.060  0.00  0.00     0.066 H 
ATOM     12  H2  <0> d          -0.995   5.782   0.933  0.00  0.00     0.066 H 
ATOM     13  H3  <0> d          -1.013   5.792  -0.847  0.00  0.00     0.066 H 
ENDBRANCH   9  10
ENDBRANCH   1   9
TORSDOF 2
