REMARK  0 active torsions:
REMARK  status: ('A' for Active; 'I' for Inactive)
ROOT
ATOM      1  C1  <0> d          -0.013   1.076   0.008  0.00  0.00    -0.007 A 
ATOM      2  C2  <0> d           1.179   1.783   0.000  0.00  0.00     0.122 A 
ATOM      3  C3  <0> d           1.170   3.169   0.007  0.00  0.00    -0.007 A 
ATOM      4  C4  <0> d          -0.028   3.856   0.021  0.00  0.00     0.143 A 
ATOM      5  C5  <0> d          -1.236   3.148   0.029  0.00  0.00     0.121 A 
ATOM      6  C6  <0> d          -1.219   1.748   0.017  0.00  0.00     0.143 A 
ATOM      7  F1  <0> d          -2.380   1.057   0.019  0.00  0.00    -0.204 F 
ATOM      8  C7  <0> d          -2.482   3.852   0.044  0.00  0.00     0.105 C 
ATOM      9  N1  <0> d          -3.471   4.411   0.057  0.00  0.00    -0.191 NA
ATOM     10  F2  <0> d          -0.035   5.207   0.028  0.00  0.00    -0.204 F 
ATOM     11  F3  <0> d           2.355   1.119  -0.014  0.00  0.00    -0.206 F 
ATOM     12  H1  <0> d           0.002  -0.004   0.002  0.00  0.00     0.093 H 
ATOM     13  H2  <0> d           2.103   3.714   0.001  0.00  0.00     0.093 H 
ENDROOT
TORSDOF 0
