REMARK  1 active torsions:
REMARK  status: ('A' for Active; 'I' for Inactive)
REMARK    1  A    between atoms: C3_3  and  N3_7 
ROOT
ATOM      1  C1  <0> d          -0.013   1.076   0.008  0.00  0.00    -0.061 A 
ATOM      2  C2  <0> d          -1.210   1.773   0.017  0.00  0.00    -0.036 A 
ATOM      3  C3  <0> d          -1.155   3.166   0.029  0.00  0.00     0.143 A 
ATOM      4  N1  <0> d           0.022   3.776   0.022  0.00  0.00    -0.133 NA
ATOM      5  N2  <0> d           1.127   3.124   0.008  0.00  0.00    -0.161 NA
ATOM      6  C4  <0> d           1.167   1.806   0.001  0.00  0.00     0.024 A 
ATOM      7  H1  <0> d           0.002  -0.004   0.002  0.00  0.00     0.086 H 
ATOM      8  H2  <0> d          -2.157   1.254   0.019  0.00  0.00     0.089 H 
ATOM      9  H3  <0> d           2.119   1.295  -0.011  0.00  0.00     0.117 H 
ENDROOT
BRANCH   3  10
ATOM     10  N3  <0> d          -2.328   3.912   0.043  0.00  0.00    -0.383 N 
ATOM     11  H4  <0> d          -2.287   4.881   0.048  0.00  0.00     0.157 HD
ATOM     12  H5  <0> d          -3.188   3.464   0.049  0.00  0.00     0.157 HD
ENDBRANCH   3  10
TORSDOF 1
