REMARK  1 active torsions:
REMARK  status: ('A' for Active; 'I' for Inactive)
REMARK    1  A    between atoms: C5_8  and  O2_9 
ROOT
ATOM      1  C1  <0> d          -0.013   1.076   0.008  0.00  0.00    -0.023 A 
ATOM      2  C2  <0> d          -1.233   1.769   0.017  0.00  0.00     0.052 A 
ATOM      3  C3  <0> d          -1.242   3.122   0.030  0.00  0.00     0.001 A 
ATOM      4  N1  <0> d          -0.078   3.826   0.022  0.00  0.00    -0.330 N 
ATOM      5  H1  <0> d          -0.104   4.796   0.028  0.00  0.00     0.168 HD
ATOM      6  C4  <0> d           1.110   3.192   0.008  0.00  0.00     0.278 A 
ATOM      7  O1  <0> d           2.146   3.838   0.001  0.00  0.00    -0.265 OA
ATOM      8  C5  <0> d           1.157   1.783   0.001  0.00  0.00     0.135 A 
ATOM      9 Cl1  <0> d          -2.730   0.890   0.020  0.00  0.00    -0.083 Cl
ATOM     10  H2  <0> d           0.002  -0.004   0.002  0.00  0.00     0.090 H 
ATOM     11  H3  <0> d          -2.185   3.649   0.041  0.00  0.00     0.114 H 
ENDROOT
BRANCH   8  12
ATOM     12  O2  <0> d           2.352   1.134  -0.014  0.00  0.00    -0.356 OA
ATOM     13  H4  <0> d           3.119   1.723  -0.018  0.00  0.00     0.218 HD
ENDBRANCH   8  12
TORSDOF 1
