REMARK  2 active torsions:
REMARK  status: ('A' for Active; 'I' for Inactive)
REMARK    1  A    between atoms: C1_1  and  C2_2 
REMARK    2  A    between atoms: C5_5  and  C7_8 
ROOT
ATOM      1  C2  <0> d           0.002  -0.004   0.002  0.00  0.00    -0.044 A 
ATOM      2  C3  <0> d          -0.017   1.382   0.010  0.00  0.00    -0.073 A 
ATOM      3  C4  <0> d           1.192   2.060   0.002  0.00  0.00    -0.048 A 
ATOM      4  C5  <0> d           2.378   1.328  -0.013  0.00  0.00     0.132 A 
ATOM      5  N1  <0> d           2.352   0.001  -0.020  0.00  0.00    -0.254 NA
ATOM      6  C6  <0> d           1.219  -0.667  -0.013  0.00  0.00     0.009 A 
ATOM      7  H4  <0> d          -0.952   1.922   0.017  0.00  0.00     0.084 H 
ATOM      8  H5  <0> d           1.215   3.139   0.007  0.00  0.00     0.087 H 
ATOM      9  H6  <0> d           1.237  -1.747  -0.019  0.00  0.00     0.115 H 
ENDROOT
BRANCH   1  10
ATOM     10  C1  <0> d          -1.288  -0.782   0.010  0.00  0.00    -0.050 C 
ATOM     11  H1  <0> d          -1.609  -0.965  -1.016  0.00  0.00     0.033 H 
ATOM     12  H2  <0> d          -1.135  -1.735   0.517  0.00  0.00     0.033 H 
ATOM     13  H3  <0> d          -2.054  -0.211   0.534  0.00  0.00     0.033 H 
ENDBRANCH   1  10
BRANCH   4  14
ATOM     14  C7  <0> d           3.678   2.037  -0.022  0.00  0.00     0.228 C 
ATOM     15  O1  <0> d           3.708   3.251  -0.015  0.00  0.00    -0.643 OA
ATOM     16  O2  <0> d           4.827   1.335  -0.036  0.00  0.00    -0.643 OA
ENDBRANCH   4  14
TORSDOF 2
