REMARK  3 active torsions:
REMARK  status: ('A' for Active; 'I' for Inactive)
REMARK    1  A    between atoms: C1_1  and  C2_2 
REMARK    2  A    between atoms: C3_3  and  C6_9 
REMARK    3  A    between atoms: C4_6  and  C5_7 
ROOT
ATOM      1  C2  <0> d          -0.927   2.860   1.606  0.00  0.00     0.007 A 
ATOM      2  C3  <0> d          -0.718   1.572   1.248  0.00  0.00     0.083 A 
ATOM      3  O1  <0> d          -1.255   0.812   2.213  0.00  0.00    -0.217 OA
ATOM      4  N1  <0> d          -1.755   1.482   3.087  0.00  0.00    -0.121 NA
ATOM      5  C4  <0> d          -1.629   2.762   2.840  0.00  0.00     0.169 A 
ENDROOT
BRANCH   1   6
ATOM      6  C1  <0> d          -0.516   4.107   0.868  0.00  0.00    -0.046 C 
ATOM      7  H1  <0> d          -1.310   4.404   0.183  0.00  0.00     0.033 H 
ATOM      8  H2  <0> d          -0.334   4.910   1.583  0.00  0.00     0.033 H 
ATOM      9  H3  <0> d           0.396   3.911   0.303  0.00  0.00     0.033 H 
ENDBRANCH   1   6
BRANCH   5  10
ATOM     10  C5  <0> d          -2.114   3.883   3.680  0.00  0.00     0.231 C 
ATOM     11  O2  <0> d          -1.927   5.030   3.329  0.00  0.00    -0.643 OA
ATOM     12  O3  <0> d          -2.762   3.629   4.833  0.00  0.00    -0.643 OA
ENDBRANCH   5  10
BRANCH   2  13
ATOM     13  C6  <0> d          -0.013   1.086   0.008  0.00  0.00    -0.029 C 
ATOM     14  H4  <0> d           0.002  -0.004   0.002  0.00  0.00     0.036 H 
ATOM     15  H5  <0> d           1.010   1.463   0.000  0.00  0.00     0.036 H 
ATOM     16  H6  <0> d          -0.540   1.447  -0.875  0.00  0.00     0.036 H 
ENDBRANCH   2  13
TORSDOF 3
