REMARK  4 active torsions:
REMARK  status: ('A' for Active; 'I' for Inactive)
REMARK    1  A    between atoms: C1_1  and  C2_2 
REMARK    2  A    between atoms: C2_2  and  C3_3 
REMARK    3  A    between atoms: C2_2  and  C4_4 
REMARK    4  A    between atoms: C5_7  and  N3_9 
ROOT
ATOM      1  C2  <0> d          -0.729   1.579   1.267  0.00  0.00     0.005 C 
ATOM      2  H4  <0> d          -0.736   2.679   1.286  0.00  0.00     0.051 H 
ENDROOT
BRANCH   1   3
ATOM      3  C1  <0> d          -0.013   1.086   0.008  0.00  0.00    -0.066 C 
ATOM      4  H1  <0> d           1.019   1.466   0.000  0.00  0.00     0.028 H 
ATOM      5  H2  <0> d          -0.545   1.450  -0.883  0.00  0.00     0.028 H 
ATOM      6  H3  <0> d           0.002  -0.014   0.002  0.00  0.00     0.028 H 
ENDBRANCH   1   3
BRANCH   1   7
ATOM      7  C3  <0> d          -2.164   1.050   1.278  0.00  0.00    -0.066 C 
ATOM      8  H5  <0> d          -2.679   1.405   2.183  0.00  0.00     0.028 H 
ATOM      9  H6  <0> d          -2.149  -0.050   1.272  0.00  0.00     0.028 H 
ATOM     10  H7  <0> d          -2.696   1.414   0.387  0.00  0.00     0.028 H 
ENDBRANCH   1   7
BRANCH   1  11
ATOM     11  C4  <0> d           0.000   1.080   2.488  0.00  0.00     0.174 A 
ATOM     12  O1  <0> d           0.555   1.842   3.450  0.00  0.00    -0.260 OA
ATOM     13  C5  <0> d           1.096   0.990   4.342  0.00  0.00     0.265 A 
ATOM     14  N2  <0> d           0.861  -0.225   3.910  0.00  0.00    -0.103 NA
ATOM     15  N1  <0> d           0.203  -0.165   2.806  0.00  0.00    -0.125 NA
BRANCH  13  16
ATOM     16  N3  <0> d           1.772   1.334   5.497  0.00  0.00    -0.362 N 
ATOM     17  H8  <0> d           1.910   2.393   5.760  0.00  0.00     0.159 HD
ATOM     18  H9  <0> d           2.173   0.547   6.154  0.00  0.00     0.159 HD
ENDBRANCH  13  16
ENDBRANCH   1  11
TORSDOF 4
