REMARK  8 active torsions:
REMARK  status: ('A' for Active; 'I' for Inactive)
REMARK    1  A    between atoms: C1_1  and  C2_2 
REMARK    2  A    between atoms: C2_2  and  C3_4 
REMARK    3  A    between atoms: C2_2  and  O2_10 
REMARK    4  A    between atoms: C3_4  and  C4_5 
REMARK    5  A    between atoms: C4_5  and  C5_6 
REMARK    6  A    between atoms: C4_5  and  C6_7 
REMARK    7  A    between atoms: C4_5  and  O1_8 
REMARK    8  A    between atoms: O1_8  and  C7_9 
ROOT
ATOM      1  C4  <0> d           2.131   0.905   1.152  0.00  0.00     0.055 C 
ENDROOT
BRANCH   1   2
ATOM      2  C3  <0> d           1.430   1.628   0.000  0.00  0.00    -0.013 C 
ATOM      3  H5  <0> d           1.344   2.688   0.236  0.00  0.00     0.041 H 
ATOM      4  H6  <0> d           0.436   1.205  -0.142  0.00  0.00     0.041 H 
BRANCH   2   5
ATOM      5  C2  <0> d           2.247   1.455  -1.282  0.00  0.00     0.035 C 
ATOM      6  H1  <0> d           3.271   1.786  -1.109  0.00  0.00     0.082 H 
BRANCH   5   7
ATOM      7  C1  <0> d           1.623   2.292  -2.401  0.00  0.00    -0.052 C 
ATOM      8  H2  <0> d           1.621   3.343  -2.110  0.00  0.00     0.030 H 
ATOM      9  H3  <0> d           2.204   2.169  -3.314  0.00  0.00     0.030 H 
ATOM     10  H4  <0> d           0.599   1.961  -2.574  0.00  0.00     0.030 H 
ENDBRANCH   5   7
BRANCH   5  11
ATOM     11  O2  <0> d           2.249   0.077  -1.663  0.00  0.00    -0.396 OA
ATOM     12  H16 <0> d           1.369  -0.285  -1.834  0.00  0.00     0.210 HD
ENDBRANCH   5  11
ENDBRANCH   2   5
ENDBRANCH   1   2
BRANCH   1  13
ATOM     13  C5  <0> d           3.530   1.492   1.348  0.00  0.00    -0.048 C 
ATOM     14  H7  <0> d           3.449   2.554   1.581  0.00  0.00     0.031 H 
ATOM     15  H8  <0> d           4.029   0.977   2.168  0.00  0.00     0.031 H 
ATOM     16  H9  <0> d           4.109   1.365   0.433  0.00  0.00     0.031 H 
ENDBRANCH   1  13
BRANCH   1  17
ATOM     17  C6  <0> d           1.318   1.084   2.436  0.00  0.00    -0.048 C 
ATOM     18  H10 <0> d           0.358   0.579   2.332  0.00  0.00     0.031 H 
ATOM     19  H11 <0> d           1.866   0.654   3.275  0.00  0.00     0.031 H 
ATOM     20  H12 <0> d           1.152   2.146   2.616  0.00  0.00     0.031 H 
ENDBRANCH   1  17
BRANCH   1  21
ATOM     21  O1  <0> d           2.238  -0.487   0.846  0.00  0.00    -0.386 OA
BRANCH  21  22
ATOM     22  C7  <0> d           2.881  -1.258   1.863  0.00  0.00     0.005 C 
ATOM     23  H13 <0> d           3.893  -0.884   2.017  0.00  0.00     0.066 H 
ATOM     24  H14 <0> d           2.317  -1.175   2.793  0.00  0.00     0.066 H 
ATOM     25  H15 <0> d           2.922  -2.303   1.555  0.00  0.00     0.066 H 
ENDBRANCH  21  22
ENDBRANCH   1  21
TORSDOF 8
