REMARK  1 active torsions:
REMARK  status: ('A' for Active; 'I' for Inactive)
REMARK       I    between atoms: N2_4  and  C4_6 
REMARK    1  A    between atoms: C4_6  and  C5_8 
ROOT
ATOM      1  C1  <0> d          -3.865   0.289   2.447  0.00  0.00    -0.047 A 
ATOM      2  C2  <0> d          -3.219  -0.846   1.936  0.00  0.00     0.024 A 
ATOM      3  N1  <0> d          -2.162  -0.456   1.274  0.00  0.00    -0.178 NA
ATOM      4  N2  <0> d          -2.088   0.941   1.346  0.00  0.00    -0.213 N 
ATOM      5  C3  <0> d          -3.155   1.376   2.074  0.00  0.00     0.009 A 
ATOM      6  C4  <0> d          -1.137   1.716   0.789  0.00  0.00     0.248 C 
ATOM      7  O1  <0> d          -1.185   2.917   0.916  0.00  0.00    -0.271 OA
ATOM      8  H1  <0> d          -4.770   0.293   3.036  0.00  0.00     0.087 H 
ATOM      9  H2  <0> d          -3.543  -1.868   2.064  0.00  0.00     0.117 H 
ATOM     10  H3  <0> d          -3.391   2.404   2.310  0.00  0.00     0.115 H 
ENDROOT
BRANCH   6  11
ATOM     11  C5  <0> d          -0.013   1.086   0.008  0.00  0.00     0.026 A 
ATOM     12  C7  <0> d           1.335   1.811  -0.001  0.00  0.00    -0.053 A 
ATOM     13  C6  <0> d           0.460   1.806  -1.256  0.00  0.00    -0.053 A 
ATOM     14  H7  <0> d           1.408   2.744   0.558  0.00  0.00     0.034 H 
ATOM     15  H8  <0> d           2.236   1.198  -0.013  0.00  0.00     0.034 H 
ATOM     16  H5  <0> d           0.786   1.189  -2.094  0.00  0.00     0.034 H 
ATOM     17  H6  <0> d          -0.042   2.736  -1.524  0.00  0.00     0.034 H 
ATOM     18  H4  <0> d           0.002  -0.004   0.002  0.00  0.00     0.054 H 
ENDBRANCH   6  11
TORSDOF 1
