REMARK  8 active torsions:
REMARK  status: ('A' for Active; 'I' for Inactive)
REMARK    1  A    between atoms: C1_1  and  C2_2 
REMARK    2  A    between atoms: C2_2  and  C3_3 
REMARK    3  A    between atoms: C3_3  and  C4_4 
REMARK    4  A    between atoms: C4_4  and  C5_5 
REMARK    5  A    between atoms: C5_5  and  C6_7 
REMARK    6  A    between atoms: C5_5  and  C8_9 
REMARK    7  A    between atoms: C6_7  and  C7_8 
REMARK    8  A    between atoms: C8_9  and  C9_10 
ROOT
ATOM      1  C5  <0> d          -2.096   0.949   1.239  0.00  0.00    -0.045 C 
ATOM      2  H1  <0> d          -2.442   1.183   0.232  0.00  0.00     0.040 H 
ENDROOT
BRANCH   1   3
ATOM      3  C4  <0> d          -3.085   1.512   2.262  0.00  0.00    -0.061 C 
ATOM      4  H9  <0> d          -4.042   1.001   2.161  0.00  0.00     0.033 H 
ATOM      5  H10 <0> d          -2.695   1.356   3.268  0.00  0.00     0.033 H 
BRANCH   3   6
ATOM      6  C3  <0> d          -3.277   3.009   2.016  0.00  0.00    -0.065 C 
ATOM      7  H7  <0> d          -2.320   3.520   2.117  0.00  0.00     0.033 H 
ATOM      8  H8  <0> d          -3.667   3.165   1.010  0.00  0.00     0.033 H 
BRANCH   6   9
ATOM      9  C2  <0> d          -4.266   3.572   3.039  0.00  0.00    -0.069 C 
ATOM     10  H5  <0> d          -5.224   3.061   2.937  0.00  0.00     0.032 H 
ATOM     11  H6  <0> d          -3.876   3.416   4.045  0.00  0.00     0.032 H 
BRANCH   9  12
ATOM     12  C1  <0> d          -4.459   5.069   2.792  0.00  0.00    -0.077 C 
ATOM     13  H2  <0> d          -4.849   5.225   1.786  0.00  0.00     0.027 H 
ATOM     14  H3  <0> d          -5.163   5.470   3.521  0.00  0.00     0.027 H 
ATOM     15  H4  <0> d          -3.501   5.580   2.893  0.00  0.00     0.027 H 
ENDBRANCH   9  12
ENDBRANCH   6   9
ENDBRANCH   3   6
ENDBRANCH   1   3
BRANCH   1  16
ATOM     16  C6  <0> d          -0.719   1.577   1.463  0.00  0.00    -0.065 C 
ATOM     17  H11 <0> d          -0.783   2.656   1.323  0.00  0.00     0.033 H 
ATOM     18  H12 <0> d          -0.009   1.160   0.749  0.00  0.00     0.033 H 
BRANCH  16  19
ATOM     19  C7  <0> d          -0.246   1.275   2.887  0.00  0.00    -0.076 C 
ATOM     20  H13 <0> d          -0.952   1.699   3.601  0.00  0.00     0.027 H 
ATOM     21  H14 <0> d           0.739   1.715   3.043  0.00  0.00     0.027 H 
ATOM     22  H15 <0> d          -0.189   0.196   3.029  0.00  0.00     0.027 H 
ENDBRANCH  16  19
ENDBRANCH   1  16
BRANCH   1  23
ATOM     23  C8  <0> d          -1.998  -0.569   1.405  0.00  0.00     0.019 C 
ATOM     24  H16 <0> d          -1.544  -0.800   2.369  0.00  0.00     0.049 H 
ATOM     25  H17 <0> d          -2.996  -1.004   1.360  0.00  0.00     0.049 H 
BRANCH  23  26
ATOM     26  C9  <0> d          -1.149  -1.141   0.299  0.00  0.00     0.172 C 
ATOM     27  O1  <0> d          -0.765  -0.429  -0.598  0.00  0.00    -0.648 OA
ATOM     28  O2  <0> d          -0.821  -2.442   0.311  0.00  0.00    -0.648 OA
ENDBRANCH  23  26
ENDBRANCH   1  23
TORSDOF 8
