REMARK  7 active torsions:
REMARK  status: ('A' for Active; 'I' for Inactive)
REMARK    1  A    between atoms: C1_1  and  C2_2 
REMARK    2  A    between atoms: C2_2  and  C3_3 
REMARK    3  A    between atoms: C3_3  and  C4_4 
REMARK    4  A    between atoms: C4_4  and  C5_5 
REMARK    5  A    between atoms: C5_5  and  C6_7 
REMARK    6  A    between atoms: C5_5  and  C8_9 
REMARK    7  A    between atoms: C6_7  and  C7_8 
ROOT
ATOM      1  C4  <0> d           0.763  -2.041   1.233  0.00  0.00    -0.052 C 
ATOM      2  H9  <0> d          -0.260  -2.418   1.241  0.00  0.00     0.034 H 
ATOM      3  H10 <0> d           1.273  -2.392   0.336  0.00  0.00     0.034 H 
ENDROOT
BRANCH   1   4
ATOM      4  C3  <0> d           0.742  -0.511   1.242  0.00  0.00    -0.065 C 
ATOM      5  H7  <0> d           1.765  -0.134   1.234  0.00  0.00     0.033 H 
ATOM      6  H8  <0> d           0.232  -0.159   2.138  0.00  0.00     0.033 H 
BRANCH   4   7
ATOM      7  C2  <0> d           0.002  -0.004   0.002  0.00  0.00    -0.069 C 
ATOM      8  H5  <0> d          -1.020  -0.381   0.010  0.00  0.00     0.032 H 
ATOM      9  H6  <0> d           0.512  -0.356  -0.895  0.00  0.00     0.032 H 
BRANCH   7  10
ATOM     10  C1  <0> d          -0.019   1.526   0.010  0.00  0.00    -0.077 C 
ATOM     11  H2  <0> d           1.004   1.903   0.003  0.00  0.00     0.027 H 
ATOM     12  H3  <0> d          -0.546   1.887  -0.873  0.00  0.00     0.027 H 
ATOM     13  H4  <0> d          -0.529   1.877   0.907  0.00  0.00     0.027 H 
ENDBRANCH   7  10
ENDBRANCH   4   7
ENDBRANCH   1   4
BRANCH   1  14
ATOM     14  C5  <0> d           1.503  -2.548   2.473  0.00  0.00     0.030 C 
ATOM     15  H1  <0> d           1.046  -2.124   3.367  0.00  0.00     0.056 H 
BRANCH  14  16
ATOM     16  C6  <0> d           1.416  -4.074   2.530  0.00  0.00    -0.056 C 
ATOM     17  H11 <0> d           0.371  -4.380   2.492  0.00  0.00     0.033 H 
ATOM     18  H12 <0> d           1.950  -4.500   1.681  0.00  0.00     0.033 H 
BRANCH  16  19
ATOM     19  C7  <0> d           2.047  -4.572   3.832  0.00  0.00    -0.076 C 
ATOM     20  H13 <0> d           3.092  -4.266   3.869  0.00  0.00     0.027 H 
ATOM     21  H14 <0> d           1.513  -4.146   4.681  0.00  0.00     0.027 H 
ATOM     22  H15 <0> d           1.985  -5.660   3.872  0.00  0.00     0.027 H 
ENDBRANCH  16  19
ENDBRANCH  14  16
BRANCH  14  23
ATOM     23  C8  <0> d           2.949  -2.129   2.401  0.00  0.00     0.176 C 
ATOM     24  O1  <0> d           3.422  -1.421   3.273  0.00  0.00    -0.648 OA
ATOM     25  O2  <0> d           3.645  -2.498   1.470  0.00  0.00    -0.648 OA
ENDBRANCH  14  23
ENDBRANCH   1  14
TORSDOF 7
