REMARK  4 active torsions:
REMARK  status: ('A' for Active; 'I' for Inactive)
REMARK    1  A    between atoms: C1_1  and  C2_2 
REMARK    2  A    between atoms: C3_5  and  C4_8 
REMARK    3  A    between atoms: C4_8  and  C5_9 
REMARK    4  A    between atoms: C5_9  and  C6_10 
ROOT
ATOM      1  C2  <0> d           1.053   0.976   4.376  0.00  0.00     0.144 A 
ATOM      2  N1  <0> d           0.469   1.837   3.509  0.00  0.00    -0.217 NA
ATOM      3  H1  <0> d          -0.004  -0.962   2.065  0.00  0.00     0.190 HD
ATOM      4  C3  <0> d          -0.013   1.078   2.495  0.00  0.00     0.122 A 
ATOM      5  N2  <0> d           0.289  -0.163   2.762  0.00  0.00    -0.263 N 
ATOM      6  N3  <0> d           0.923  -0.224   3.879  0.00  0.00    -0.158 NA
ENDROOT
BRANCH   4   7
ATOM      7  C4  <0> d          -0.751   1.577   1.279  0.00  0.00     0.000 C 
ATOM      8  H5  <0> d          -0.769   2.676   1.286  0.00  0.00     0.045 H 
ATOM      9  H6  <0> d          -1.782   1.193   1.294  0.00  0.00     0.045 H 
BRANCH   7  10
ATOM     10  C5  <0> d          -0.042   1.086   0.015  0.00  0.00     0.022 C 
ATOM     11  H7  <0> d           0.989   1.470   0.001  0.00  0.00     0.049 H 
ATOM     12  H8  <0> d          -0.024  -0.014   0.008  0.00  0.00     0.049 H 
BRANCH  10  13
ATOM     13  C6  <0> d          -0.780   1.584  -1.200  0.00  0.00     0.172 C 
ATOM     14  O1  <0> d          -1.772   2.262  -1.069  0.00  0.00    -0.648 OA
ATOM     15  O2  <0> d          -0.337   1.275  -2.429  0.00  0.00    -0.648 OA
ENDBRANCH  10  13
ENDBRANCH   7  10
ENDBRANCH   4   7
BRANCH   1  16
ATOM     16  C1  <0> d           1.729   1.337   5.674  0.00  0.00    -0.018 C 
ATOM     17  H2  <0> d           2.107   0.423   6.157  0.00  0.00     0.038 H 
ATOM     18  H3  <0> d           1.006   1.831   6.339  0.00  0.00     0.038 H 
ATOM     19  H4  <0> d           2.568   2.019   5.473  0.00  0.00     0.038 H 
ENDBRANCH   1  16
TORSDOF 4
