REMARK  2 active torsions:
REMARK  status: ('A' for Active; 'I' for Inactive)
REMARK    1  A    between atoms: C1_1  and  C2_2 
REMARK    2  A    between atoms: C2_2  and  C3_4 
ROOT
ATOM      1  C3  <0> d          -1.293  -0.775   0.010  0.00  0.00     0.007 C 
ATOM      2  C4  <0> d          -1.778  -0.947   1.453  0.00  0.00    -0.035 C 
ATOM      3  C5  <0> d          -3.050  -1.798   1.458  0.00  0.00     0.020 C 
ATOM      4  O2  <0> d          -2.781  -3.058   0.840  0.00  0.00    -0.391 OA
ATOM      5  C6  <0> d          -2.369  -2.962  -0.525  0.00  0.00     0.020 C 
ATOM      6  C7  <0> d          -1.069  -2.158  -0.609  0.00  0.00    -0.035 C 
ATOM      7  H4  <0> d          -2.043  -0.234  -0.566  0.00  0.00     0.051 H 
ATOM      8  H5  <0> d          -1.005  -1.443   2.040  0.00  0.00     0.037 H 
ATOM      9  H6  <0> d          -1.992   0.031   1.884  0.00  0.00     0.037 H 
ATOM     10  H7  <0> d          -3.376  -1.959   2.485  0.00  0.00     0.074 H 
ATOM     11  H8  <0> d          -3.835  -1.282   0.904  0.00  0.00     0.074 H 
ATOM     12  H9  <0> d          -2.204  -3.963  -0.926  0.00  0.00     0.074 H 
ATOM     13  H10 <0> d          -3.145  -2.462  -1.105  0.00  0.00     0.074 H 
ATOM     14  H11 <0> d          -0.777  -2.047  -1.653  0.00  0.00     0.037 H 
ATOM     15  H12 <0> d          -0.283  -2.679  -0.064  0.00  0.00     0.037 H 
ENDROOT
BRANCH   1  16
ATOM     16  C2  <0> d           0.002  -0.004   0.002  0.00  0.00     0.127 C 
ATOM     17  O1  <0> d           1.056  -0.594  -0.011  0.00  0.00    -0.298 OA
BRANCH  16  18
ATOM     18  C1  <0> d          -0.018   1.503   0.010  0.00  0.00    -0.021 C 
ATOM     19  H1  <0> d           1.004   1.880   0.003  0.00  0.00     0.037 H 
ATOM     20  H2  <0> d          -0.545   1.864  -0.873  0.00  0.00     0.037 H 
ATOM     21  H3  <0> d          -0.529   1.854   0.907  0.00  0.00     0.037 H 
ENDBRANCH  16  18
ENDBRANCH   1  16
TORSDOF 2
