REMARK  4 active torsions:
REMARK  status: ('A' for Active; 'I' for Inactive)
REMARK    1  A    between atoms: C1_1  and  C2_2 
REMARK    2  A    between atoms: C2_2  and  C3_3 
REMARK    3  A    between atoms: C3_3  and  O2_5 
REMARK    4  A    between atoms: O2_5  and  C4_6 
ROOT
ATOM      1  C3  <0> d           0.002  -0.004   0.002  0.00  0.00     0.265 C 
ATOM      2  O1  <0> d           1.060  -0.596  -0.011  0.00  0.00    -0.265 OA
ENDROOT
BRANCH   1   3
ATOM      3  C2  <0> d          -1.293  -0.775   0.010  0.00  0.00     0.013 C 
ATOM      4  H4  <0> d          -1.859  -0.524   0.907  0.00  0.00     0.047 H 
ATOM      5  H5  <0> d          -1.876  -0.515  -0.873  0.00  0.00     0.047 H 
BRANCH   3   6
ATOM      6  C1  <0> d          -0.993  -2.276  -0.001  0.00  0.00    -0.068 C 
ATOM      7  H1  <0> d          -0.409  -2.536   0.882  0.00  0.00     0.028 H 
ATOM      8  H2  <0> d          -1.929  -2.833   0.005  0.00  0.00     0.028 H 
ATOM      9  H3  <0> d          -0.426  -2.526  -0.897  0.00  0.00     0.028 H 
ENDBRANCH   3   6
ENDBRANCH   1   3
BRANCH   1  10
ATOM     10  O2  <0> d          -0.016   1.338   0.009  0.00  0.00    -0.257 OA
BRANCH  10  11
ATOM     11  C4  <0> d           1.188   1.972   0.001  0.00  0.00     0.202 A 
ATOM     12  N2  <0> d           2.339   1.329  -0.007  0.00  0.00    -0.116 NA
ATOM     13  N1  <0> d           3.446   1.982  -0.019  0.00  0.00    -0.108 NA
ATOM     14  S1  <0> d           3.037   3.506  -0.007  0.00  0.00     0.027 SA
ATOM     15  C5  <0> d           1.313   3.332   0.007  0.00  0.00     0.028 A 
ATOM     16  H6  <0> d           0.546   4.092   0.018  0.00  0.00     0.104 H 
ENDBRANCH  10  11
ENDBRANCH   1  10
TORSDOF 4
