REMARK  4 active torsions:
REMARK  status: ('A' for Active; 'I' for Inactive)
REMARK    1  A    between atoms: C1_1  and  C2_2 
REMARK    2  A    between atoms: C2_2  and  C3_3 
REMARK    3  A    between atoms: C3_3  and  N1_4 
REMARK       I    between atoms: N1_4  and  C4_5 
REMARK    4  A    between atoms: C4_5  and  C5_7 
ROOT
ATOM      1  N1  <0> d           0.738  -1.962  -1.265  0.00  0.00    -0.356 N 
ATOM      2  C4  <0> d           1.321  -2.623  -2.285  0.00  0.00     0.272 C 
ATOM      3  O1  <0> d           1.831  -2.003  -3.198  0.00  0.00    -0.266 OA
ATOM      4  H9  <0> d           0.332  -2.457  -0.536  0.00  0.00     0.162 HD
ENDROOT
BRANCH   1   5
ATOM      5  C3  <0> d           0.718  -0.497  -1.257  0.00  0.00    -0.005 C 
ATOM      6  H7  <0> d           0.191  -0.136  -2.140  0.00  0.00     0.064 H 
ATOM      7  H8  <0> d           1.741  -0.120  -1.264  0.00  0.00     0.064 H 
BRANCH   5   8
ATOM      8  C2  <0> d           0.002  -0.004   0.002  0.00  0.00    -0.054 C 
ATOM      9  H5  <0> d           0.529  -0.365   0.885  0.00  0.00     0.034 H 
ATOM     10  H6  <0> d          -1.020  -0.381   0.010  0.00  0.00     0.034 H 
BRANCH   8  11
ATOM     11  C1  <0> d          -0.019   1.526   0.010  0.00  0.00    -0.075 C 
ATOM     12  H2  <0> d           1.004   1.903   0.003  0.00  0.00     0.027 H 
ATOM     13  H3  <0> d          -0.546   1.887  -0.873  0.00  0.00     0.027 H 
ATOM     14  H4  <0> d          -0.529   1.877   0.907  0.00  0.00     0.027 H 
ENDBRANCH   8  11
ENDBRANCH   5   8
ENDBRANCH   1   5
BRANCH   2  15
ATOM     15  C5  <0> d           1.341  -4.100  -2.293  0.00  0.00     0.145 A 
ATOM     16  N3  <0> d           0.831  -4.896  -1.375  0.00  0.00    -0.170 NA
ATOM     17  N2  <0> d           1.023  -6.124  -1.700  0.00  0.00    -0.289 N 
ATOM     18  C7  <0> d           1.693  -6.198  -2.870  0.00  0.00    -0.002 A 
ATOM     19  H1  <0> d           0.733  -6.888  -1.178  0.00  0.00     0.188 HD
ATOM     20  C6  <0> d           1.917  -4.929  -3.285  0.00  0.00    -0.032 A 
ATOM     21  H11 <0> d           1.994  -7.101  -3.381  0.00  0.00     0.113 H 
ATOM     22  H10 <0> d           2.427  -4.615  -4.184  0.00  0.00     0.089 H 
ENDBRANCH   2  15
TORSDOF 4
