REMARK  2 active torsions:
REMARK  status: ('A' for Active; 'I' for Inactive)
REMARK    1  A    between atoms: C1_1  and  C2_2 
REMARK    2  A    between atoms: C3_4  and  C7_9 
ROOT
ATOM      1  C2  <0> d           0.002  -0.004   0.002  0.00  0.00     0.016 A 
ATOM      2  N1  <0> d           0.006  -0.657  -1.116  0.00  0.00    -0.263 NA
ATOM      3  C3  <0> d           0.023  -1.991  -1.198  0.00  0.00     0.034 A 
ATOM      4  C4  <0> d           0.040  -2.822  -0.133  0.00  0.00    -0.015 A 
ATOM      5  C5  <0> d           0.038  -2.296   1.179  0.00  0.00     0.156 A 
ATOM      6  O1  <0> d           0.052  -3.016   2.157  0.00  0.00    -0.293 OA
ATOM      7  C6  <0> d           0.025  -0.782   1.302  0.00  0.00     0.030 A 
ATOM      8  H4  <0> d           0.053  -3.891  -0.285  0.00  0.00     0.092 H 
ATOM      9  H5  <0> d           0.907  -0.476   1.865  0.00  0.00     0.053 H 
ATOM     10  H6  <0> d          -0.854  -0.500   1.881  0.00  0.00     0.053 H 
ENDROOT
BRANCH   1  11
ATOM     11  C1  <0> d          -0.018   1.503   0.010  0.00  0.00    -0.039 C 
ATOM     12  H1  <0> d           1.004   1.880   0.003  0.00  0.00     0.035 H 
ATOM     13  H2  <0> d          -0.545   1.864  -0.873  0.00  0.00     0.035 H 
ATOM     14  H3  <0> d          -0.529   1.854   0.907  0.00  0.00     0.035 H 
ENDBRANCH   1  11
BRANCH   3  15
ATOM     15  C7  <0> d           0.025  -2.610  -2.572  0.00  0.00    -0.035 C 
ATOM     16  H7  <0> d           0.011  -1.823  -3.325  0.00  0.00     0.035 H 
ATOM     17  H8  <0> d           0.923  -3.216  -2.696  0.00  0.00     0.035 H 
ATOM     18  H9  <0> d          -0.857  -3.240  -2.687  0.00  0.00     0.035 H 
ENDBRANCH   3  15
TORSDOF 2
