REMARK  5 active torsions:
REMARK  status: ('A' for Active; 'I' for Inactive)
REMARK    1  A    between atoms: C1_1  and  C2_2 
REMARK    2  A    between atoms: C1_1  and  C5_7 
REMARK    3  A    between atoms: C2_2  and  C3_3 
REMARK    4  A    between atoms: C2_2  and  O2_6 
REMARK    5  A    between atoms: C3_3  and  C4_4 
ROOT
ATOM      1  C2  <0> d          -0.013   1.086   0.008  0.00  0.00     0.054 C 
ATOM      2  H3  <0> d           0.002  -0.004   0.002  0.00  0.00     0.084 H 
ENDROOT
BRANCH   1   3
ATOM      3  C1  <0> d          -0.753   1.593  -1.232  0.00  0.00     0.040 C 
ATOM      4  H1  <0> d          -1.798   1.290  -1.179  0.00  0.00     0.053 H 
ATOM      5  H2  <0> d          -0.691   2.680  -1.272  0.00  0.00     0.053 H 
BRANCH   3   6
ATOM      6  C5  <0> d          -0.121   1.007  -2.468  0.00  0.00     0.175 C 
ATOM      7  O3  <0> d           0.824   0.261  -2.368  0.00  0.00    -0.648 OA
ATOM      8  O5  <0> d          -0.608   1.314  -3.680  0.00  0.00    -0.648 OA
ENDBRANCH   3   6
ENDBRANCH   1   3
BRANCH   1   9
ATOM      9  C3  <0> d          -0.729   1.579   1.267  0.00  0.00     0.040 C 
ATOM     10  H4  <0> d          -0.666   2.666   1.318  0.00  0.00     0.053 H 
ATOM     11  H5  <0> d          -1.776   1.277   1.232  0.00  0.00     0.053 H 
BRANCH   9  12
ATOM     12  C4  <0> d          -0.074   0.981   2.485  0.00  0.00     0.175 C 
ATOM     13  O1  <0> d           0.869   0.235   2.359  0.00  0.00    -0.648 OA
ATOM     14  O4  <0> d          -0.538   1.275   3.709  0.00  0.00    -0.648 OA
ENDBRANCH   9  12
ENDBRANCH   1   9
BRANCH   1  15
ATOM     15  O2  <0> d           1.328   1.580  -0.002  0.00  0.00    -0.395 OA
ATOM     16  H6  <0> d           1.391   2.545   0.002  0.00  0.00     0.210 HD
ENDBRANCH   1  15
TORSDOF 5
