REMARK  3 active torsions:
REMARK  status: ('A' for Active; 'I' for Inactive)
REMARK    1  A    between atoms: C1_1  and  C2_2 
REMARK    2  A    between atoms: C2_2  and  C3_3 
REMARK    3  A    between atoms: C4_5  and  C7_11 
ROOT
ATOM      1  C3  <0> d           1.490   1.876  -0.002  0.00  0.00     0.028 C 
ATOM      2  H1  <0> d           1.838   2.032  -1.023  0.00  0.00     0.055 H 
ATOM      3  C4  <0> d          -0.019   1.541   0.011  0.00  0.00    -0.030 C 
ATOM      4  H2  <0> d          -0.512   1.929  -0.880  0.00  0.00     0.043 H 
ATOM      5  C5  <0> d           0.002  -0.004   0.002  0.00  0.00    -0.001 C 
ATOM      6  N1  <0> d           1.290  -0.381   0.595  0.00  0.00    -0.360 N 
ATOM      7  C6  <0> d           2.147   0.654   0.600  0.00  0.00     0.222 C 
ATOM      8  O1  <0> d           3.283   0.614   1.026  0.00  0.00    -0.273 OA
ATOM      9  H8  <0> d          -0.819  -0.396   0.603  0.00  0.00     0.064 H 
ATOM     10  H9  <0> d          -0.067  -0.377  -1.020  0.00  0.00     0.064 H 
ATOM     11  H10 <0> d           1.497  -1.265   0.938  0.00  0.00     0.162 HD
ENDROOT
BRANCH   1  12
ATOM     12  C2  <0> d           1.771   3.112   0.855  0.00  0.00    -0.057 C 
ATOM     13  H6  <0> d           1.149   3.940   0.514  0.00  0.00     0.033 H 
ATOM     14  H7  <0> d           1.543   2.891   1.897  0.00  0.00     0.033 H 
BRANCH  12  15
ATOM     15  C1  <0> d           3.246   3.497   0.727  0.00  0.00    -0.076 C 
ATOM     16  H3  <0> d           3.869   2.670   1.068  0.00  0.00     0.027 H 
ATOM     17  H4  <0> d           3.475   3.719  -0.316  0.00  0.00     0.027 H 
ATOM     18  H5  <0> d           3.446   4.378   1.337  0.00  0.00     0.027 H 
ENDBRANCH  12  15
ENDBRANCH   1  12
BRANCH   3  19
ATOM     19  C7  <0> d          -0.688   2.072   1.280  0.00  0.00    -0.071 C 
ATOM     20  H11 <0> d          -0.151   1.704   2.155  0.00  0.00     0.028 H 
ATOM     21  H12 <0> d          -0.666   3.162   1.273  0.00  0.00     0.028 H 
ATOM     22  H13 <0> d          -1.722   1.729   1.317  0.00  0.00     0.028 H 
ENDBRANCH   3  19
TORSDOF 3
