REMARK  2 active torsions:
REMARK  status: ('A' for Active; 'I' for Inactive)
REMARK    1  A    between atoms: C1_1  and  N1_2 
REMARK    2  A    between atoms: N1_2  and  C2_3 
ROOT
ATOM      1  C2  <0> d          -1.188   3.152   0.030  0.00  0.00     0.068 A 
ATOM      2  C3  <0> d          -1.218   1.760   0.017  0.00  0.00    -0.053 A 
ATOM      3  C4  <0> d          -0.013   1.076   0.008  0.00  0.00    -0.064 A 
ATOM      4  C5  <0> d           1.170   1.791   0.001  0.00  0.00     0.004 A 
ATOM      5  N2  <0> d           1.166   3.110   0.008  0.00  0.00    -0.246 NA
ATOM      6  C6  <0> d           0.042   3.800   0.022  0.00  0.00     0.151 A 
ATOM      7 Cl1  <0> d           0.099   5.535   0.032  0.00  0.00    -0.060 Cl
ATOM      8  H5  <0> d          -2.156   1.226   0.019  0.00  0.00     0.087 H 
ATOM      9  H6  <0> d           0.002  -0.004   0.002  0.00  0.00     0.085 H 
ATOM     10  H7  <0> d           2.112   1.262  -0.012  0.00  0.00     0.114 H 
ENDROOT
BRANCH   1  11
ATOM     11  N1  <0> d          -2.377   3.886   0.046  0.00  0.00    -0.392 N 
ATOM     12  H4  <0> d          -2.344   4.986   0.052  0.00  0.00     0.159 HD
BRANCH  11  13
ATOM     13  C1  <0> d          -3.667   3.192   0.055  0.00  0.00    -0.021 C 
ATOM     14  H1  <0> d          -4.481   3.932   0.067  0.00  0.00     0.056 H 
ATOM     15  H2  <0> d          -3.735   2.557   0.950  0.00  0.00     0.056 H 
ATOM     16  H3  <0> d          -3.753   2.567  -0.846  0.00  0.00     0.056 H 
ENDBRANCH  11  13
ENDBRANCH   1  11
TORSDOF 2
