REMARK  4 active torsions:
REMARK  status: ('A' for Active; 'I' for Inactive)
REMARK    1  A    between atoms: C1_1  and  C2_2 
REMARK    2  A    between atoms: C7_9  and  C8_11 
REMARK    3  A    between atoms: C8_11  and  O2_12 
REMARK    4  A    between atoms: O2_12  and  C9_13 
ROOT
ATOM      1  C2  <0> d          -0.729   1.579   1.267  0.00  0.00    -0.046 C 
ATOM      2  H1  <0> d          -0.744   2.669   1.273  0.00  0.00     0.040 H 
ATOM      3  C3  <0> d          -2.163   1.048   1.279  0.00  0.00    -0.061 C 
ATOM      4  C4  <0> d          -2.152  -0.478   1.181  0.00  0.00    -0.059 C 
ATOM      5  C5  <0> d          -1.465  -1.063   2.419  0.00  0.00    -0.009 C 
ATOM      6  C6  <0> d          -0.094  -0.437   2.549  0.00  0.00     0.133 C 
ATOM      7  O1  <0> d           0.890  -1.123   2.682  0.00  0.00    -0.297 OA
ATOM      8  C7  <0> d           0.012   1.072   2.508  0.00  0.00     0.027 C 
ATOM      9  H2  <0> d          -0.403   1.466   3.329  0.00  0.00     0.055 H 
ATOM     10  H6  <0> d          -2.653   1.349   2.205  0.00  0.00     0.033 H 
ATOM     11  H7  <0> d          -2.710   1.462   0.431  0.00  0.00     0.033 H 
ATOM     12  H8  <0> d          -1.609  -0.781   0.286  0.00  0.00     0.033 H 
ATOM     13  H9  <0> d          -3.177  -0.846   1.125  0.00  0.00     0.033 H 
ATOM     14  H10 <0> d          -1.380  -2.054   2.316  0.00  0.00     0.044 H 
ATOM     15  H11 <0> d          -2.055  -0.840   3.308  0.00  0.00     0.044 H 
ENDROOT
BRANCH   8  16
ATOM     16  C8  <0> d           1.483   1.486   2.434  0.00  0.00     0.029 C 
ATOM     17  H12 <0> d           1.959   0.985   1.591  0.00  0.00     0.075 H 
ATOM     18  H13 <0> d           1.551   2.565   2.300  0.00  0.00     0.075 H 
BRANCH  16  19
ATOM     19  O2  <0> d           2.145   1.113   3.644  0.00  0.00    -0.395 OA
BRANCH  19  20
ATOM     20  C9  <0> d           3.531   1.456   3.678  0.00  0.00     0.004 C 
ATOM     21  H14 <0> d           3.961   1.140   4.629  0.00  0.00     0.066 H 
ATOM     22  H15 <0> d           4.050   0.955   2.861  0.00  0.00     0.066 H 
ATOM     23  H16 <0> d           3.641   2.535   3.571  0.00  0.00     0.066 H 
ENDBRANCH  19  20
ENDBRANCH  16  19
ENDBRANCH   8  16
BRANCH   1  24
ATOM     24  C1  <0> d          -0.013   1.086   0.008  0.00  0.00    -0.072 C 
ATOM     25  H3  <0> d           0.002  -0.004   0.002  0.00  0.00     0.028 H 
ATOM     26  H4  <0> d           1.010   1.463   0.000  0.00  0.00     0.028 H 
ATOM     27  H5  <0> d          -0.540   1.447  -0.875  0.00  0.00     0.028 H 
ENDBRANCH   1  24
TORSDOF 4
