REMARK  1 active torsions:
REMARK  status: ('A' for Active; 'I' for Inactive)
REMARK    1  A    between atoms: C1_1  and  N1_2 
ROOT
ATOM      1  N1  <0> d           0.002  -0.004   0.002  0.00  0.00    -0.272 N 
ATOM      2  C2  <0> d           0.008  -0.790  -1.115  0.00  0.00     0.084 A 
ATOM      3  C3  <0> d           0.029  -2.126  -0.674  0.00  0.00     0.013 A 
ATOM      4  C4  <0> d           0.038  -3.167  -1.608  0.00  0.00    -0.069 A 
ATOM      5  C5  <0> d           0.028  -2.885  -2.956  0.00  0.00    -0.081 A 
ATOM      6  C6  <0> d           0.007  -1.574  -3.403  0.00  0.00    -0.060 A 
ATOM      7  C7  <0> d          -0.004  -0.518  -2.495  0.00  0.00     0.073 A 
ATOM      8  C8  <0> d          -0.025   0.835  -2.964  0.00  0.00     0.102 C 
ATOM      9  N2  <0> d          -0.042   1.908  -3.335  0.00  0.00    -0.191 NA
ATOM     10  C9  <0> d           0.035  -2.075   0.785  0.00  0.00     0.034 A 
ATOM     11  N3  <0> d           0.024  -0.821   1.137  0.00  0.00    -0.184 NA
ATOM     12  H4  <0> d           0.054  -4.194  -1.272  0.00  0.00     0.085 H 
ATOM     13  H5  <0> d           0.036  -3.693  -3.671  0.00  0.00     0.083 H 
ATOM     14  H6  <0> d          -0.001  -1.369  -4.463  0.00  0.00     0.086 H 
ATOM     15  H7  <0> d           0.050  -2.924   1.452  0.00  0.00     0.118 H 
ENDROOT
BRANCH   1  16
ATOM     16  C1  <0> d          -0.018   1.461   0.010  0.00  0.00     0.003 C 
ATOM     17  H1  <0> d           1.005   1.838   0.002  0.00  0.00     0.059 H 
ATOM     18  H2  <0> d          -0.545   1.822  -0.873  0.00  0.00     0.059 H 
ATOM     19  H3  <0> d          -0.528   1.812   0.907  0.00  0.00     0.059 H 
ENDBRANCH   1  16
TORSDOF 1
