REMARK  0 active torsions:
REMARK  status: ('A' for Active; 'I' for Inactive)
ROOT
ATOM      1  C1  <0> d          -0.018   1.461   0.010  0.00  0.00    -0.044 A 
ATOM      2  C2  <0> d           1.265   1.850  -0.000  0.00  0.00     0.022 A 
ATOM      3  O1  <0> d           2.075   0.776  -0.014  0.00  0.00    -0.303 OA
ATOM      4  C3  <0> d           1.364  -0.364  -0.013  0.00  0.00     0.183 A 
ATOM      5  C4  <0> d           0.002  -0.004   0.002  0.00  0.00     0.059 A 
ATOM      6  C5  <0> d          -0.961  -1.012   0.005  0.00  0.00     0.142 A 
ATOM      7  N1  <0> d          -0.553  -2.272  -0.006  0.00  0.00    -0.229 NA
ATOM      8  C6  <0> d           0.733  -2.572  -0.019  0.00  0.00     0.091 A 
ATOM      9  N2  <0> d           1.677  -1.654  -0.023  0.00  0.00    -0.217 NA
ATOM     10 Cl1  <0> d          -2.653  -0.625   0.024  0.00  0.00    -0.061 Cl
ATOM     11  H1  <0> d          -0.889   2.098   0.026  0.00  0.00     0.088 H 
ATOM     12  H2  <0> d           1.599   2.877   0.002  0.00  0.00     0.123 H 
ATOM     13  H3  <0> d           1.022  -3.613  -0.028  0.00  0.00     0.146 H 
ENDROOT
TORSDOF 0
