REMARK  2 active torsions:
REMARK  status: ('A' for Active; 'I' for Inactive)
REMARK    1  A    between atoms: C1_1  and  C2_2 
REMARK    2  A    between atoms: C2_2  and  O1_10 
ROOT
ATOM      1  C2  <0> d          -0.729   1.579   1.267  0.00  0.00     0.086 A 
ATOM      2  C3  <0> d          -2.194   1.129   1.356  0.00  0.00    -0.008 A 
ATOM      3  C4  <0> d          -2.574   2.592   1.233  0.00  0.00    -0.046 A 
ATOM      4  C5  <0> d          -1.246   3.000   1.153  0.00  0.00    -0.018 A 
ATOM      5  C6  <0> d          -0.950   4.343   1.018  0.00  0.00    -0.073 A 
ATOM      6  C7  <0> d          -1.964   5.280   0.965  0.00  0.00    -0.082 A 
ATOM      7  C8  <0> d          -3.283   4.875   1.046  0.00  0.00    -0.082 A 
ATOM      8  C9  <0> d          -3.586   3.534   1.179  0.00  0.00    -0.076 A 
ATOM      9  H4  <0> d          -2.516   0.522   0.510  0.00  0.00     0.045 H 
ATOM     10  H5  <0> d          -2.457   0.690   2.318  0.00  0.00     0.045 H 
ATOM     11  H6  <0> d           0.080   4.662   0.956  0.00  0.00     0.084 H 
ATOM     12  H7  <0> d          -1.726   6.329   0.862  0.00  0.00     0.083 H 
ATOM     13  H8  <0> d          -4.076   5.607   1.005  0.00  0.00     0.083 H 
ATOM     14  H9  <0> d          -4.617   3.220   1.242  0.00  0.00     0.084 H 
ENDROOT
BRANCH   1  15
ATOM     15  C1  <0> d          -0.013   1.086   0.008  0.00  0.00    -0.044 C 
ATOM     16  H1  <0> d           0.002  -0.004   0.002  0.00  0.00     0.032 H 
ATOM     17  H2  <0> d           1.010   1.463   0.000  0.00  0.00     0.032 H 
ATOM     18  H3  <0> d          -0.540   1.447  -0.875  0.00  0.00     0.032 H 
ENDBRANCH   1  15
BRANCH   1  19
ATOM     19  O1  <0> d           0.018   1.336   2.461  0.00  0.00    -0.385 OA
ATOM     20  H10 <0> d           0.936   1.637   2.419  0.00  0.00     0.211 HD
ENDBRANCH   1  19
TORSDOF 2
