REMARK  3 active torsions:
REMARK  status: ('A' for Active; 'I' for Inactive)
REMARK    1  A    between atoms: C1_1  and  C2_2 
REMARK    2  A    between atoms: C3_4  and  N5_9 
REMARK    3  A    between atoms: C4_6  and  N4_8 
ROOT
ATOM      1  C2  <0> d           1.118   2.005   0.002  0.00  0.00     0.160 A 
ATOM      2  N1  <0> d          -0.016   1.327   0.009  0.00  0.00    -0.047 NA
ATOM      3  C3  <0> d           0.002  -0.004   0.002  0.00  0.00     0.737 A 
ATOM      4  N2  <0> d           1.163  -0.651  -0.013  0.00  0.00     0.129 NA
ATOM      5  C4  <0> d           2.301   0.034  -0.020  0.00  0.00     0.737 A 
ATOM      6  N3  <0> d           2.275   1.365  -0.012  0.00  0.00    -0.047 NA
ENDROOT
BRANCH   1   7
ATOM      7  C1  <0> d           1.093   3.512   0.010  0.00  0.00    -0.018 C 
ATOM      8  H1  <0> d           1.097   3.870   1.040  0.00  0.00     0.037 H 
ATOM      9  H2  <0> d           1.972   3.892  -0.510  0.00  0.00     0.037 H 
ATOM     10  H3  <0> d           0.193   3.863  -0.494  0.00  0.00     0.037 H 
ENDBRANCH   1   7
BRANCH   5  11
ATOM     11  N4  <0> d           3.509  -0.633  -0.034  0.00  0.00    -0.230 N 
ATOM     12  H4  <0> d           3.527  -1.603  -0.039  0.00  0.00     0.174 HD
ATOM     13  H5  <0> d           4.339  -0.132  -0.040  0.00  0.00     0.174 HD
ENDBRANCH   5  11
BRANCH   3  14
ATOM     14  N5  <0> d          -1.183  -0.711   0.009  0.00  0.00    -0.230 N 
ATOM     15  H6  <0> d          -2.030  -0.238   0.019  0.00  0.00     0.174 HD
ATOM     16  H7  <0> d          -1.169  -1.681   0.004  0.00  0.00     0.174 HD
ENDBRANCH   3  14
TORSDOF 3
