REMARK  5 active torsions:
REMARK  status: ('A' for Active; 'I' for Inactive)
REMARK    1  A    between atoms: C1_1  and  C2_2 
REMARK    2  A    between atoms: C2_2  and  C3_3 
REMARK    3  A    between atoms: C3_3  and  N1_4 
REMARK    4  A    between atoms: C4_5  and  C8_10 
REMARK    5  A    between atoms: C6_8  and  C7_9 
ROOT
ATOM      1  N1  <0> d          -0.020   1.094   2.454  0.00  0.00    -0.338 N 
ATOM      2  C4  <0> d           0.996   1.733   3.111  0.00  0.00     0.026 A 
ATOM      3  C5  <0> d           1.355   0.941   4.139  0.00  0.00     0.026 A 
ATOM      4  N2  <0> d           0.578  -0.152   4.111  0.00  0.00    -0.246 NA
ATOM      5  C6  <0> d          -0.252  -0.065   3.107  0.00  0.00     0.102 A 
ATOM      6  H8  <0> d           2.131   1.149   4.860  0.00  0.00     0.117 H 
ENDROOT
BRANCH   1   7
ATOM      7  C3  <0> d          -0.729   1.579   1.267  0.00  0.00     0.001 C 
ATOM      8  H6  <0> d          -0.744   2.669   1.273  0.00  0.00     0.065 H 
ATOM      9  H7  <0> d          -1.751   1.202   1.275  0.00  0.00     0.065 H 
BRANCH   7  10
ATOM     10  C2  <0> d          -0.013   1.086   0.008  0.00  0.00    -0.053 C 
ATOM     11  H4  <0> d           0.002  -0.004   0.002  0.00  0.00     0.034 H 
ATOM     12  H5  <0> d           1.010   1.463   0.000  0.00  0.00     0.034 H 
BRANCH  10  13
ATOM     13  C1  <0> d          -0.753   1.593  -1.232  0.00  0.00    -0.075 C 
ATOM     14  H1  <0> d          -0.242   1.241  -2.128  0.00  0.00     0.027 H 
ATOM     15  H2  <0> d          -1.775   1.215  -1.224  0.00  0.00     0.027 H 
ATOM     16  H3  <0> d          -0.767   2.683  -1.226  0.00  0.00     0.027 H 
ENDBRANCH  10  13
ENDBRANCH   7  10
ENDBRANCH   1   7
BRANCH   5  17
ATOM     17  C7  <0> d          -1.294  -1.089   2.737  0.00  0.00    -0.021 C 
ATOM     18  H9  <0> d          -0.863  -1.812   2.045  0.00  0.00     0.037 H 
ATOM     19  H10 <0> d          -1.633  -1.603   3.636  0.00  0.00     0.037 H 
ATOM     20  H11 <0> d          -2.140  -0.591   2.263  0.00  0.00     0.037 H 
ENDBRANCH   5  17
BRANCH   2  21
ATOM     21  C8  <0> d           1.599   3.067   2.752  0.00  0.00    -0.036 C 
ATOM     22  H12 <0> d           1.058   3.860   3.269  0.00  0.00     0.035 H 
ATOM     23  H13 <0> d           2.646   3.086   3.054  0.00  0.00     0.035 H 
ATOM     24  H14 <0> d           1.527   3.221   1.676  0.00  0.00     0.035 H 
ENDBRANCH   2  21
TORSDOF 5
