REMARK  3 active torsions:
REMARK  status: ('A' for Active; 'I' for Inactive)
REMARK    1  A    between atoms: C1_1  and  C2_2 
REMARK    2  A    between atoms: C2_2  and  C3_3 
REMARK    3  A    between atoms: C2_2  and  N2_6 
ROOT
ATOM      1  C2  <0> d           0.002  -0.004   0.002  0.00  0.00     0.239 C 
ATOM      2  C4  <0> d           0.714  -0.492   1.195  0.00  0.00     0.101 C 
ATOM      3  N1  <0> d           1.263  -0.868   2.115  0.00  0.00    -0.195 NA
ENDROOT
BRANCH   1   4
ATOM      4  C1  <0> d          -1.433  -0.534   0.013  0.00  0.00    -0.030 C 
ATOM      5  H1  <0> d          -1.948  -0.179   0.918  0.00  0.00     0.032 H 
ATOM      6  H2  <0> d          -1.418  -1.633   0.007  0.00  0.00     0.032 H 
ATOM      7  H3  <0> d          -1.965  -0.169  -0.878  0.00  0.00     0.032 H 
ENDBRANCH   1   4
BRANCH   1   8
ATOM      8  C3  <0> d           0.718  -0.497  -1.257  0.00  0.00    -0.030 C 
ATOM      9  H4  <0> d           1.750  -0.117  -1.265  0.00  0.00     0.032 H 
ATOM     10  H5  <0> d           0.186  -0.133  -2.148  0.00  0.00     0.032 H 
ATOM     11  H6  <0> d           0.733  -1.597  -1.263  0.00  0.00     0.032 H 
ENDBRANCH   1   8
BRANCH   1  12
ATOM     12  N2  <0> d          -0.018   1.465   0.010  0.00  0.00     0.111 N 
ATOM     13  C9  <0> d           1.346   2.010   0.000  0.00  0.00     0.116 C 
ATOM     14  C8  <0> d           1.290   3.531   0.155  0.00  0.00    -0.040 C 
ATOM     15  H15 <0> d           1.920   1.577   0.833  0.00  0.00     0.080 H 
ATOM     16  H16 <0> d           1.835   1.756  -0.952  0.00  0.00     0.080 H 
ATOM     17  C7  <0> d           0.473   4.127  -0.995  0.00  0.00    -0.062 C 
ATOM     18  H13 <0> d           2.310   3.942   0.132  0.00  0.00     0.035 H 
ATOM     19  H14 <0> d           0.814   3.786   1.114  0.00  0.00     0.035 H 
ATOM     20  C6  <0> d          -0.927   3.507  -0.991  0.00  0.00    -0.040 C 
ATOM     21  H11 <0> d           0.969   3.908  -1.952  0.00  0.00     0.033 H 
ATOM     22  H12 <0> d           0.393   5.216  -0.865  0.00  0.00     0.033 H 
ATOM     23  C5  <0> d          -0.806   1.987  -1.113  0.00  0.00     0.116 C 
ATOM     24  H9  <0> d          -1.505   3.899  -1.841  0.00  0.00     0.035 H 
ATOM     25  H10 <0> d          -1.439   3.760  -0.051  0.00  0.00     0.035 H 
ATOM     26  H7  <0> d          -0.307   1.734  -2.061  0.00  0.00     0.080 H 
ATOM     27  H8  <0> d          -1.810   1.537  -1.097  0.00  0.00     0.080 H 
ENDBRANCH   1  12
TORSDOF 3
