REMARK  5 active torsions:
REMARK  status: ('A' for Active; 'I' for Inactive)
REMARK    1  A    between atoms: C1_1  and  C2_2 
REMARK       I    between atoms: C2_2  and  N1_4 
REMARK    2  A    between atoms: N1_4  and  C3_5 
REMARK    3  A    between atoms: C3_5  and  C4_7 
REMARK    4  A    between atoms: C3_5  and  C7_10 
REMARK    5  A    between atoms: C4_7  and  C5_8 
ROOT
ATOM      1  C3  <0> d          -0.013   1.086   0.008  0.00  0.00     0.099 C 
ATOM      2  H1  <0> d           0.002  -0.004   0.002  0.00  0.00     0.090 H 
ENDROOT
BRANCH   1   3
ATOM      3  N1  <0> d           1.362   1.593  -0.002  0.00  0.00    -0.347 N 
ATOM      4  C2  <0> d           2.331   0.926   0.654  0.00  0.00     0.214 C 
ATOM      5  O1  <0> d           2.066  -0.095   1.254  0.00  0.00    -0.274 OA
ATOM      6  H5  <0> d           1.574   2.409  -0.482  0.00  0.00     0.163 HD
BRANCH   4   7
ATOM      7  C1  <0> d           3.745   1.447   0.644  0.00  0.00    -0.003 C 
ATOM      8  H2  <0> d           3.789   2.366   0.059  0.00  0.00     0.040 H 
ATOM      9  H3  <0> d           4.065   1.651   1.665  0.00  0.00     0.040 H 
ATOM     10  H4  <0> d           4.404   0.702   0.199  0.00  0.00     0.040 H 
ENDBRANCH   4   7
ENDBRANCH   1   3
BRANCH   1  11
ATOM     11  C4  <0> d          -0.753   1.593  -1.232  0.00  0.00    -0.022 C 
ATOM     12  H6  <0> d          -1.798   1.290  -1.179  0.00  0.00     0.042 H 
ATOM     13  H7  <0> d          -0.691   2.680  -1.272  0.00  0.00     0.042 H 
BRANCH  11  14
ATOM     14  C5  <0> d          -0.121   1.007  -2.468  0.00  0.00    -0.110 C 
ATOM     15  C6  <0> d          -0.855   0.345  -3.328  0.00  0.00    -0.125 C 
ATOM     16  H9  <0> d          -1.913   0.218  -3.150  0.00  0.00     0.066 H 
ATOM     17  H10 <0> d          -0.402  -0.075  -4.214  0.00  0.00     0.066 H 
ATOM     18  H8  <0> d           0.937   1.133  -2.646  0.00  0.00     0.075 H 
ENDBRANCH  11  14
ENDBRANCH   1  11
BRANCH   1  19
ATOM     19  C7  <0> d          -0.718   1.572   1.248  0.00  0.00     0.197 C 
ATOM     20  O2  <0> d          -0.133   2.270   2.041  0.00  0.00    -0.646 OA
ATOM     21  O3  <0> d          -1.997   1.229   1.471  0.00  0.00    -0.646 OA
ENDBRANCH   1  19
TORSDOF 5
