REMARK  3 active torsions:
REMARK  status: ('A' for Active; 'I' for Inactive)
REMARK    1  A    between atoms: C1_1  and  C2_2 
REMARK    2  A    between atoms: C2_2  and  C4_4 
REMARK    3  A    between atoms: C4_4  and  C5_5 
ROOT
ATOM      1  C2  <0> d          -1.156   1.715   0.017  0.00  0.00    -0.083 C 
ATOM      2  C3  <0> d          -0.013   1.076   0.008  0.00  0.00    -0.119 C 
ATOM      3  H4  <0> d           0.002  -0.004   0.002  0.00  0.00     0.067 H 
ATOM      4  H5  <0> d           0.915   1.629   0.002  0.00  0.00     0.067 H 
ENDROOT
BRANCH   1   5
ATOM      5  C1  <0> d          -1.176   3.222   0.025  0.00  0.00    -0.055 C 
ATOM      6  H1  <0> d          -1.186   3.591  -1.000  0.00  0.00     0.033 H 
ATOM      7  H2  <0> d          -2.069   3.571   0.545  0.00  0.00     0.033 H 
ATOM      8  H3  <0> d          -0.289   3.595   0.537  0.00  0.00     0.033 H 
ENDBRANCH   1   5
BRANCH   1   9
ATOM      9  C4  <0> d          -2.451   0.944   0.019  0.00  0.00     0.035 C 
ATOM     10  H6  <0> d          -3.196   1.485  -0.564  0.00  0.00     0.055 H 
ATOM     11  H7  <0> d          -2.288  -0.040  -0.422  0.00  0.00     0.055 H 
BRANCH   9  12
ATOM     12  C5  <0> d          -2.939   0.786   1.436  0.00  0.00     0.176 C 
ATOM     13  O1  <0> d          -2.301   1.251   2.350  0.00  0.00    -0.648 OA
ATOM     14  O2  <0> d          -4.082   0.128   1.682  0.00  0.00    -0.648 OA
ENDBRANCH   9  12
ENDBRANCH   1   9
TORSDOF 3
