REMARK  3 active torsions:
REMARK  status: ('A' for Active; 'I' for Inactive)
REMARK    1  A    between atoms: C1_1  and  C2_2 
REMARK    2  A    between atoms: C4_4  and  C5_7 
REMARK    3  A    between atoms: C5_7  and  C6_8 
ROOT
ATOM      1  C2  <0> d           1.043   1.924   0.002  0.00  0.00     0.077 A 
ATOM      2  C3  <0> d          -0.013   1.076   0.008  0.00  0.00    -0.026 A 
ATOM      3  C4  <0> d          -1.138   1.931   0.017  0.00  0.00     0.074 A 
ATOM      4  N1  <0> d          -0.675   3.148   0.024  0.00  0.00    -0.133 NA
ATOM      5  O1  <0> d           0.534   3.164   0.013  0.00  0.00    -0.218 OA
ATOM      6  H4  <0> d           0.002  -0.004   0.002  0.00  0.00     0.090 H 
ENDROOT
BRANCH   3   7
ATOM      7  C5  <0> d          -2.587   1.516   0.021  0.00  0.00     0.058 C 
ATOM      8  H5  <0> d          -3.064   1.842  -0.915  0.00  0.00     0.058 H 
ATOM      9  H6  <0> d          -2.655   0.422   0.106  0.00  0.00     0.058 H 
BRANCH   7  10
ATOM     10  C6  <0> d          -3.289   2.156   1.191  0.00  0.00     0.178 C 
ATOM     11  O2  <0> d          -2.676   2.875   1.944  0.00  0.00    -0.648 OA
ATOM     12  O3  <0> d          -4.596   1.927   1.397  0.00  0.00    -0.648 OA
ENDBRANCH   7  10
ENDBRANCH   3   7
BRANCH   1  13
ATOM     13  C1  <0> d           2.503   1.549  -0.013  0.00  0.00    -0.029 C 
ATOM     14  H1  <0> d           2.599   0.453  -0.019  0.00  0.00     0.036 H 
ATOM     15  H2  <0> d           2.995   1.955   0.883  0.00  0.00     0.036 H 
ATOM     16  H3  <0> d           2.979   1.964  -0.913  0.00  0.00     0.036 H 
ENDBRANCH   1  13
TORSDOF 3
