REMARK  4 active torsions:
REMARK  status: ('A' for Active; 'I' for Inactive)
REMARK    1  A    between atoms: C1_1  and  O1_2 
REMARK    2  A    between atoms: O1_2  and  C2_3 
REMARK    3  A    between atoms: C2_3  and  C3_5 
REMARK    4  A    between atoms: C3_5  and  C4_6 
ROOT
ATOM      1  C3  <0> d          -1.329   1.940   0.019  0.00  0.00     0.030 C 
ATOM      2  H4  <0> d          -1.391   2.561   0.913  0.00  0.00     0.053 H 
ATOM      3  H5  <0> d          -1.400   2.570  -0.867  0.00  0.00     0.053 H 
ENDROOT
BRANCH   1   4
ATOM      4  C2  <0> d          -0.014   1.204   0.009  0.00  0.00     0.261 C 
ATOM      5  O2  <0> d           0.002  -0.004   0.002  0.00  0.00    -0.265 OA
BRANCH   4   6
ATOM      6  O1  <0> d           1.139   1.891   0.001  0.00  0.00    -0.326 OA
BRANCH   6   7
ATOM      7  C1  <0> d           2.367   1.117  -0.015  0.00  0.00     0.013 C 
ATOM      8  H1  <0> d           2.409   0.484   0.872  0.00  0.00     0.067 H 
ATOM      9  H2  <0> d           2.392   0.493  -0.908  0.00  0.00     0.067 H 
ATOM     10  H3  <0> d           3.223   1.792  -0.019  0.00  0.00     0.067 H 
ENDBRANCH   6   7
ENDBRANCH   4   6
ENDBRANCH   1   4
BRANCH   1  11
ATOM     11  C4  <0> d          -2.462   0.945   0.019  0.00  0.00    -0.103 C 
ATOM     12  C5  <0> d          -3.379   0.996   0.953  0.00  0.00    -0.124 C 
ATOM     13  H7  <0> d          -3.324   1.752   1.723  0.00  0.00     0.066 H 
ATOM     14  H8  <0> d          -4.190   0.283   0.953  0.00  0.00     0.066 H 
ATOM     15  H6  <0> d          -2.517   0.190  -0.751  0.00  0.00     0.076 H 
ENDBRANCH   1  11
TORSDOF 4
