REMARK  1 active torsions:
REMARK  status: ('A' for Active; 'I' for Inactive)
REMARK    1  A    between atoms: C2_2  and  N5_11 
ROOT
ATOM      1  C1  <0> d          -0.017   1.399   0.010  0.00  0.00     0.015 A 
ATOM      2  C2  <0> d           1.164   2.084   0.002  0.00  0.00     0.131 A 
ATOM      3  N1  <0> d           2.339   1.379  -0.013  0.00  0.00    -0.180 N 
ATOM      4  C3  <0> d           2.316   0.007  -0.020  0.00  0.00     0.176 A 
ATOM      5  C4  <0> d           3.639  -0.398  -0.036  0.00  0.00     0.071 A 
ATOM      6  N2  <0> d           4.408   0.684  -0.038  0.00  0.00    -0.140 NA
ATOM      7  N3  <0> d           3.688   1.751  -0.025  0.00  0.00    -0.058 NA
ATOM      8  N4  <0> d           1.150  -0.655  -0.012  0.00  0.00    -0.201 NA
ATOM      9  C5  <0> d           0.002  -0.004   0.002  0.00  0.00     0.206 A 
ATOM     10  O1  <0> d          -1.164  -0.694   0.009  0.00  0.00    -0.170 OA
ATOM     11  H1  <0> d          -0.956   1.931   0.026  0.00  0.00     0.096 H 
ATOM     12  H2  <0> d           3.987  -1.420  -0.044  0.00  0.00     0.123 H 
ENDROOT
BRANCH   2  13
ATOM     13  N5  <0> d           1.174   3.462   0.009  0.00  0.00    -0.384 N 
ATOM     14  H3  <0> d           0.337   3.953   0.019  0.00  0.00     0.157 HD
ATOM     15  H4  <0> d           2.017   3.942   0.004  0.00  0.00     0.157 HD
ENDBRANCH   2  13
TORSDOF 1
