REMARK  2 active torsions:
REMARK  status: ('A' for Active; 'I' for Inactive)
REMARK    1  A    between atoms: C5_5  and  O2_10 
REMARK    2  A    between atoms: C6_6  and  O1_9 
ROOT
ATOM      1  C1  <0> d           3.726   0.050  -0.033  0.00  0.00    -0.082 A 
ATOM      2  C2  <0> d           3.706   1.517  -0.025  0.00  0.00    -0.082 A 
ATOM      3  C3  <0> d           2.585   2.201  -0.011  0.00  0.00    -0.069 A 
ATOM      4  C4  <0> d           1.294   1.490  -0.002  0.00  0.00     0.013 A 
ATOM      5  C5  <0> d          -0.018   1.470   0.010  0.00  0.00     0.111 A 
ATOM      6  C6  <0> d           0.002  -0.004   0.002  0.00  0.00     0.111 A 
ATOM      7  C7  <0> d           1.314   0.011  -0.010  0.00  0.00     0.013 A 
ATOM      8  C8  <0> d           2.624  -0.664  -0.026  0.00  0.00    -0.069 A 
ATOM      9  H1  <0> d           4.679  -0.459  -0.044  0.00  0.00     0.083 H 
ATOM     10  H2  <0> d           4.644   2.052  -0.032  0.00  0.00     0.083 H 
ATOM     11  H3  <0> d           2.609   3.281  -0.005  0.00  0.00     0.085 H 
ATOM     12  H4  <0> d           2.677  -1.743  -0.032  0.00  0.00     0.085 H 
ENDROOT
BRANCH   5  13
ATOM     13  O2  <0> d          -0.995   2.419   0.020  0.00  0.00    -0.357 OA
ATOM     14  H6  <0> d          -1.893   2.059   0.023  0.00  0.00     0.217 HD
ENDBRANCH   5  13
BRANCH   6  15
ATOM     15  O1  <0> d          -0.949  -0.979   0.006  0.00  0.00    -0.357 OA
ATOM     16  H5  <0> d          -1.856  -0.644   0.016  0.00  0.00     0.217 HD
ENDBRANCH   6  15
TORSDOF 2
