REMARK  1 active torsions:
REMARK  status: ('A' for Active; 'I' for Inactive)
REMARK    1  A    between atoms: C2_2  and  C3_3 
ROOT
ATOM      1  C3  <0> d          -1.267  -0.760   0.010  0.00  0.00     0.055 A 
ATOM      2  C4  <0> d          -1.242  -2.155   0.008  0.00  0.00    -0.055 A 
ATOM      3  C5  <0> d          -2.439  -2.849   0.016  0.00  0.00    -0.079 A 
ATOM      4  C6  <0> d          -3.624  -2.126   0.026  0.00  0.00    -0.066 A 
ATOM      5  C7  <0> d          -3.576  -0.744   0.027  0.00  0.00     0.003 A 
ATOM      6  N1  <0> d          -2.423  -0.107   0.025  0.00  0.00    -0.261 NA
ATOM      7  H4  <0> d          -0.302  -2.686   0.000  0.00  0.00     0.087 H 
ATOM      8  H5  <0> d          -2.451  -3.929   0.015  0.00  0.00     0.083 H 
ATOM      9  H6  <0> d          -4.575  -2.638   0.032  0.00  0.00     0.085 H 
ATOM     10  H7  <0> d          -4.497  -0.179   0.035  0.00  0.00     0.114 H 
ENDROOT
BRANCH   1  11
ATOM     11  C2  <0> d           0.002  -0.004   0.002  0.00  0.00    -0.064 C 
ATOM     12  C1  <0> d          -0.016   1.322   0.009  0.00  0.00    -0.119 C 
ATOM     13  H1  <0> d           0.912   1.875   0.003  0.00  0.00     0.066 H 
ATOM     14  H2  <0> d          -0.958   1.849   0.017  0.00  0.00     0.066 H 
ATOM     15  H3  <0> d           0.945  -0.531  -0.010  0.00  0.00     0.085 H 
ENDBRANCH   1  11
TORSDOF 1
