REMARK  4 active torsions:
REMARK  status: ('A' for Active; 'I' for Inactive)
REMARK    1  A    between atoms: C1_1  and  O1_2 
REMARK    2  A    between atoms: O1_2  and  C2_3 
REMARK    3  A    between atoms: C2_3  and  C3_5 
REMARK    4  A    between atoms: C7_9  and  O3_11 
ROOT
ATOM      1  C3  <0> d           3.107   2.414  -1.210  0.00  0.00     0.042 A 
ATOM      2  C4  <0> d           3.744   2.696   0.001  0.00  0.00    -0.067 A 
ATOM      3  C5  <0> d           3.120   2.396   1.194  0.00  0.00    -0.079 A 
ATOM      4  C6  <0> d           1.862   1.822   1.196  0.00  0.00    -0.051 A 
ATOM      5  C7  <0> d           1.223   1.532  -0.001  0.00  0.00     0.066 A 
ATOM      6  C8  <0> d           1.840   1.829  -1.205  0.00  0.00    -0.035 A 
ATOM      7  H4  <0> d           4.724   3.149   0.003  0.00  0.00     0.085 H 
ATOM      8  H5  <0> d           3.614   2.615   2.129  0.00  0.00     0.083 H 
ATOM      9  H6  <0> d           1.376   1.594   2.134  0.00  0.00     0.087 H 
ATOM     10  H7  <0> d           1.342   1.608  -2.138  0.00  0.00     0.089 H 
ENDROOT
BRANCH   1  11
ATOM     11  C2  <0> d           3.771   2.734  -2.490  0.00  0.00     0.293 C 
ATOM     12  O2  <0> d           3.215   2.488  -3.541  0.00  0.00    -0.259 OA
BRANCH  11  13
ATOM     13  O1  <0> d           4.995   3.298  -2.491  0.00  0.00    -0.323 OA
BRANCH  13  14
ATOM     14  C1  <0> d           5.587   3.585  -3.785  0.00  0.00     0.013 C 
ATOM     15  H1  <0> d           5.691   2.659  -4.350  0.00  0.00     0.067 H 
ATOM     16  H2  <0> d           4.945   4.275  -4.333  0.00  0.00     0.067 H 
ATOM     17  H3  <0> d           6.569   4.037  -3.643  0.00  0.00     0.067 H 
ENDBRANCH  13  14
ENDBRANCH  11  13
ENDBRANCH   1  11
BRANCH   5  18
ATOM     18  O3  <0> d          -0.011   0.963   0.007  0.00  0.00    -0.361 OA
ATOM     19  H8  <0> d           0.002  -0.004   0.002  0.00  0.00     0.217 HD
ENDBRANCH   5  18
TORSDOF 4
