REMARK  2 active torsions:
REMARK  status: ('A' for Active; 'I' for Inactive)
REMARK    1  A    between atoms: C3_3  and  C5_5 
REMARK    2  A    between atoms: C6_8  and  N4_10 
ROOT
ATOM      1  C1  <0> d          -0.009   1.092  -0.005  0.00  0.00    -0.064 C 
ATOM      2  C2  <0> d          -0.932   1.687   1.071  0.00  0.00    -0.055 C 
ATOM      3  C3  <0> d          -2.060   1.623   0.024  0.00  0.00     0.008 C 
ATOM      4  C4  <0> d          -0.961   1.700  -1.049  0.00  0.00    -0.055 C 
ATOM      5  H1  <0> d           0.029   0.001  -0.135  0.00  0.00     0.033 H 
ATOM      6  H2  <0> d           0.999   1.513  -0.139  0.00  0.00     0.033 H 
ATOM      7  H3  <0> d          -0.966   1.012   1.939  0.00  0.00     0.034 H 
ATOM      8  H4  <0> d          -0.546   2.668   1.385  0.00  0.00     0.034 H 
ATOM      9  H5  <0> d          -2.830   0.838   0.028  0.00  0.00     0.052 H 
ATOM     10  H6  <0> d          -0.583   2.685  -1.360  0.00  0.00     0.034 H 
ATOM     11  H7  <0> d          -1.018   1.036  -1.924  0.00  0.00     0.034 H 
ENDROOT
BRANCH   3  12
ATOM     12  C5  <0> d          -2.971   2.824   0.043  0.00  0.00     0.169 A 
ATOM     13  N3  <0> d          -4.121   2.924  -0.574  0.00  0.00    -0.046 NA
ATOM     14  C6  <0> d          -4.654   4.128  -0.342  0.00  0.00     0.716 A 
ATOM     15  N2  <0> d          -3.841   4.809   0.429  0.00  0.00    -0.106 N 
ATOM     16  N1  <0> d          -2.742   3.975   0.695  0.00  0.00    -0.143 NA
ATOM     17  H10 <0> d          -3.878   5.822   0.856  0.00  0.00     0.208 HD
BRANCH  14  18
ATOM     18  N4  <0> d          -5.876   4.585  -0.840  0.00  0.00    -0.231 N 
ATOM     19  H8  <0> d          -6.227   5.597  -0.590  0.00  0.00     0.174 HD
ATOM     20  H9  <0> d          -6.486   3.933  -1.482  0.00  0.00     0.174 HD
ENDBRANCH  14  18
ENDBRANCH   3  12
TORSDOF 2
