REMARK  2 active torsions:
REMARK  status: ('A' for Active; 'I' for Inactive)
REMARK    1  A    between atoms: C1_1  and  C2_2 
REMARK    2  A    between atoms: C2_2  and  C6_8 
ROOT
ATOM      1  C2  <0> d          -0.775   1.603   1.248  0.00  0.00    -0.016 C 
ATOM      2  C3  <0> d          -2.205   1.785   0.683  0.00  0.00     0.018 C 
ATOM      3  C4  <0> d          -1.996   1.984  -0.801  0.00  0.00     0.218 C 
ATOM      4  O1  <0> d          -2.823   2.435  -1.565  0.00  0.00    -0.274 OA
ATOM      5  N1  <0> d          -0.759   1.590  -1.151  0.00  0.00    -0.360 N 
ATOM      6  C5  <0> d          -0.013   1.086   0.008  0.00  0.00     0.003 C 
ATOM      7  H4  <0> d          -2.680   2.662   1.123  0.00  0.00     0.048 H 
ATOM      8  H5  <0> d          -2.804   0.893   0.868  0.00  0.00     0.048 H 
ATOM      9  H6  <0> d          -0.405   1.633  -2.053  0.00  0.00     0.162 HD
ATOM     10  H7  <0> d           0.002  -0.004   0.002  0.00  0.00     0.065 H 
ATOM     11  H8  <0> d           1.005   1.476   0.000  0.00  0.00     0.065 H 
ENDROOT
BRANCH   1  12
ATOM     12  C1  <0> d          -0.756   0.567   2.374  0.00  0.00    -0.067 C 
ATOM     13  H1  <0> d           0.275   0.368   2.667  0.00  0.00     0.028 H 
ATOM     14  H2  <0> d          -1.310   0.952   3.231  0.00  0.00     0.028 H 
ATOM     15  H3  <0> d          -1.220  -0.356   2.026  0.00  0.00     0.028 H 
ENDBRANCH   1  12
BRANCH   1  16
ATOM     16  C6  <0> d          -0.200   2.938   1.726  0.00  0.00    -0.045 A 
ATOM     17  C8  <0> d          -0.847   3.588   2.951  0.00  0.00    -0.061 A 
ATOM     18  C7  <0> d           0.539   2.951   3.066  0.00  0.00    -0.061 A 
ATOM     19  H12 <0> d          -0.904   4.676   2.973  0.00  0.00     0.033 H 
ATOM     20  H13 <0> d          -1.682   3.064   3.417  0.00  0.00     0.033 H 
ATOM     21  H10 <0> d           0.616   2.007   3.606  0.00  0.00     0.033 H 
ATOM     22  H11 <0> d           1.394   3.620   3.162  0.00  0.00     0.033 H 
ATOM     23  H9  <0> d           0.168   3.599   0.942  0.00  0.00     0.041 H 
ENDBRANCH   1  16
TORSDOF 2
