REMARK  5 active torsions:
REMARK  status: ('A' for Active; 'I' for Inactive)
REMARK    1  A    between atoms: C1_1  and  C2_2 
REMARK    2  A    between atoms: C4_4  and  O1_11 
REMARK    3  A    between atoms: C7_7  and  C8_8 
REMARK    4  A    between atoms: C8_8  and  C9_9 
REMARK    5  A    between atoms: C8_8  and  C10_10 
ROOT
ATOM      1  C2  <0> d           3.154   2.407  -1.182  0.00  0.00    -0.053 A 
ATOM      2  C3  <0> d           2.004   1.642  -1.222  0.00  0.00    -0.045 A 
ATOM      3  C4  <0> d           1.327   1.346  -0.048  0.00  0.00     0.066 A 
ATOM      4  C5  <0> d           1.804   1.825   1.164  0.00  0.00    -0.051 A 
ATOM      5  C6  <0> d           2.958   2.585   1.200  0.00  0.00    -0.073 A 
ATOM      6  C7  <0> d           3.630   2.878   0.027  0.00  0.00    -0.049 A 
ATOM      7  H4  <0> d           1.632   1.274  -2.167  0.00  0.00     0.088 H 
ATOM      8  H5  <0> d           1.277   1.601   2.079  0.00  0.00     0.087 H 
ATOM      9  H6  <0> d           3.332   2.954   2.143  0.00  0.00     0.084 H 
ENDROOT
BRANCH   6  10
ATOM     10  C8  <0> d           4.884   3.713   0.068  0.00  0.00    -0.035 C 
ATOM     11  H7  <0> d           5.213   3.924  -0.949  0.00  0.00     0.046 H 
BRANCH  10  12
ATOM     12  C9  <0> d           4.598   5.028   0.795  0.00  0.00    -0.069 C 
ATOM     13  H8  <0> d           5.505   5.632   0.824  0.00  0.00     0.028 H 
ATOM     14  H9  <0> d           3.816   5.573   0.266  0.00  0.00     0.028 H 
ATOM     15  H10 <0> d           4.269   4.817   1.812  0.00  0.00     0.028 H 
ENDBRANCH  10  12
BRANCH  10  16
ATOM     16  C10 <0> d           5.982   2.948   0.811  0.00  0.00    -0.069 C 
ATOM     17  H11 <0> d           6.185   2.011   0.293  0.00  0.00     0.028 H 
ATOM     18  H12 <0> d           6.889   3.551   0.840  0.00  0.00     0.028 H 
ATOM     19  H13 <0> d           5.652   2.737   1.828  0.00  0.00     0.028 H 
ENDBRANCH  10  16
ENDBRANCH   6  10
BRANCH   1  20
ATOM     20  C1  <0> d           3.889   2.728  -2.458  0.00  0.00    -0.051 C 
ATOM     21  H1  <0> d           3.574   3.705  -2.823  0.00  0.00     0.033 H 
ATOM     22  H2  <0> d           4.962   2.741  -2.265  0.00  0.00     0.033 H 
ATOM     23  H3  <0> d           3.664   1.970  -3.208  0.00  0.00     0.033 H 
ENDBRANCH   1  20
BRANCH   3  24
ATOM     24  O1  <0> d           0.196   0.594  -0.084  0.00  0.00    -0.361 OA
ATOM     25  H14 <0> d           0.353  -0.357  -0.000  0.00  0.00     0.217 HD
ENDBRANCH   3  24
TORSDOF 5
