REMARK  0 active torsions:
REMARK  status: ('A' for Active; 'I' for Inactive)
ROOT
ATOM      1  C1  <0> d          -0.017   1.386   0.010  0.00  0.00    -0.044 A 
ATOM      2  C2  <0> d           1.175   2.082   0.002  0.00  0.00    -0.063 A 
ATOM      3  C3  <0> d           2.368   1.393  -0.013  0.00  0.00     0.015 A 
ATOM      4  C4  <0> d           2.423  -0.018  -0.021  0.00  0.00    -0.016 A 
ATOM      5  C5  <0> d           3.768  -0.574  -0.037  0.00  0.00    -0.065 A 
ATOM      6  C6  <0> d           4.821   0.256  -0.043  0.00  0.00    -0.043 A 
ATOM      7  S1  <0> d           4.076   1.875  -0.027  0.00  0.00    -0.101 SA
ATOM      8  C7  <0> d           1.183  -0.701  -0.013  0.00  0.00    -0.035 A 
ATOM      9  C8  <0> d           0.002  -0.004   0.002  0.00  0.00     0.117 A 
ATOM     10  F1  <0> d          -1.167  -0.682   0.010  0.00  0.00    -0.206 F 
ATOM     11  H1  <0> d          -0.957   1.917   0.026  0.00  0.00     0.088 H 
ATOM     12  H2  <0> d           1.173   3.162   0.007  0.00  0.00     0.085 H 
ATOM     13  H3  <0> d           3.916  -1.643  -0.044  0.00  0.00     0.085 H 
ATOM     14  H4  <0> d           5.871   0.004  -0.054  0.00  0.00     0.095 H 
ATOM     15  H5  <0> d           1.167  -1.781  -0.019  0.00  0.00     0.089 H 
ENDROOT
TORSDOF 0
