REMARK  0 active torsions:
REMARK  status: ('A' for Active; 'I' for Inactive)
ROOT
ATOM      1  C1  <0> d           0.803  -2.031   1.227  0.00  0.00    -0.065 C 
ATOM      2  C2  <0> d           1.528  -2.508  -0.033  0.00  0.00    -0.063 C 
ATOM      3  C3  <0> d           0.774  -2.016  -1.270  0.00  0.00    -0.040 C 
ATOM      4  C4  <0> d           0.716  -0.489  -1.262  0.00  0.00     0.051 C 
ATOM      5  H1  <0> d           0.172  -0.142  -2.141  0.00  0.00     0.084 H 
ATOM      6  C5  <0> d           0.002  -0.004   0.002  0.00  0.00    -0.028 C 
ATOM      7  H2  <0> d          -1.020  -0.383   0.020  0.00  0.00     0.043 H 
ATOM      8  C6  <0> d           0.756  -0.502   1.237  0.00  0.00    -0.059 C 
ATOM      9  C7  <0> d          -0.019   1.529   0.010  0.00  0.00    -0.051 C 
ATOM     10  C8  <0> d           1.426   2.044  -0.001  0.00  0.00     0.016 C 
ATOM     11  C9  <0> d           2.159   1.391  -1.151  0.00  0.00     0.259 C 
ATOM     12  O1  <0> d           2.809   2.051  -1.928  0.00  0.00    -0.265 OA
ATOM     13  O2  <0> d           2.066   0.052  -1.287  0.00  0.00    -0.316 OA
ATOM     14  H3  <0> d           1.337  -2.384   2.109  0.00  0.00     0.033 H 
ATOM     15  H4  <0> d          -0.213  -2.426   1.234  0.00  0.00     0.033 H 
ATOM     16  H5  <0> d           2.542  -2.109  -0.043  0.00  0.00     0.033 H 
ATOM     17  H6  <0> d           1.566  -3.598  -0.040  0.00  0.00     0.033 H 
ATOM     18  H7  <0> d           1.290  -2.355  -2.168  0.00  0.00     0.036 H 
ATOM     19  H8  <0> d          -0.240  -2.417  -1.260  0.00  0.00     0.036 H 
ATOM     20  H9  <0> d           1.772  -0.107   1.226  0.00  0.00     0.033 H 
ATOM     21  H10 <0> d           0.244  -0.161   2.137  0.00  0.00     0.033 H 
ATOM     22  H11 <0> d          -0.543   1.892  -0.874  0.00  0.00     0.034 H 
ATOM     23  H12 <0> d          -0.526   1.882   0.908  0.00  0.00     0.034 H 
ATOM     24  H13 <0> d           1.427   3.126  -0.132  0.00  0.00     0.048 H 
ATOM     25  H14 <0> d           1.914   1.785   0.939  0.00  0.00     0.048 H 
ENDROOT
TORSDOF 0
