REMARK  3 active torsions:
REMARK  status: ('A' for Active; 'I' for Inactive)
REMARK    1  A    between atoms: C1_1  and  O1_2 
REMARK    2  A    between atoms: O1_2  and  C2_3 
REMARK    3  A    between atoms: C4_5  and  C7_9 
ROOT
ATOM      1  C2  <0> d           2.468   5.120   0.005  0.00  0.00     0.086 A 
ATOM      2  C3  <0> d           2.470   3.731  -0.002  0.00  0.00    -0.031 A 
ATOM      3  C4  <0> d           1.238   3.067   0.007  0.00  0.00     0.060 A 
ATOM      4  C5  <0> d           0.064   3.822   0.016  0.00  0.00     0.018 A 
ATOM      5  N1  <0> d           0.112   5.138   0.027  0.00  0.00    -0.269 NA
ATOM      6  C6  <0> d           1.256   5.795   0.020  0.00  0.00     0.034 A 
ATOM      7  H4  <0> d           3.398   3.178  -0.013  0.00  0.00     0.089 H 
ATOM      8  H5  <0> d          -0.893   3.322   0.018  0.00  0.00     0.116 H 
ATOM      9  H6  <0> d           1.248   6.875   0.026  0.00  0.00     0.119 H 
ENDROOT
BRANCH   1  10
ATOM     10  O1  <0> d           3.640   5.809  -0.003  0.00  0.00    -0.354 OA
BRANCH  10  11
ATOM     11  C1  <0> d           3.553   7.235   0.005  0.00  0.00     0.010 C 
ATOM     12  H1  <0> d           3.009   7.571  -0.877  0.00  0.00     0.066 H 
ATOM     13  H2  <0> d           3.027   7.562   0.902  0.00  0.00     0.066 H 
ATOM     14  H3  <0> d           4.556   7.660  -0.002  0.00  0.00     0.066 H 
ENDBRANCH  10  11
ENDBRANCH   1  10
BRANCH   3  15
ATOM     15  C7  <0> d           1.181   1.591  -0.001  0.00  0.00     0.210 C 
ATOM     16  O2  <0> d           2.208   0.943  -0.014  0.00  0.00    -0.644 OA
ATOM     17  O3  <0> d          -0.011   0.963   0.007  0.00  0.00    -0.644 OA
ENDBRANCH   3  15
TORSDOF 3
