REMARK  3 active torsions:
REMARK  status: ('A' for Active; 'I' for Inactive)
REMARK    1  A    between atoms: C1_1  and  C2_2 
REMARK    2  A    between atoms: C7_8  and  C8_10 
REMARK    3  A    between atoms: C8_10  and  C9_11 
ROOT
ATOM      1  C2  <0> d          -0.729   1.579   1.267  0.00  0.00    -0.054 C 
ATOM      2  H1  <0> d          -0.744   2.669   1.273  0.00  0.00     0.040 H 
ATOM      3  C3  <0> d           0.011   1.072   2.506  0.00  0.00    -0.062 C 
ATOM      4  C4  <0> d           0.032  -0.457   2.498  0.00  0.00    -0.065 C 
ATOM      5  C5  <0> d          -1.403  -0.987   2.509  0.00  0.00    -0.065 C 
ATOM      6  C6  <0> d          -2.143  -0.480   1.269  0.00  0.00    -0.061 C 
ATOM      7  C7  <0> d          -2.164   1.050   1.278  0.00  0.00    -0.042 C 
ATOM      8  H2  <0> d          -2.674   1.401   2.175  0.00  0.00     0.041 H 
ATOM      9  H6  <0> d           1.034   1.450   2.499  0.00  0.00     0.033 H 
ATOM     10  H7  <0> d          -0.499   1.424   3.403  0.00  0.00     0.033 H 
ATOM     11  H8  <0> d           0.542  -0.809   1.601  0.00  0.00     0.033 H 
ATOM     12  H9  <0> d           0.559  -0.819   3.381  0.00  0.00     0.033 H 
ATOM     13  H10 <0> d          -1.389  -2.077   2.503  0.00  0.00     0.033 H 
ATOM     14  H11 <0> d          -1.914  -0.635   3.406  0.00  0.00     0.033 H 
ATOM     15  H12 <0> d          -1.633  -0.832   0.372  0.00  0.00     0.033 H 
ATOM     16  H13 <0> d          -3.166  -0.858   1.277  0.00  0.00     0.033 H 
ENDROOT
BRANCH   7  17
ATOM     17  C8  <0> d          -2.904   1.556   0.038  0.00  0.00     0.019 C 
ATOM     18  H14 <0> d          -2.842   2.644  -0.003  0.00  0.00     0.049 H 
ATOM     19  H15 <0> d          -2.447   1.133  -0.856  0.00  0.00     0.049 H 
BRANCH  17  20
ATOM     20  C9  <0> d          -4.350   1.138   0.110  0.00  0.00     0.172 C 
ATOM     21  O1  <0> d          -4.748   0.499   1.056  0.00  0.00    -0.648 OA
ATOM     22  O2  <0> d          -5.196   1.474  -0.876  0.00  0.00    -0.648 OA
ENDBRANCH  17  20
ENDBRANCH   7  17
BRANCH   1  23
ATOM     23  C1  <0> d          -0.013   1.086   0.008  0.00  0.00    -0.073 C 
ATOM     24  H3  <0> d           0.002  -0.004   0.002  0.00  0.00     0.028 H 
ATOM     25  H4  <0> d           1.010   1.463   0.000  0.00  0.00     0.028 H 
ATOM     26  H5  <0> d          -0.540   1.447  -0.875  0.00  0.00     0.028 H 
ENDBRANCH   1  23
TORSDOF 3
