REMARK  1 active torsions:
REMARK  status: ('A' for Active; 'I' for Inactive)
REMARK    1  A    between atoms: C8_9  and  N1_10 
ROOT
ATOM      1  C1  <0> d          -0.661  -2.307  -0.004  0.00  0.00    -0.055 A 
ATOM      2  C2  <0> d          -0.995  -0.971   0.006  0.00  0.00    -0.047 A 
ATOM      3  C3  <0> d           0.002  -0.004   0.002  0.00  0.00     0.085 A 
ATOM      4  C4  <0> d           1.349  -0.402  -0.013  0.00  0.00     0.002 A 
ATOM      5  C5  <0> d           2.127   0.843  -0.014  0.00  0.00    -0.049 A 
ATOM      6  C6  <0> d           1.233   1.842   0.000  0.00  0.00     0.020 A 
ATOM      7  O1  <0> d          -0.016   1.345   0.009  0.00  0.00    -0.322 OA
ATOM      8  C7  <0> d           1.681  -1.756  -0.023  0.00  0.00    -0.045 A 
ATOM      9  C8  <0> d           0.674  -2.705  -0.018  0.00  0.00     0.026 A 
ATOM     10  H1  <0> d          -1.442  -3.054   0.000  0.00  0.00     0.087 H 
ATOM     11  H2  <0> d          -2.034  -0.674   0.018  0.00  0.00     0.087 H 
ATOM     12  H3  <0> d           3.203   0.936  -0.024  0.00  0.00     0.087 H 
ATOM     13  H4  <0> d           1.481   2.893   0.003  0.00  0.00     0.123 H 
ATOM     14  H5  <0> d           2.716  -2.062  -0.034  0.00  0.00     0.088 H 
ENDROOT
BRANCH   9  15
ATOM     15  N1  <0> d           0.997  -4.066  -0.028  0.00  0.00    -0.399 N 
ATOM     16  H6  <0> d           0.292  -4.732  -0.024  0.00  0.00     0.156 HD
ATOM     17  H7  <0> d           1.926  -4.344  -0.038  0.00  0.00     0.156 HD
ENDBRANCH   9  15
TORSDOF 1
