REMARK  0 active torsions:
REMARK  status: ('A' for Active; 'I' for Inactive)
ROOT
ATOM      1  C1  <0> d          -0.018   1.507   0.010  0.00  0.00    -0.083 A 
ATOM      2  C2  <0> d           1.247   1.922   0.001  0.00  0.00    -0.054 A 
ATOM      3  C3  <0> d           2.150   0.772  -0.014  0.00  0.00     0.096 A 
ATOM      4  C4  <0> d           3.543   0.667  -0.028  0.00  0.00     0.247 A 
ATOM      5  O1  <0> d           4.316   1.785  -0.029  0.00  0.00    -0.166 OA
ATOM      6  N1  <0> d           4.103  -0.536  -0.039  0.00  0.00    -0.114 NA
ATOM      7  N2  <0> d           3.394  -1.608  -0.038  0.00  0.00    -0.088 NA
ATOM      8  C5  <0> d           2.056  -1.569  -0.026  0.00  0.00     0.367 A 
ATOM      9  O2  <0> d           1.416  -2.607  -0.025  0.00  0.00    -0.243 OA
ATOM     10  N3  <0> d           1.416  -0.385  -0.013  0.00  0.00    -0.289 N 
ATOM     11  C6  <0> d           0.002  -0.004   0.002  0.00  0.00     0.020 A 
ATOM     12  H1  <0> d          -0.897   2.135   0.026  0.00  0.00     0.079 H 
ATOM     13  H2  <0> d           1.560   2.955   0.003  0.00  0.00     0.086 H 
ATOM     14  H3  <0> d          -0.482  -0.392   0.899  0.00  0.00     0.071 H 
ATOM     15  H4  <0> d          -0.499  -0.382  -0.889  0.00  0.00     0.071 H 
ENDROOT
TORSDOF 0
