REMARK  6 active torsions:
REMARK  status: ('A' for Active; 'I' for Inactive)
REMARK    1  A    between atoms: C1_1  and  C2_2 
REMARK    2  A    between atoms: C2_2  and  O1_3 
REMARK    3  A    between atoms: O1_3  and  C3_4 
REMARK    4  A    between atoms: C3_4  and  C4_6 
REMARK    5  A    between atoms: C4_6  and  C5_7 
REMARK    6  A    between atoms: C5_7  and  N2_9 
ROOT
ATOM      1  C3  <0> d          -0.014   1.204   0.009  0.00  0.00     0.286 C 
ATOM      2  O2  <0> d           0.002  -0.004   0.002  0.00  0.00    -0.260 OA
ENDROOT
BRANCH   1   3
ATOM      3  O1  <0> d           1.139   1.891   0.001  0.00  0.00    -0.318 OA
BRANCH   3   4
ATOM      4  C2  <0> d           2.367   1.117  -0.015  0.00  0.00     0.026 C 
ATOM      5  H4  <0> d           2.392   0.487  -0.916  0.00  0.00     0.074 H 
ATOM      6  H5  <0> d           2.409   0.478   0.880  0.00  0.00     0.074 H 
BRANCH   4   7
ATOM      7  C1  <0> d           3.568   2.065  -0.021  0.00  0.00    -0.056 C 
ATOM      8  H1  <0> d           4.498   1.479  -0.033  0.00  0.00     0.030 H 
ATOM      9  H2  <0> d           3.542   2.695   0.881  0.00  0.00     0.030 H 
ATOM     10  H3  <0> d           3.525   2.704  -0.915  0.00  0.00     0.030 H 
ENDBRANCH   4   7
ENDBRANCH   3   4
ENDBRANCH   1   3
BRANCH   1  11
ATOM     11  C4  <0> d          -1.329   1.940   0.019  0.00  0.00     0.031 C 
ATOM     12  H6  <0> d          -1.545   3.018   0.026  0.00  0.00     0.098 H 
BRANCH  11  13
ATOM     13  C5  <0> d          -2.462   0.945   0.019  0.00  0.00     0.098 C 
ATOM     14  N1  <0> d          -2.208  -0.323   0.011  0.00  0.00    -0.386 N 
ATOM     15  H7  <0> d          -3.034  -1.049   0.011  0.00  0.00     0.157 HD
ATOM     16  H10 <0> d          -1.166  -0.676   0.004  0.00  0.00     0.157 HD
BRANCH  13  17
ATOM     17  N2  <0> d          -3.759   1.384   0.027  0.00  0.00    -0.386 N 
ATOM     18  H8  <0> d          -4.585   0.658   0.027  0.00  0.00     0.157 HD
ATOM     19  H9  <0> d          -3.975   2.463   0.034  0.00  0.00     0.157 HD
ENDBRANCH  13  17
ENDBRANCH  11  13
ENDBRANCH   1  11
TORSDOF 6
