REMARK  7 active torsions:
REMARK  status: ('A' for Active; 'I' for Inactive)
REMARK    1  A    between atoms: C1_1  and  C2_2 
REMARK    2  A    between atoms: C2_2  and  C3_3 
REMARK    3  A    between atoms: C3_3  and  C4_4 
REMARK    4  A    between atoms: C3_3  and  C6_6 
REMARK    5  A    between atoms: C3_3  and  O1_8 
REMARK    6  A    between atoms: C4_4  and  C5_5 
REMARK    7  A    between atoms: C6_6  and  C7_7 
ROOT
ATOM      1  C3  <0> d           1.287   1.543  -0.115  0.00  0.00     0.057 C 
ENDROOT
BRANCH   1   2
ATOM      2  C2  <0> d           0.992   3.041  -0.013  0.00  0.00    -0.040 C 
ATOM      3  H4  <0> d           0.497   3.377  -0.924  0.00  0.00     0.036 H 
ATOM      4  H5  <0> d           0.342   3.225   0.842  0.00  0.00     0.036 H 
BRANCH   2   5
ATOM      5  C1  <0> d           2.303   3.808   0.168  0.00  0.00    -0.074 C 
ATOM      6  H1  <0> d           2.813   3.450   1.062  0.00  0.00     0.027 H 
ATOM      7  H2  <0> d           2.940   3.648  -0.702  0.00  0.00     0.027 H 
ATOM      8  H3  <0> d           2.090   4.872   0.272  0.00  0.00     0.027 H 
ENDBRANCH   2   5
ENDBRANCH   1   2
BRANCH   1   9
ATOM      9  C4  <0> d           1.926   1.059   1.188  0.00  0.00    -0.040 C 
ATOM     10  H6  <0> d           2.110  -0.014   1.126  0.00  0.00     0.036 H 
ATOM     11  H7  <0> d           2.870   1.581   1.345  0.00  0.00     0.036 H 
BRANCH   9  12
ATOM     12  C5  <0> d           0.982   1.347   2.357  0.00  0.00    -0.074 C 
ATOM     13  H8  <0> d           0.003   0.914   2.149  0.00  0.00     0.027 H 
ATOM     14  H9  <0> d           1.387   0.908   3.268  0.00  0.00     0.027 H 
ATOM     15  H10 <0> d           0.882   2.425   2.486  0.00  0.00     0.027 H 
ENDBRANCH   9  12
ENDBRANCH   1   9
BRANCH   1  16
ATOM     16  C6  <0> d           2.248   1.291  -1.279  0.00  0.00    -0.040 C 
ATOM     17  H11 <0> d           3.208   1.760  -1.065  0.00  0.00     0.036 H 
ATOM     18  H12 <0> d           2.389   0.218  -1.408  0.00  0.00     0.036 H 
BRANCH  16  19
ATOM     19  C7  <0> d           1.663   1.886  -2.561  0.00  0.00    -0.074 C 
ATOM     20  H13 <0> d           0.703   1.417  -2.775  0.00  0.00     0.027 H 
ATOM     21  H14 <0> d           1.522   2.960  -2.432  0.00  0.00     0.027 H 
ATOM     22  H15 <0> d           2.348   1.707  -3.390  0.00  0.00     0.027 H 
ENDBRANCH  16  19
ENDBRANCH   1  16
BRANCH   1  23
ATOM     23  O1  <0> d           0.068   0.832  -0.341  0.00  0.00    -0.390 OA
ATOM     24  H16 <0> d           0.180  -0.126  -0.417  0.00  0.00     0.210 HD
ENDBRANCH   1  23
TORSDOF 7
