REMARK  2 active torsions:
REMARK  status: ('A' for Active; 'I' for Inactive)
REMARK    1  A    between atoms: C1_1  and  N1_2 
REMARK    2  A    between atoms: N1_2  and  C2_3 
ROOT
ATOM      1  C2  <0> d           2.303   0.046  -0.020  0.00  0.00     0.721 A 
ATOM      2  N2  <0> d           1.165  -0.633  -0.013  0.00  0.00    -0.075 NA
ATOM      3  C3  <0> d           0.002  -0.004   0.002  0.00  0.00     0.022 A 
ATOM      4  C4  <0> d          -0.017   1.382   0.010  0.00  0.00    -0.048 A 
ATOM      5  C5  <0> d           1.192   2.061   0.002  0.00  0.00     0.022 A 
ATOM      6  N3  <0> d           2.320   1.371  -0.013  0.00  0.00    -0.075 NA
ATOM      7  H5  <0> d          -0.922  -0.563   0.007  0.00  0.00     0.115 H 
ATOM      8  H6  <0> d          -0.953   1.921   0.017  0.00  0.00     0.087 H 
ATOM      9  H7  <0> d           1.212   3.141   0.007  0.00  0.00     0.115 H 
ENDROOT
BRANCH   1  10
ATOM     10  N1  <0> d           3.502  -0.645  -0.034  0.00  0.00    -0.227 N 
ATOM     11  H4  <0> d           3.503  -1.615  -0.039  0.00  0.00     0.177 HD
BRANCH  10  12
ATOM     12  C1  <0> d           4.770   0.089  -0.043  0.00  0.00    -0.005 C 
ATOM     13  H1  <0> d           4.819   0.720  -0.930  0.00  0.00     0.057 H 
ATOM     14  H2  <0> d           4.836   0.711   0.850  0.00  0.00     0.057 H 
ATOM     15  H3  <0> d           5.599  -0.619  -0.054  0.00  0.00     0.057 H 
ENDBRANCH  10  12
ENDBRANCH   1  10
TORSDOF 2
