REMARK  3 active torsions:
REMARK  status: ('A' for Active; 'I' for Inactive)
REMARK    1  A    between atoms: C1_1  and  C2_2 
REMARK    2  A    between atoms: C2_2  and  C3_4 
REMARK    3  A    between atoms: C3_4  and  N1_5 
ROOT
ATOM      1  C2  <0> d          -0.729   1.579   1.267  0.00  0.00     0.044 C 
ATOM      2  H1  <0> d          -0.202   1.218   2.150  0.00  0.00     0.064 H 
ATOM      3  C7  <0> d          -0.749   3.051   1.275  0.00  0.00     0.065 C 
ATOM      4  N3  <0> d          -0.764   4.187   1.281  0.00  0.00    -0.197 NA
ENDROOT
BRANCH   1   5
ATOM      5  C1  <0> d          -0.013   1.086   0.008  0.00  0.00    -0.059 C 
ATOM      6  H2  <0> d           0.002  -0.004   0.002  0.00  0.00     0.029 H 
ATOM      7  H3  <0> d           1.010   1.463   0.000  0.00  0.00     0.029 H 
ATOM      8  H4  <0> d          -0.540   1.447  -0.875  0.00  0.00     0.029 H 
ENDBRANCH   1   5
BRANCH   1   9
ATOM      9  C3  <0> d          -2.164   1.050   1.278  0.00  0.00     0.031 C 
ATOM     10  H5  <0> d          -2.701   1.472   2.127  0.00  0.00     0.069 H 
ATOM     11  H6  <0> d          -2.664   1.336   0.353  0.00  0.00     0.069 H 
BRANCH   9  12
ATOM     12  N1  <0> d          -2.145  -0.411   1.390  0.00  0.00    -0.280 N 
ATOM     13  N2  <0> d          -1.465  -1.294   0.541  0.00  0.00    -0.185 NA
ATOM     14  C6  <0> d          -1.685  -2.514   0.959  0.00  0.00     0.023 A 
ATOM     15  C5  <0> d          -2.511  -2.447   2.086  0.00  0.00    -0.048 A 
ATOM     16  H9  <0> d          -1.297  -3.417   0.512  0.00  0.00     0.117 H 
ATOM     17  C4  <0> d          -2.774  -1.143   2.333  0.00  0.00    -0.000 A 
ATOM     18  H8  <0> d          -2.872  -3.288   2.660  0.00  0.00     0.087 H 
ATOM     19  H7  <0> d          -3.381  -0.757   3.139  0.00  0.00     0.114 H 
ENDBRANCH   9  12
ENDBRANCH   1   9
TORSDOF 3
