REMARK  1 active torsions:
REMARK  status: ('A' for Active; 'I' for Inactive)
REMARK    1  A    between atoms: C3_3  and  C6_9 
ROOT
ATOM      1  C1  <0> d          -0.019   1.525   0.010  0.00  0.00    -0.049 C 
ATOM      2  C2  <0> d           1.427   2.036  -0.001  0.00  0.00    -0.043 C 
ATOM      3  C3  <0> d           2.055   1.681  -1.351  0.00  0.00     0.107 C 
ATOM      4  H1  <0> d           1.617   2.305  -2.129  0.00  0.00     0.071 H 
ATOM      5  C4  <0> d           1.801   0.235  -1.668  0.00  0.00     0.232 C 
ATOM      6  O1  <0> d           2.485  -0.295  -2.518  0.00  0.00    -0.273 OA
ATOM      7  N1  <0> d           0.862  -0.497  -1.067  0.00  0.00    -0.360 N 
ATOM      8  C5  <0> d           0.002  -0.004   0.002  0.00  0.00    -0.005 C 
ATOM      9  H2  <0> d          -0.525   1.879   0.909  0.00  0.00     0.035 H 
ATOM     10  H3  <0> d          -0.542   1.889  -0.874  0.00  0.00     0.035 H 
ATOM     11  H4  <0> d           1.435   3.117   0.135  0.00  0.00     0.035 H 
ATOM     12  H5  <0> d           1.990   1.560   0.802  0.00  0.00     0.035 H 
ATOM     13  H6  <0> d           0.745  -1.414  -1.358  0.00  0.00     0.162 HD
ATOM     14  H7  <0> d           0.375  -0.365   0.961  0.00  0.00     0.064 H 
ATOM     15  H8  <0> d          -1.011  -0.377  -0.150  0.00  0.00     0.064 H 
ENDROOT
BRANCH   3  16
ATOM     16  C6  <0> d           3.541   1.924  -1.291  0.00  0.00     0.186 C 
ATOM     17  O2  <0> d           4.297   1.250  -1.969  0.00  0.00    -0.647 OA
ATOM     18  O3  <0> d           3.988   2.795  -0.564  0.00  0.00    -0.647 OA
ENDBRANCH   3  16
TORSDOF 1
