REMARK  1 active torsions:
REMARK  status: ('A' for Active; 'I' for Inactive)
REMARK    1  A    between atoms: C3_3  and  C5_7 
ROOT
ATOM      1  C1  <0> d           1.553   2.402   1.333  0.00  0.00    -0.042 C 
ATOM      2  C2  <0> d           1.429   1.629  -0.003  0.00  0.00    -0.029 C 
ATOM      3  C3  <0> d          -0.013   1.086   0.008  0.00  0.00     0.122 C 
ATOM      4  H1  <0> d           0.002  -0.004   0.002  0.00  0.00     0.100 H 
ATOM      5  O1  <0> d          -0.639   1.560   1.212  0.00  0.00    -0.375 OA
ATOM      6  C4  <0> d           0.413   1.778   2.177  0.00  0.00     0.021 C 
ATOM      7  H2  <0> d           2.523   2.224   1.797  0.00  0.00     0.036 H 
ATOM      8  H3  <0> d           1.386   3.469   1.182  0.00  0.00     0.036 H 
ATOM      9  H4  <0> d           2.146   0.809  -0.037  0.00  0.00     0.037 H 
ATOM     10  H5  <0> d           1.577   2.302  -0.848  0.00  0.00     0.037 H 
ATOM     11  H6  <0> d           0.734   0.833   2.615  0.00  0.00     0.074 H 
ATOM     12  H7  <0> d           0.087   2.470   2.953  0.00  0.00     0.074 H 
ENDROOT
BRANCH   3  13
ATOM     13  C5  <0> d          -0.761   1.595  -1.197  0.00  0.00     0.203 C 
ATOM     14  O2  <0> d          -1.700   2.341  -1.054  0.00  0.00    -0.646 OA
ATOM     15  O3  <0> d          -0.385   1.218  -2.429  0.00  0.00    -0.646 OA
ENDBRANCH   3  13
TORSDOF 1
