REMARK  4 active torsions:
REMARK  status: ('A' for Active; 'I' for Inactive)
REMARK    1  A    between atoms: C1_1  and  N1_2 
REMARK    2  A    between atoms: C3_4  and  C6_9 
REMARK    3  A    between atoms: C4_5  and  O1_7 
REMARK    4  A    between atoms: O1_7  and  C5_8 
ROOT
ATOM      1  N1  <0> d           0.644   5.175   0.022  0.00  0.00    -0.282 N 
ATOM      2  C2  <0> d           0.159   3.925   0.015  0.00  0.00     0.019 A 
ATOM      3  C3  <0> d           1.238   3.061   0.007  0.00  0.00     0.112 A 
ATOM      4  C4  <0> d           2.410   3.858  -0.000  0.00  0.00     0.202 A 
ATOM      5  N2  <0> d           2.042   5.113   0.009  0.00  0.00    -0.147 NA
ATOM      6  H4  <0> d          -0.883   3.644   0.019  0.00  0.00     0.116 H 
ENDROOT
BRANCH   4   7
ATOM      7  O1  <0> d           3.689   3.401  -0.015  0.00  0.00    -0.337 OA
BRANCH   7   8
ATOM      8  C5  <0> d           4.729   4.381  -0.019  0.00  0.00     0.012 C 
ATOM      9  H5  <0> d           5.707   3.878  -0.031  0.00  0.00     0.067 H 
ATOM     10  H6  <0> d           4.649   5.005   0.883  0.00  0.00     0.067 H 
ATOM     11  H7  <0> d           4.632   5.014  -0.913  0.00  0.00     0.067 H 
ENDBRANCH   7   8
ENDBRANCH   4   7
BRANCH   3  12
ATOM     12  C6  <0> d           1.181   1.591  -0.001  0.00  0.00     0.215 C 
ATOM     13  O2  <0> d           2.209   0.943  -0.014  0.00  0.00    -0.644 OA
ATOM     14  O3  <0> d          -0.011   0.963   0.007  0.00  0.00    -0.644 OA
ENDBRANCH   3  12
BRANCH   1  15
ATOM     15  C1  <0> d          -0.157   6.402   0.036  0.00  0.00     0.002 C 
ATOM     16  H1  <0> d          -1.226   6.142   0.044  0.00  0.00     0.059 H 
ATOM     17  H2  <0> d           0.069   6.997  -0.862  0.00  0.00     0.059 H 
ATOM     18  H3  <0> d           0.085   6.988   0.934  0.00  0.00     0.059 H 
ENDBRANCH   1  15
TORSDOF 4
