REMARK  2 active torsions:
REMARK  status: ('A' for Active; 'I' for Inactive)
REMARK    1  A    between atoms: C1_1  and  C2_2 
REMARK       I    between atoms: C2_2  and  N1_4 
REMARK    2  A    between atoms: C6_8  and  O2_12 
ROOT
ATOM      1  C2  <0> d           0.002  -0.004   0.002  0.00  0.00     0.215 C 
ATOM      2  O1  <0> d           1.060  -0.596  -0.011  0.00  0.00    -0.274 OA
ATOM      3  N1  <0> d          -1.156  -0.694   0.009  0.00  0.00    -0.352 N 
ATOM      4  C3  <0> d          -2.427   0.057   0.019  0.00  0.00    -0.002 C 
ATOM      5  C4  <0> d          -3.457  -0.560   0.982  0.00  0.00    -0.048 C 
ATOM      6  C5  <0> d          -2.778  -1.003   2.254  0.00  0.00    -0.040 C 
ATOM      7  C6  <0> d          -2.356  -2.463   2.120  0.00  0.00     0.037 C 
ATOM      8  H1  <0> d          -3.116  -2.992   1.545  0.00  0.00     0.083 H 
ATOM      9  C7  <0> d          -1.054  -2.659   1.464  0.00  0.00    -0.026 C 
ATOM     10  C8  <0> d          -1.102  -2.139   0.001  0.00  0.00    -0.000 C 
ATOM     11  H5  <0> d          -2.228   1.085   0.324  0.00  0.00     0.064 H 
ATOM     12  H6  <0> d          -2.842   0.063  -0.988  0.00  0.00     0.064 H 
ATOM     13  H7  <0> d          -4.220   0.182   1.219  0.00  0.00     0.035 H 
ATOM     14  H8  <0> d          -3.928  -1.419   0.505  0.00  0.00     0.035 H 
ATOM     15  H9  <0> d          -1.898  -0.385   2.431  0.00  0.00     0.036 H 
ATOM     16  H10 <0> d          -3.469  -0.900   3.091  0.00  0.00     0.036 H 
ATOM     17  H11 <0> d          -0.286  -2.117   2.016  0.00  0.00     0.039 H 
ATOM     18  H12 <0> d          -0.809  -3.721   1.460  0.00  0.00     0.039 H 
ATOM     19  H13 <0> d          -1.989  -2.532  -0.496  0.00  0.00     0.064 H 
ATOM     20  H14 <0> d          -0.211  -2.466  -0.535  0.00  0.00     0.064 H 
ENDROOT
BRANCH   1  21
ATOM     21  C1  <0> d          -0.018   1.503   0.010  0.00  0.00    -0.003 C 
ATOM     22  H2  <0> d           1.004   1.880   0.003  0.00  0.00     0.040 H 
ATOM     23  H3  <0> d          -0.545   1.864  -0.873  0.00  0.00     0.040 H 
ATOM     24  H4  <0> d          -0.529   1.854   0.907  0.00  0.00     0.040 H 
ENDBRANCH   1  21
BRANCH   7  25
ATOM     25  O2  <0> d          -2.294  -3.040   3.426  0.00  0.00    -0.396 OA
ATOM     26  H15 <0> d          -2.033  -3.970   3.433  0.00  0.00     0.210 HD
ENDBRANCH   7  25
TORSDOF 2
