REMARK  7 active torsions:
REMARK  status: ('A' for Active; 'I' for Inactive)
REMARK    1  A    between atoms: C1_1  and  C2_2 
REMARK    2  A    between atoms: C2_2  and  C3_3 
REMARK    3  A    between atoms: C3_3  and  C4_4 
REMARK    4  A    between atoms: C4_4  and  C5_5 
REMARK    5  A    between atoms: C4_4  and  C6_7 
REMARK    6  A    between atoms: C5_5  and  O1_6 
REMARK    7  A    between atoms: C6_7  and  O2_8 
ROOT
ATOM      1  C4  <0> d          -0.013   1.086   0.008  0.00  0.00    -0.013 C 
ATOM      2  H8  <0> d           0.002  -0.004   0.002  0.00  0.00     0.046 H 
ENDROOT
BRANCH   1   3
ATOM      3  C3  <0> d          -0.729   1.579   1.267  0.00  0.00    -0.058 C 
ATOM      4  H6  <0> d          -0.154   1.294   2.148  0.00  0.00     0.033 H 
ATOM      5  H7  <0> d          -0.822   2.665   1.230  0.00  0.00     0.033 H 
BRANCH   3   6
ATOM      6  C2  <0> d          -2.121   0.950   1.341  0.00  0.00    -0.068 C 
ATOM      7  H4  <0> d          -2.697   1.235   0.460  0.00  0.00     0.032 H 
ATOM      8  H5  <0> d          -2.028  -0.136   1.378  0.00  0.00     0.032 H 
BRANCH   6   9
ATOM      9  C1  <0> d          -2.837   1.443   2.600  0.00  0.00    -0.077 C 
ATOM     10  H1  <0> d          -2.262   1.158   3.481  0.00  0.00     0.027 H 
ATOM     11  H2  <0> d          -2.931   2.529   2.563  0.00  0.00     0.027 H 
ATOM     12  H3  <0> d          -3.830   0.995   2.653  0.00  0.00     0.027 H 
ENDBRANCH   6   9
ENDBRANCH   3   6
ENDBRANCH   1   3
BRANCH   1  13
ATOM     13  C5  <0> d           1.423   1.615  -0.003  0.00  0.00     0.022 C 
ATOM     14  H9  <0> d           1.408   2.702  -0.086  0.00  0.00     0.074 H 
ATOM     15  H10 <0> d           1.923   1.329   0.922  0.00  0.00     0.074 H 
BRANCH  13  16
ATOM     16  O1  <0> d           2.126   1.061  -1.116  0.00  0.00    -0.400 OA
ATOM     17  H11 <0> d           3.045   1.354  -1.186  0.00  0.00     0.209 HD
ENDBRANCH  13  16
ENDBRANCH   1  13
BRANCH   1  18
ATOM     18  C6  <0> d          -0.753   1.593  -1.232  0.00  0.00     0.022 C 
ATOM     19  H12 <0> d          -1.798   1.290  -1.179  0.00  0.00     0.074 H 
ATOM     20  H13 <0> d          -0.691   2.680  -1.272  0.00  0.00     0.074 H 
BRANCH  18  21
ATOM     21  O2  <0> d          -0.154   1.037  -2.404  0.00  0.00    -0.400 OA
ATOM     22  H14 <0> d          -0.573   1.316  -3.230  0.00  0.00     0.209 HD
ENDBRANCH  18  21
ENDBRANCH   1  18
TORSDOF 7
