REMARK  6 active torsions:
REMARK  status: ('A' for Active; 'I' for Inactive)
REMARK    1  A    between atoms: C1_1  and  C2_2 
REMARK    2  A    between atoms: C2_2  and  C3_3 
REMARK    3  A    between atoms: C3_3  and  C4_5 
REMARK    4  A    between atoms: C3_3  and  O1_12 
REMARK    5  A    between atoms: N2_8  and  C7_10 
REMARK    6  A    between atoms: C7_10  and  C8_11 
ROOT
ATOM      1  C4  <0> d          -0.621   1.658   3.743  0.00  0.00     0.007 A 
ATOM      2  C5  <0> d          -1.735   1.149   4.417  0.00  0.00     0.032 A 
ATOM      3  N1  <0> d          -1.982   1.925   5.442  0.00  0.00    -0.185 NA
ATOM      4  N2  <0> d          -1.037   2.958   5.446  0.00  0.00    -0.281 N 
ATOM      5  C6  <0> d          -0.213   2.772   4.394  0.00  0.00     0.008 A 
ATOM      6  H7  <0> d          -2.294   0.267   4.142  0.00  0.00     0.118 H 
ATOM      7  H8  <0> d           0.622   3.400   4.120  0.00  0.00     0.115 H 
ENDROOT
BRANCH   1   8
ATOM      8  C3  <0> d           0.011   1.072   2.506  0.00  0.00     0.063 C 
ATOM      9  H1  <0> d           1.083   1.318   2.469  0.00  0.00     0.090 H 
BRANCH   8  10
ATOM     10  C2  <0> d          -0.729   1.579   1.267  0.00  0.00    -0.040 C 
ATOM     11  H5  <0> d          -0.744   2.679   1.273  0.00  0.00     0.036 H 
ATOM     12  H6  <0> d          -1.761   1.198   1.275  0.00  0.00     0.036 H 
BRANCH  10  13
ATOM     13  C1  <0> d          -0.013   1.086   0.008  0.00  0.00    -0.074 C 
ATOM     14  H2  <0> d          -0.545   1.450  -0.883  0.00  0.00     0.027 H 
ATOM     15  H3  <0> d           0.002  -0.014   0.002  0.00  0.00     0.027 H 
ATOM     16  H4  <0> d           1.019   1.466   0.000  0.00  0.00     0.027 H 
ENDBRANCH  10  13
ENDBRANCH   8  10
BRANCH   8  17
ATOM     17  O1  <0> d          -0.070  -0.353   2.560  0.00  0.00    -0.391 OA
ATOM     18  H14 <0> d           0.407  -0.901   3.386  0.00  0.00     0.210 HD
ENDBRANCH   8  17
ENDBRANCH   1   8
BRANCH   4  19
ATOM     19  C7  <0> d          -0.957   4.050   6.420  0.00  0.00     0.013 C 
ATOM     20  H9  <0> d          -0.717   3.639   7.412  0.00  0.00     0.066 H 
ATOM     21  H10 <0> d          -0.171   4.756   6.116  0.00  0.00     0.066 H 
BRANCH  19  22
ATOM     22  C8  <0> d          -2.301   4.778   6.482  0.00  0.00    -0.059 C 
ATOM     23  H11 <0> d          -2.242   5.597   7.213  0.00  0.00     0.029 H 
ATOM     24  H12 <0> d          -3.088   4.071   6.786  0.00  0.00     0.029 H 
ATOM     25  H13 <0> d          -2.541   5.189   5.490  0.00  0.00     0.029 H 
ENDBRANCH  19  22
ENDBRANCH   4  19
TORSDOF 6
