REMARK  3 active torsions:
REMARK  status: ('A' for Active; 'I' for Inactive)
REMARK    1  A    between atoms: C1_1  and  C2_2 
REMARK    2  A    between atoms: C2_2  and  O1_3 
REMARK    3  A    between atoms: O1_3  and  C3_4 
ROOT
ATOM      1  C3  <0> d          -1.497  -1.838   0.006  0.00  0.00     0.051 C 
ATOM      2  C4  <0> d          -0.399  -2.563  -0.003  0.00  0.00     0.010 C 
ATOM      3  C5  <0> d          -0.226  -3.935   0.017  0.00  0.00     0.243 C 
ATOM      4  O2  <0> d           0.931  -4.297  -0.087  0.00  0.00    -0.269 OA
ATOM      5  N1  <0> d          -1.094  -4.917   0.127  0.00  0.00    -0.358 N 
ATOM      6  C6  <0> d          -2.534  -4.834   0.118  0.00  0.00    -0.004 C 
ATOM      7  C7  <0> d          -3.076  -3.609   0.810  0.00  0.00    -0.045 C 
ATOM      8  C8  <0> d          -2.892  -2.344   0.017  0.00  0.00    -0.019 C 
ATOM      9  H6  <0> d           0.518  -1.993  -0.030  0.00  0.00     0.095 H 
ATOM     10  H7  <0> d          -0.719  -5.806   0.227  0.00  0.00     0.162 HD
ATOM     11  H8  <0> d          -2.876  -4.829  -0.917  0.00  0.00     0.064 H 
ATOM     12  H9  <0> d          -2.936  -5.719   0.611  0.00  0.00     0.064 H 
ATOM     13  H10 <0> d          -4.140  -3.755   0.996  0.00  0.00     0.035 H 
ATOM     14  H11 <0> d          -2.569  -3.495   1.768  0.00  0.00     0.035 H 
ATOM     15  H12 <0> d          -3.540  -1.573   0.435  0.00  0.00     0.043 H 
ATOM     16  H13 <0> d          -3.202  -2.534  -1.011  0.00  0.00     0.043 H 
ENDROOT
BRANCH   1  17
ATOM     17  O1  <0> d          -1.339  -0.499   0.012  0.00  0.00    -0.356 OA
BRANCH  17  18
ATOM     18  C2  <0> d           0.002  -0.004   0.002  0.00  0.00     0.022 C 
ATOM     19  H4  <0> d           0.512  -0.356  -0.895  0.00  0.00     0.074 H 
ATOM     20  H5  <0> d           0.529  -0.365   0.885  0.00  0.00     0.074 H 
BRANCH  18  21
ATOM     21  C1  <0> d          -0.019   1.526   0.010  0.00  0.00    -0.056 C 
ATOM     22  H1  <0> d           1.004   1.903   0.003  0.00  0.00     0.030 H 
ATOM     23  H2  <0> d          -0.546   1.887  -0.873  0.00  0.00     0.030 H 
ATOM     24  H3  <0> d          -0.529   1.877   0.907  0.00  0.00     0.030 H 
ENDBRANCH  18  21
ENDBRANCH  17  18
ENDBRANCH   1  17
TORSDOF 3
