REMARK  3 active torsions:
REMARK  status: ('A' for Active; 'I' for Inactive)
REMARK    1  A    between atoms: C1_1  and  S1_2 
REMARK    2  A    between atoms: S1_2  and  C2_4 
REMARK    3  A    between atoms: C7_9  and  O2_10 
ROOT
ATOM      1  C2  <0> d           0.848  -0.411  -1.489  0.00  0.00     0.064 A 
ATOM      2  C3  <0> d           2.206  -0.666  -1.466  0.00  0.00    -0.062 A 
ATOM      3  C4  <0> d           2.871  -0.985  -2.635  0.00  0.00    -0.081 A 
ATOM      4  C5  <0> d           2.179  -1.049  -3.831  0.00  0.00    -0.080 A 
ATOM      5  C6  <0> d           0.822  -0.795  -3.859  0.00  0.00    -0.050 A 
ATOM      6  C7  <0> d           0.151  -0.480  -2.686  0.00  0.00     0.084 A 
ATOM      7  H4  <0> d           2.748  -0.617  -0.533  0.00  0.00     0.085 H 
ATOM      8  H5  <0> d           3.932  -1.184  -2.615  0.00  0.00     0.083 H 
ATOM      9  H6  <0> d           2.701  -1.298  -4.743  0.00  0.00     0.083 H 
ATOM     10  H7  <0> d           0.282  -0.845  -4.794  0.00  0.00     0.087 H 
ENDROOT
BRANCH   1  11
ATOM     11  S1  <0> d           0.002  -0.004   0.002  0.00  0.00     0.048 S 
ATOM     12  O1  <0> d           0.868  -0.472   1.027  0.00  0.00    -0.253 OA
BRANCH  11  13
ATOM     13  C1  <0> d          -0.022   1.810   0.012  0.00  0.00    -0.003 C 
ATOM     14  H1  <0> d           1.000   2.187   0.004  0.00  0.00     0.045 H 
ATOM     15  H2  <0> d          -0.550   2.171  -0.871  0.00  0.00     0.045 H 
ATOM     16  H3  <0> d          -0.533   2.161   0.909  0.00  0.00     0.045 H 
ENDBRANCH  11  13
ENDBRANCH   1  11
BRANCH   6  17
ATOM     17  O2  <0> d          -1.185  -0.235  -2.711  0.00  0.00    -0.359 OA
ATOM     18  H8  <0> d          -1.412   0.693  -2.860  0.00  0.00     0.217 HD
ENDBRANCH   6  17
TORSDOF 3
