REMARK  2 active torsions:
REMARK  status: ('A' for Active; 'I' for Inactive)
REMARK    1  A    between atoms: C1_1  and  C2_2 
REMARK    2  A    between atoms: C4_4  and  N3_12 
ROOT
ATOM      1  C2  <0> d           0.002  -0.004   0.002  0.00  0.00    -0.031 A 
ATOM      2  C3  <0> d           0.006  -0.679  -1.185  0.00  0.00    -0.050 A 
ATOM      3  C4  <0> d           0.024  -2.074  -1.212  0.00  0.00     0.027 A 
ATOM      4  C5  <0> d           0.039  -2.794  -0.034  0.00  0.00    -0.044 A 
ATOM      5  C6  <0> d           0.036  -2.114   1.189  0.00  0.00     0.014 A 
ATOM      6  C7  <0> d           0.023  -0.706   1.204  0.00  0.00     0.068 A 
ATOM      7  N1  <0> d           0.030  -0.326   2.524  0.00  0.00    -0.277 N 
ATOM      8  H1  <0> d           0.020   0.589   2.846  0.00  0.00     0.189 HD
ATOM      9  N2  <0> d           0.052  -1.470   3.328  0.00  0.00    -0.186 NA
ATOM     10  C8  <0> d           0.048  -2.540   2.585  0.00  0.00     0.034 A 
ATOM     11  H5  <0> d          -0.006  -0.127  -2.113  0.00  0.00     0.087 H 
ATOM     12  H6  <0> d           0.052  -3.874  -0.056  0.00  0.00     0.088 H 
ATOM     13  H7  <0> d           0.062  -3.560   2.938  0.00  0.00     0.118 H 
ENDROOT
BRANCH   1  14
ATOM     14  C1  <0> d          -0.018   1.503   0.010  0.00  0.00    -0.049 C 
ATOM     15  H2  <0> d           1.004   1.880   0.003  0.00  0.00     0.033 H 
ATOM     16  H3  <0> d          -0.545   1.864  -0.873  0.00  0.00     0.033 H 
ATOM     17  H4  <0> d          -0.529   1.854   0.907  0.00  0.00     0.033 H 
ENDBRANCH   1  14
BRANCH   3  18
ATOM     18  N3  <0> d           0.027  -2.747  -2.439  0.00  0.00    -0.399 N 
ATOM     19  H8  <0> d           0.016  -2.243  -3.268  0.00  0.00     0.156 HD
ATOM     20  H9  <0> d           0.040  -3.716  -2.461  0.00  0.00     0.156 HD
ENDBRANCH   3  18
TORSDOF 2
