REMARK  3 active torsions:
REMARK  status: ('A' for Active; 'I' for Inactive)
REMARK    1  A    between atoms: C1_1  and  O1_2 
REMARK    2  A    between atoms: O1_2  and  C2_3 
REMARK    3  A    between atoms: C4_6  and  N3_9 
ROOT
ATOM      1  C2  <0> d          -1.972   1.164   1.348  0.00  0.00     0.267 A 
ATOM      2  N1  <0> d          -2.539   0.402   0.427  0.00  0.00    -0.217 NA
ATOM      3  C3  <0> d          -3.794   0.004   0.556  0.00  0.00     0.033 A 
ATOM      4  C4  <0> d          -4.521   0.408   1.672  0.00  0.00     0.061 A 
ATOM      5  C5  <0> d          -3.891   1.214   2.616  0.00  0.00     0.033 A 
ATOM      6  N2  <0> d          -2.631   1.567   2.421  0.00  0.00    -0.217 NA
ATOM      7  H4  <0> d          -4.250  -0.621  -0.198  0.00  0.00     0.118 H 
ATOM      8  H5  <0> d          -4.423   1.546   3.495  0.00  0.00     0.118 H 
ENDROOT
BRANCH   1   9
ATOM      9  O1  <0> d          -0.682   1.547   1.184  0.00  0.00    -0.324 OA
BRANCH   9  10
ATOM     10  C1  <0> d          -0.013   1.086   0.008  0.00  0.00     0.013 C 
ATOM     11  H1  <0> d           0.002  -0.004   0.002  0.00  0.00     0.067 H 
ATOM     12  H2  <0> d           1.010   1.463   0.000  0.00  0.00     0.067 H 
ATOM     13  H3  <0> d          -0.540   1.447  -0.875  0.00  0.00     0.067 H 
ENDBRANCH   9  10
ENDBRANCH   1   9
BRANCH   4  14
ATOM     14  N3  <0> d          -5.853   0.012   1.842  0.00  0.00    -0.397 N 
ATOM     15  H6  <0> d          -6.349   0.300   2.624  0.00  0.00     0.156 HD
ATOM     16  H7  <0> d          -6.281  -0.550   1.177  0.00  0.00     0.156 HD
ENDBRANCH   4  14
TORSDOF 3
