REMARK  4 active torsions:
REMARK  status: ('A' for Active; 'I' for Inactive)
REMARK    1  A    between atoms: C1_1  and  C2_2 
REMARK    2  A    between atoms: C2_2  and  C3_3 
REMARK    3  A    between atoms: C2_2  and  C4_4 
REMARK    4  A    between atoms: C6_6  and  N2_9 
ROOT
ATOM      1  C2  <0> d           0.002  -0.004   0.002  0.00  0.00    -0.012 C 
ATOM      2  H4  <0> d           0.512  -0.356  -0.895  0.00  0.00     0.049 H 
ENDROOT
BRANCH   1   3
ATOM      3  C1  <0> d          -0.019   1.526   0.010  0.00  0.00    -0.067 C 
ATOM      4  H1  <0> d           1.004   1.903   0.003  0.00  0.00     0.028 H 
ATOM      5  H2  <0> d          -0.546   1.887  -0.873  0.00  0.00     0.028 H 
ATOM      6  H3  <0> d          -0.529   1.877   0.907  0.00  0.00     0.028 H 
ENDBRANCH   1   3
BRANCH   1   7
ATOM      7  C3  <0> d           0.742  -0.511   1.242  0.00  0.00    -0.067 C 
ATOM      8  H5  <0> d           0.232  -0.159   2.138  0.00  0.00     0.028 H 
ATOM      9  H6  <0> d           0.757  -1.601   1.236  0.00  0.00     0.028 H 
ATOM     10  H7  <0> d           1.765  -0.134   1.234  0.00  0.00     0.028 H 
ENDBRANCH   1   7
BRANCH   1  11
ATOM     11  C4  <0> d          -1.412  -0.526   0.013  0.00  0.00     0.086 A 
ATOM     12  O1  <0> d          -2.329  -0.293   0.965  0.00  0.00    -0.216 OA
ATOM     13  N1  <0> d          -3.523  -0.960   0.595  0.00  0.00    -0.111 NA
ATOM     14  C6  <0> d          -3.304  -1.573  -0.541  0.00  0.00     0.151 A 
ATOM     15  C5  <0> d          -1.970  -1.309  -0.927  0.00  0.00    -0.006 A 
ATOM     16  H8  <0> d          -1.484  -1.673  -1.820  0.00  0.00     0.093 H 
BRANCH  14  17
ATOM     17  N2  <0> d          -4.223  -2.345  -1.244  0.00  0.00    -0.382 N 
ATOM     18  H9  <0> d          -3.966  -2.761  -2.083  0.00  0.00     0.157 HD
ATOM     19  H10 <0> d          -5.120  -2.469  -0.897  0.00  0.00     0.157 HD
ENDBRANCH  14  17
ENDBRANCH   1  11
TORSDOF 4
