REMARK  3 active torsions:
REMARK  status: ('A' for Active; 'I' for Inactive)
REMARK    1  A    between atoms: C1_1  and  C2_2 
REMARK    2  A    between atoms: C3_4  and  N3_9 
REMARK    3  A    between atoms: N3_9  and  C6_10 
ROOT
ATOM      1  C2  <0> d          -2.405   4.114   0.036  0.00  0.00     0.126 A 
ATOM      2  N1  <0> d          -1.257   3.467   0.027  0.00  0.00    -0.217 NA
ATOM      3  C3  <0> d          -1.227   2.137   0.019  0.00  0.00     0.128 A 
ATOM      4  C4  <0> d          -2.433   1.434   0.016  0.00  0.00     0.000 A 
ATOM      5  C5  <0> d          -3.612   2.155   0.031  0.00  0.00     0.131 A 
ATOM      6  N2  <0> d          -3.560   3.481   0.038  0.00  0.00    -0.222 NA
ATOM      7 Cl1  <0> d          -5.143   1.335   0.034  0.00  0.00    -0.062 Cl
ATOM      8  H4  <0> d          -2.444   0.354   0.005  0.00  0.00     0.094 H 
ENDROOT
BRANCH   3   9
ATOM      9  N3  <0> d          -0.018   1.461   0.010  0.00  0.00    -0.379 N 
ATOM     10  H5  <0> d           0.816   1.957   0.005  0.00  0.00     0.160 HD
BRANCH   9  11
ATOM     11  C6  <0> d           0.002  -0.004   0.002  0.00  0.00    -0.020 C 
ATOM     12  H6  <0> d           1.034  -0.353  -0.010  0.00  0.00     0.056 H 
ATOM     13  H7  <0> d          -0.498  -0.379   0.895  0.00  0.00     0.056 H 
ATOM     14  H8  <0> d          -0.515  -0.370  -0.885  0.00  0.00     0.056 H 
ENDBRANCH   9  11
ENDBRANCH   3   9
BRANCH   1  15
ATOM     15  C1  <0> d          -2.396   5.621   0.044  0.00  0.00    -0.019 C 
ATOM     16  H1  <0> d          -2.399   5.990  -0.982  0.00  0.00     0.037 H 
ATOM     17  H2  <0> d          -3.281   5.987   0.564  0.00  0.00     0.037 H 
ATOM     18  H3  <0> d          -1.501   5.976   0.555  0.00  0.00     0.037 H 
ENDBRANCH   1  15
TORSDOF 3
