REMARK  3 active torsions:
REMARK  status: ('A' for Active; 'I' for Inactive)
REMARK    1  A    between atoms: C1_1  and  C2_2 
REMARK    2  A    between atoms: C2_2  and  C6_10 
REMARK    3  A    between atoms: C5_7  and  O3_9 
ROOT
ATOM      1  C2  <0> d          -1.438  -0.562   0.013  0.00  0.00     0.010 C 
ATOM      2  C3  <0> d          -1.492  -1.363   1.332  0.00  0.00     0.038 C 
ATOM      3  O1  <0> d          -0.367  -0.870   2.120  0.00  0.00    -0.319 OA
ATOM      4  C4  <0> d           0.626  -0.531   1.278  0.00  0.00     0.288 C 
ATOM      5  O2  <0> d           1.810  -0.630   1.500  0.00  0.00    -0.262 OA
ATOM      6  C5  <0> d           0.002  -0.004   0.002  0.00  0.00     0.127 C 
ATOM      7  H1  <0> d           0.545  -0.371  -0.869  0.00  0.00     0.100 H 
ATOM      8  H5  <0> d          -2.431  -1.173   1.852  0.00  0.00     0.076 H 
ATOM      9  H6  <0> d          -1.377  -2.428   1.133  0.00  0.00     0.076 H 
ENDROOT
BRANCH   1  10
ATOM     10  C1  <0> d          -2.460   0.577   0.029  0.00  0.00    -0.065 C 
ATOM     11  H2  <0> d          -2.328   1.195  -0.859  0.00  0.00     0.028 H 
ATOM     12  H3  <0> d          -3.467   0.161   0.037  0.00  0.00     0.028 H 
ATOM     13  H4  <0> d          -2.311   1.185   0.921  0.00  0.00     0.028 H 
ENDBRANCH   1  10
BRANCH   1  14
ATOM     14  C6  <0> d          -1.672  -1.478  -1.190  0.00  0.00    -0.065 C 
ATOM     15  H8  <0> d          -0.971  -2.312  -1.153  0.00  0.00     0.028 H 
ATOM     16  H9  <0> d          -2.693  -1.861  -1.163  0.00  0.00     0.028 H 
ATOM     17  H10 <0> d          -1.519  -0.915  -2.111  0.00  0.00     0.028 H 
ENDBRANCH   1  14
BRANCH   6  18
ATOM     18  O3  <0> d          -0.017   1.425   0.010  0.00  0.00    -0.385 OA
ATOM     19  H7  <0> d           0.861   1.830   0.004  0.00  0.00     0.210 HD
ENDBRANCH   6  18
TORSDOF 3
