REMARK  2 active torsions:
REMARK  status: ('A' for Active; 'I' for Inactive)
REMARK    1  A    between atoms: C1_1  and  O1_2 
REMARK    2  A    between atoms: O1_2  and  C2_3 
ROOT
ATOM      1  C2  <0> d           1.186   2.059   0.002  0.00  0.00     0.068 A 
ATOM      2  C3  <0> d           2.361   1.323  -0.008  0.00  0.00    -0.048 A 
ATOM      3  C4  <0> d           3.583   1.963  -0.018  0.00  0.00    -0.048 A 
ATOM      4  C5  <0> d           3.647   3.354  -0.007  0.00  0.00     0.075 A 
ATOM      5  C6  <0> d           2.465   4.082   0.002  0.00  0.00    -0.020 A 
ATOM      6  C7  <0> d           1.244   3.445   0.009  0.00  0.00    -0.042 A 
ATOM      7  C8  <0> d           2.847   5.550  -0.004  0.00  0.00    -0.018 C 
ATOM      8  C9  <0> d           4.335   5.492  -0.420  0.00  0.00     0.030 C 
ATOM      9  O2  <0> d           4.733   4.177   0.003  0.00  0.00    -0.350 OA
ATOM     10  H4  <0> d           2.320   0.243  -0.011  0.00  0.00     0.087 H 
ATOM     11  H5  <0> d           4.494   1.383  -0.030  0.00  0.00     0.087 H 
ATOM     12  H6  <0> d           0.332   4.024   0.019  0.00  0.00     0.088 H 
ATOM     13  H7  <0> d           2.217   6.089  -0.726  0.00  0.00     0.043 H 
ATOM     14  H8  <0> d           2.696   5.972   1.001  0.00  0.00     0.043 H 
ATOM     15  H9  <0> d           4.417   5.630  -1.509  0.00  0.00     0.075 H 
ATOM     16  H10 <0> d           4.891   6.290   0.093  0.00  0.00     0.075 H 
ENDROOT
BRANCH   1  17
ATOM     17  O1  <0> d          -0.017   1.425   0.010  0.00  0.00    -0.356 OA
BRANCH  17  18
ATOM     18  C1  <0> d           0.002  -0.004   0.002  0.00  0.00     0.010 C 
ATOM     19  H1  <0> d          -1.030  -0.385   0.010  0.00  0.00     0.066 H 
ATOM     20  H2  <0> d           0.534  -0.368   0.893  0.00  0.00     0.066 H 
ATOM     21  H3  <0> d           0.517  -0.359  -0.903  0.00  0.00     0.066 H 
ENDBRANCH  17  18
ENDBRANCH   1  17
TORSDOF 2
