REMARK  2 active torsions:
REMARK  status: ('A' for Active; 'I' for Inactive)
REMARK    1  A    between atoms: C3_3  and  S1_8 
REMARK    2  A    between atoms: C6_6  and  N1_7 
ROOT
ATOM      1  C1  <0> d          -1.251   3.037   0.030  0.00  0.00    -0.056 A 
ATOM      2  C2  <0> d          -2.458   3.708   0.035  0.00  0.00    -0.059 A 
ATOM      3  C3  <0> d          -3.645   2.998   0.037  0.00  0.00     0.074 A 
ATOM      4  C4  <0> d          -3.628   1.616   0.029  0.00  0.00    -0.059 A 
ATOM      5  C5  <0> d          -2.424   0.938   0.019  0.00  0.00    -0.056 A 
ATOM      6  C6  <0> d          -1.230   1.648   0.017  0.00  0.00     0.025 A 
ATOM      7  H1  <0> d          -0.324   3.591   0.033  0.00  0.00     0.086 H 
ATOM      8  H2  <0> d          -2.474   4.787   0.041  0.00  0.00     0.086 H 
ATOM      9  H3  <0> d          -4.557   1.065   0.030  0.00  0.00     0.086 H 
ATOM     10  H4  <0> d          -2.412  -0.141   0.012  0.00  0.00     0.086 H 
ENDROOT
BRANCH   3  11
ATOM     11  S1  <0> d          -5.183   3.859   0.050  0.00  0.00     0.286 S 
ATOM     12  O1  <0> d          -6.123   2.889  -0.391  0.00  0.00    -0.206 OA
ATOM     13  O2  <0> d          -5.496   4.030   1.529  0.00  0.00    -0.206 OA
ENDBRANCH   3  11
BRANCH   6  14
ATOM     14  N1  <0> d          -0.011   0.966   0.007  0.00  0.00    -0.399 N 
ATOM     15  H5  <0> d           0.002  -0.004   0.002  0.00  0.00     0.156 HD
ATOM     16  H6  <0> d           0.822   1.462   0.002  0.00  0.00     0.156 HD
ENDBRANCH   6  14
TORSDOF 2
