REMARK  1 active torsions:
REMARK  status: ('A' for Active; 'I' for Inactive)
REMARK    1  A    between atoms: C4_5  and  N4_11 
ROOT
ATOM      1  C1  <0> d           2.988   3.673   0.428  0.00  0.00    -0.043 C 
ATOM      2  C2  <0> d           1.765   4.523   0.017  0.00  0.00    -0.008 C 
ATOM      3  C3  <0> d           0.610   3.539   0.018  0.00  0.00     0.109 A 
ATOM      4  N1  <0> d          -0.703   3.512   0.029  0.00  0.00    -0.215 NA
ATOM      5  C4  <0> d          -1.135   2.247   0.019  0.00  0.00     0.161 A 
ATOM      6  C5  <0> d          -0.017   1.428   0.010  0.00  0.00     0.163 A 
ATOM      7  N2  <0> d           1.081   2.280   0.004  0.00  0.00    -0.323 N 
ATOM      8  C6  <0> d           2.551   2.260  -0.013  0.00  0.00     0.003 C 
ATOM      9  C7  <0> d           0.002  -0.004   0.002  0.00  0.00     0.122 C 
ATOM     10  N3  <0> d           0.018  -1.140  -0.004  0.00  0.00    -0.190 NA
ATOM     11  H1  <0> d           3.147   3.714   1.506  0.00  0.00     0.035 H 
ATOM     12  H2  <0> d           3.882   3.991  -0.109  0.00  0.00     0.035 H 
ATOM     13  H3  <0> d           1.590   5.316   0.743  0.00  0.00     0.044 H 
ATOM     14  H4  <0> d           1.909   4.943  -0.978  0.00  0.00     0.044 H 
ATOM     15  H5  <0> d           2.926   1.513   0.686  0.00  0.00     0.065 H 
ATOM     16  H6  <0> d           2.914   2.049  -1.020  0.00  0.00     0.065 H 
ENDROOT
BRANCH   5  17
ATOM     17  N4  <0> d          -2.461   1.830   0.021  0.00  0.00    -0.382 N 
ATOM     18  H7  <0> d          -2.671   0.883   0.015  0.00  0.00     0.157 HD
ATOM     19  H8  <0> d          -3.175   2.486   0.027  0.00  0.00     0.157 HD
ENDBRANCH   5  17
TORSDOF 1
