REMARK  1 active torsions:
REMARK  status: ('A' for Active; 'I' for Inactive)
REMARK    1  A    between atoms: C1_1  and  N1_2 
ROOT
ATOM      1  N1  <0> d           0.002  -0.004   0.002  0.00  0.00    -0.284 N 
ATOM      2  C2  <0> d           0.007  -0.767  -1.100  0.00  0.00     0.010 A 
ATOM      3  C3  <0> d           0.027  -2.090  -0.702  0.00  0.00     0.011 A 
ATOM      4  C4  <0> d           0.041  -3.329  -1.382  0.00  0.00    -0.068 A 
ATOM      5  C5  <0> d           0.060  -4.484  -0.679  0.00  0.00    -0.062 A 
ATOM      6  C6  <0> d           0.066  -4.489   0.732  0.00  0.00     0.046 A 
ATOM      7  C7  <0> d           0.053  -3.312   1.454  0.00  0.00    -0.033 A 
ATOM      8  C8  <0> d           0.034  -2.081   0.769  0.00  0.00     0.090 A 
ATOM      9  N2  <0> d           0.024  -0.813   1.144  0.00  0.00    -0.173 NA
ATOM     10  C9  <0> d           0.086  -5.740   1.429  0.00  0.00     0.099 C 
ATOM     11  N3  <0> d           0.102  -6.732   1.981  0.00  0.00    -0.191 NA
ATOM     12  H4  <0> d          -0.003  -0.411  -2.120  0.00  0.00     0.115 H 
ATOM     13  H5  <0> d           0.036  -3.353  -2.462  0.00  0.00     0.085 H 
ATOM     14  H6  <0> d           0.070  -5.424  -1.210  0.00  0.00     0.085 H 
ATOM     15  H7  <0> d           0.058  -3.335   2.534  0.00  0.00     0.089 H 
ENDROOT
BRANCH   1  16
ATOM     16  C1  <0> d          -0.018   1.461   0.010  0.00  0.00     0.002 C 
ATOM     17  H1  <0> d           1.005   1.838   0.002  0.00  0.00     0.059 H 
ATOM     18  H2  <0> d          -0.545   1.822  -0.873  0.00  0.00     0.059 H 
ATOM     19  H3  <0> d          -0.528   1.812   0.907  0.00  0.00     0.059 H 
ENDBRANCH   1  16
TORSDOF 1
