REMARK  0 active torsions:
REMARK  status: ('A' for Active; 'I' for Inactive)
ROOT
ATOM      1  C1  <0> d          -0.761   3.254   3.095  0.00  0.00    -0.062 C 
ATOM      2  C2  <0> d          -1.686   4.210   2.342  0.00  0.00    -0.050 C 
ATOM      3  C3  <0> d          -2.633   3.410   1.436  0.00  0.00    -0.000 C 
ATOM      4  N1  <0> d          -1.806   2.501   0.630  0.00  0.00    -0.328 N 
ATOM      5  C4  <0> d          -0.786   1.608   1.229  0.00  0.00     0.031 C 
ATOM      6  H1  <0> d          -1.215   0.802   1.842  0.00  0.00     0.075 H 
ATOM      7  C5  <0> d           0.114   2.472   2.112  0.00  0.00    -0.044 C 
ATOM      8  C6  <0> d          -0.013   1.086   0.008  0.00  0.00     0.016 C 
ATOM      9  N2  <0> d          -0.776   1.599  -1.141  0.00  0.00    -0.341 N 
ATOM     10  C7  <0> d          -1.798   2.344  -0.694  0.00  0.00     0.318 C 
ATOM     11  O1  <0> d          -2.638   2.830  -1.427  0.00  0.00    -0.247 OA
ATOM     12  H2  <0> d          -1.373   2.551   3.681  0.00  0.00     0.033 H 
ATOM     13  H3  <0> d          -0.121   3.836   3.774  0.00  0.00     0.033 H 
ATOM     14  H4  <0> d          -2.278   4.793   3.064  0.00  0.00     0.035 H 
ATOM     15  H5  <0> d          -1.083   4.894   1.726  0.00  0.00     0.035 H 
ATOM     16  H6  <0> d          -3.340   2.840   2.057  0.00  0.00     0.064 H 
ATOM     17  H7  <0> d          -3.190   4.101   0.787  0.00  0.00     0.064 H 
ATOM     18  H8  <0> d           0.683   3.176   1.487  0.00  0.00     0.036 H 
ATOM     19  H9  <0> d           0.812   1.831   2.671  0.00  0.00     0.036 H 
ATOM     20  H10 <0> d           1.016   1.476   0.031  0.00  0.00     0.067 H 
ATOM     21  H11 <0> d           0.012  -0.014   0.033  0.00  0.00     0.067 H 
ATOM     22  H12 <0> d          -0.464   1.346  -2.166  0.00  0.00     0.164 HD
ENDROOT
TORSDOF 0
