REMARK  4 active torsions:
REMARK  status: ('A' for Active; 'I' for Inactive)
REMARK    1  A    between atoms: C2_2  and  C3_3 
REMARK    2  A    between atoms: C3_3  and  O1_4 
REMARK    3  A    between atoms: O1_4  and  C4_5 
REMARK       I    between atoms: C4_5  and  N1_7 
REMARK    4  A    between atoms: C6_9  and  O3_11 
ROOT
ATOM      1  C4  <0> d           2.382  -2.570   1.043  0.00  0.00     0.363 C 
ATOM      2  O2  <0> d           3.354  -2.333   0.353  0.00  0.00    -0.238 OA
ATOM      3  N1  <0> d           2.410  -3.595   1.918  0.00  0.00    -0.323 N 
ATOM      4  C5  <0> d           1.475  -4.186   2.887  0.00  0.00     0.025 C 
ATOM      5  C6  <0> d           2.208  -5.521   2.699  0.00  0.00     0.066 C 
ATOM      6  C7  <0> d           3.387  -4.618   2.319  0.00  0.00     0.025 C 
ATOM      7  H6  <0> d           1.573  -3.774   3.891  0.00  0.00     0.068 H 
ATOM      8  H7  <0> d           0.443  -4.205   2.538  0.00  0.00     0.068 H 
ATOM      9  H8  <0> d           2.353  -6.085   3.620  0.00  0.00     0.087 H 
ATOM     10  H9  <0> d           3.978  -5.004   1.488  0.00  0.00     0.068 H 
ATOM     11  H10 <0> d           4.000  -4.323   3.171  0.00  0.00     0.068 H 
ENDROOT
BRANCH   1  12
ATOM     12  O1  <0> d           1.277  -1.809   0.933  0.00  0.00    -0.300 OA
BRANCH  12  13
ATOM     13  C3  <0> d           1.317  -0.740  -0.015  0.00  0.00     0.045 C 
ATOM     14  H4  <0> d           1.495  -1.144  -1.011  0.00  0.00     0.081 H 
ATOM     15  H5  <0> d           2.121  -0.052   0.247  0.00  0.00     0.081 H 
BRANCH  13  16
ATOM     16  C2  <0> d           0.002  -0.004   0.002  0.00  0.00    -0.089 C 
ATOM     17  C1  <0> d          -0.016   1.306   0.009  0.00  0.00    -0.123 C 
ATOM     18  H1  <0> d           0.912   1.859   0.003  0.00  0.00     0.066 H 
ATOM     19  H2  <0> d          -0.958   1.833   0.017  0.00  0.00     0.066 H 
ATOM     20  H3  <0> d          -0.926  -0.557   0.008  0.00  0.00     0.078 H 
ENDBRANCH  13  16
ENDBRANCH  12  13
ENDBRANCH   1  12
BRANCH   5  21
ATOM     21  O3  <0> d           1.713  -6.315   1.619  0.00  0.00    -0.392 OA
ATOM     22  H11 <0> d           2.177  -7.155   1.503  0.00  0.00     0.210 HD
ENDBRANCH   5  21
TORSDOF 4
