REMARK  0 active torsions:
REMARK  status: ('A' for Active; 'I' for Inactive)
ROOT
ATOM      1  C1  <0> d          -0.017   1.381   0.010  0.00  0.00    -0.078 A 
ATOM      2  C2  <0> d           1.164   2.092   0.002  0.00  0.00    -0.060 A 
ATOM      3  C3  <0> d           2.386   1.416  -0.013  0.00  0.00     0.084 A 
ATOM      4  C4  <0> d           2.402   0.015  -0.021  0.00  0.00     0.166 A 
ATOM      5  C5  <0> d           1.205  -0.687  -0.013  0.00  0.00     0.154 A 
ATOM      6  C6  <0> d           0.002  -0.004   0.002  0.00  0.00    -0.043 A 
ATOM      7  F1  <0> d           1.214  -2.038  -0.021  0.00  0.00    -0.203 F 
ATOM      8  O1  <0> d           3.584  -0.653  -0.036  0.00  0.00    -0.187 OA
ATOM      9  C7  <0> d           3.615   2.150  -0.021  0.00  0.00     0.102 C 
ATOM     10  N1  <0> d           4.590   2.733  -0.028  0.00  0.00    -0.191 NA
ATOM     11  H1  <0> d          -0.961   1.905   0.026  0.00  0.00     0.083 H 
ATOM     12  H2  <0> d           1.144   3.172   0.008  0.00  0.00     0.086 H 
ATOM     13  H3  <0> d          -0.927  -0.554   0.008  0.00  0.00     0.088 H 
ENDROOT
TORSDOF 0
