REMARK  2 active torsions:
REMARK  status: ('A' for Active; 'I' for Inactive)
REMARK    1  A    between atoms: C1_1  and  C2_2 
REMARK    2  A    between atoms: C4_4  and  C7_8 
ROOT
ATOM      1  C2  <0> d          -4.827   0.883   0.030  0.00  0.00    -0.044 A 
ATOM      2  C3  <0> d          -3.667   1.638   0.028  0.00  0.00    -0.065 A 
ATOM      3  C4  <0> d          -2.439   0.967   0.019  0.00  0.00    -0.019 A 
ATOM      4  C5  <0> d          -2.434  -0.429   0.005  0.00  0.00     0.012 A 
ATOM      5  N1  <0> d          -3.565  -1.103   0.013  0.00  0.00    -0.272 NA
ATOM      6  C6  <0> d          -4.737  -0.497   0.022  0.00  0.00     0.007 A 
ATOM      7  H4  <0> d          -3.708   2.717   0.035  0.00  0.00     0.085 H 
ATOM      8  H5  <0> d          -1.494  -0.961  -0.006  0.00  0.00     0.116 H 
ATOM      9  H6  <0> d          -5.641  -1.088   0.023  0.00  0.00     0.115 H 
ENDROOT
BRANCH   3  10
ATOM     10  C7  <0> d          -1.169   1.723   0.017  0.00  0.00    -0.081 C 
ATOM     11  C8  <0> d          -0.013   1.076   0.008  0.00  0.00    -0.120 C 
ATOM     12  H8  <0> d           0.002  -0.004   0.002  0.00  0.00     0.066 H 
ATOM     13  H9  <0> d           0.915   1.629   0.002  0.00  0.00     0.066 H 
ATOM     14  H7  <0> d          -1.184   2.803   0.023  0.00  0.00     0.083 H 
ENDBRANCH   3  10
BRANCH   1  15
ATOM     15  C1  <0> d          -6.175   1.558   0.039  0.00  0.00    -0.050 C 
ATOM     16  H1  <0> d          -6.504   1.726  -0.986  0.00  0.00     0.033 H 
ATOM     17  H2  <0> d          -6.896   0.922   0.553  0.00  0.00     0.033 H 
ATOM     18  H3  <0> d          -6.099   2.514   0.558  0.00  0.00     0.033 H 
ENDBRANCH   1  15
TORSDOF 2
