REMARK  1 active torsions:
REMARK  status: ('A' for Active; 'I' for Inactive)
REMARK    1  A    between atoms: C1_1  and  C2_2 
ROOT
ATOM      1  C2  <0> d           0.002  -0.004   0.002  0.00  0.00    -0.019 A 
ATOM      2  C3  <0> d           0.009  -0.806  -1.075  0.00  0.00     0.028 A 
ATOM      3  O1  <0> d           0.028  -2.094  -0.686  0.00  0.00    -0.303 OA
ATOM      4  C4  <0> d           0.034  -2.192   0.653  0.00  0.00     0.186 A 
ATOM      5  C5  <0> d           0.025  -0.890   1.165  0.00  0.00     0.093 A 
ATOM      6  C6  <0> d           0.036  -0.704   2.567  0.00  0.00     0.261 A 
ATOM      7  O2  <0> d           0.025   0.415   3.051  0.00  0.00    -0.267 OA
ATOM      8  N1  <0> d           0.058  -1.804   3.354  0.00  0.00    -0.317 N 
ATOM      9  H1  <0> d           0.066  -1.708   4.319  0.00  0.00     0.170 HD
ATOM     10  C7  <0> d           0.070  -3.040   2.797  0.00  0.00     0.069 A 
ATOM     11  N2  <0> d           0.052  -3.226   1.507  0.00  0.00    -0.219 NA
ATOM     12  H5  <0> d          -0.001  -0.468  -2.100  0.00  0.00     0.124 H 
ATOM     13  H6  <0> d           0.088  -3.903   3.446  0.00  0.00     0.143 H 
ENDROOT
BRANCH   1  14
ATOM     14  C1  <0> d          -0.018   1.503   0.010  0.00  0.00    -0.048 C 
ATOM     15  H2  <0> d           1.004   1.880   0.003  0.00  0.00     0.033 H 
ATOM     16  H3  <0> d          -0.545   1.864  -0.873  0.00  0.00     0.033 H 
ATOM     17  H4  <0> d          -0.529   1.854   0.907  0.00  0.00     0.033 H 
ENDBRANCH   1  14
TORSDOF 1
