REMARK  1 active torsions:
REMARK  status: ('A' for Active; 'I' for Inactive)
REMARK    1  A    between atoms: C2_2  and  C3_3 
ROOT
ATOM      1  C1  <0> d           0.018  -1.178  -0.004  0.00  0.00    -0.149 C 
ATOM      2  C2  <0> d           0.002  -0.004   0.002  0.00  0.00    -0.078 C 
ATOM      3  H1  <0> d           0.032  -2.228  -0.010  0.00  0.00     0.166 H 
ENDROOT
BRANCH   2   4
ATOM      4  C3  <0> d          -0.017   1.428   0.010  0.00  0.00     0.021 A 
ATOM      5  C7  <0> d           1.173   2.163   0.003  0.00  0.00    -0.026 A 
ATOM      6  C6  <0> d           1.107   3.542   0.006  0.00  0.00     0.127 A 
ATOM      7  H4  <0> d           2.128   1.659  -0.010  0.00  0.00     0.090 H 
ATOM      8  N1  <0> d          -0.056   4.165   0.026  0.00  0.00    -0.249 NA
ATOM      9 Cl1  <0> d           2.575   4.470  -0.010  0.00  0.00    -0.062 Cl
ATOM     10  C5  <0> d          -1.201   3.509   0.038  0.00  0.00     0.005 A 
ATOM     11  C4  <0> d          -1.228   2.131   0.031  0.00  0.00    -0.048 A 
ATOM     12  H3  <0> d          -2.130   4.060   0.054  0.00  0.00     0.114 H 
ATOM     13  H2  <0> d          -2.169   1.601   0.041  0.00  0.00     0.087 H 
ENDBRANCH   2   4
TORSDOF 1
