REMARK  5 active torsions:
REMARK  status: ('A' for Active; 'I' for Inactive)
REMARK    1  A    between atoms: C1_1  and  O1_2 
REMARK    2  A    between atoms: O1_2  and  C2_3 
REMARK    3  A    between atoms: C2_3  and  C3_4 
REMARK    4  A    between atoms: C2_3  and  O2_11 
REMARK    5  A    between atoms: O2_11  and  C9_12 
ROOT
ATOM      1  C3  <0> d          -1.600   1.622   1.429  0.00  0.00    -0.003 C 
ATOM      2  H1  <0> d          -1.849   0.703   0.899  0.00  0.00     0.047 H 
ATOM      3  C4  <0> d          -0.148   1.560   1.912  0.00  0.00    -0.054 C 
ATOM      4  C5  <0> d           0.746   1.205   0.722  0.00  0.00    -0.050 C 
ATOM      5  C6  <0> d           0.429   2.095  -0.444  0.00  0.00    -0.106 C 
ATOM      6  C7  <0> d          -0.657   2.792  -0.549  0.00  0.00    -0.106 C 
ATOM      7  C8  <0> d          -1.744   2.817   0.484  0.00  0.00    -0.042 C 
ATOM      8  H6  <0> d          -0.054   0.795   2.682  0.00  0.00     0.034 H 
ATOM      9  H7  <0> d           0.145   2.529   2.315  0.00  0.00     0.034 H 
ATOM     10  H8  <0> d           0.577   0.166   0.440  0.00  0.00     0.038 H 
ATOM     11  H9  <0> d           1.791   1.337   1.004  0.00  0.00     0.038 H 
ATOM     12  H10 <0> d           1.151   2.157  -1.245  0.00  0.00     0.076 H 
ATOM     13  H11 <0> d          -0.788   3.394  -1.436  0.00  0.00     0.076 H 
ATOM     14  H12 <0> d          -1.677   3.741   1.058  0.00  0.00     0.039 H 
ATOM     15  H13 <0> d          -2.714   2.768  -0.011  0.00  0.00     0.039 H 
ENDROOT
BRANCH   1  16
ATOM     16  C2  <0> d          -2.538   1.796   2.626  0.00  0.00     0.133 C 
ATOM     17  H5  <0> d          -2.282   2.711   3.158  0.00  0.00     0.129 H 
BRANCH  16  18
ATOM     18  O1  <0> d          -3.888   1.875   2.164  0.00  0.00    -0.366 OA
BRANCH  18  19
ATOM     19  C1  <0> d          -4.761   2.589   3.042  0.00  0.00     0.007 C 
ATOM     20  H2  <0> d          -4.694   2.167   4.044  0.00  0.00     0.066 H 
ATOM     21  H3  <0> d          -4.470   3.639   3.069  0.00  0.00     0.066 H 
ATOM     22  H4  <0> d          -5.786   2.506   2.681  0.00  0.00     0.066 H 
ENDBRANCH  18  19
ENDBRANCH  16  18
BRANCH  16  23
ATOM     23  O2  <0> d          -2.400   0.678   3.506  0.00  0.00    -0.366 OA
BRANCH  23  24
ATOM     24  C9  <0> d          -2.985   0.877   4.794  0.00  0.00     0.007 C 
ATOM     25  H14 <0> d          -2.733   1.874   5.157  0.00  0.00     0.066 H 
ATOM     26  H15 <0> d          -4.068   0.780   4.721  0.00  0.00     0.066 H 
ATOM     27  H16 <0> d          -2.599   0.130   5.487  0.00  0.00     0.066 H 
ENDBRANCH  23  24
ENDBRANCH  16  23
ENDBRANCH   1  16
TORSDOF 5
