REMARK  3 active torsions:
REMARK  status: ('A' for Active; 'I' for Inactive)
REMARK    1  A    between atoms: C1_1  and  O1_2 
REMARK    2  A    between atoms: O1_2  and  C2_3 
REMARK    3  A    between atoms: C2_3  and  C3_5 
ROOT
ATOM      1  C3  <0> d           1.280   1.975   0.000  0.00  0.00     0.030 C 
ATOM      2  C4  <0> d           1.702   2.456  -1.398  0.00  0.00    -0.053 C 
ATOM      3  C5  <0> d           3.142   2.087  -1.004  0.00  0.00    -0.063 C 
ATOM      4  C6  <0> d           2.531   1.080  -0.016  0.00  0.00    -0.053 C 
ATOM      5  H4  <0> d           1.313   2.756   0.760  0.00  0.00     0.055 H 
ATOM      6  H5  <0> d           1.302   1.847  -2.208  0.00  0.00     0.034 H 
ATOM      7  H6  <0> d           1.553   3.524  -1.556  0.00  0.00     0.034 H 
ATOM      8  H7  <0> d           3.684   2.900  -0.520  0.00  0.00     0.033 H 
ATOM      9  H8  <0> d           3.709   1.620  -1.810  0.00  0.00     0.033 H 
ATOM     10  H9  <0> d           3.050   1.037   0.941  0.00  0.00     0.034 H 
ATOM     11  H10 <0> d           2.356   0.094  -0.448  0.00  0.00     0.034 H 
ENDROOT
BRANCH   1  12
ATOM     12  C2  <0> d          -0.014   1.204   0.009  0.00  0.00     0.262 C 
ATOM     13  O2  <0> d           0.002  -0.004   0.002  0.00  0.00    -0.265 OA
BRANCH  12  14
ATOM     14  O1  <0> d          -1.186   1.859   0.018  0.00  0.00    -0.326 OA
BRANCH  14  15
ATOM     15  C1  <0> d          -2.393   1.052   0.019  0.00  0.00     0.013 C 
ATOM     16  H1  <0> d          -2.413   0.428  -0.874  0.00  0.00     0.067 H 
ATOM     17  H2  <0> d          -2.405   0.418   0.906  0.00  0.00     0.067 H 
ATOM     18  H3  <0> d          -3.266   1.704   0.027  0.00  0.00     0.067 H 
ENDBRANCH  14  15
ENDBRANCH  12  14
ENDBRANCH   1  12
TORSDOF 3
