REMARK  1 active torsions:
REMARK  status: ('A' for Active; 'I' for Inactive)
REMARK    1  A    between atoms: C1_1  and  C2_2 
ROOT
ATOM      1  C2  <0> d          -0.017   1.385   0.010  0.00  0.00     0.049 A 
ATOM      2  C3  <0> d           0.002  -0.004   0.002  0.00  0.00     0.027 A 
ATOM      3  N1  <0> d           1.149  -0.655  -0.013  0.00  0.00    -0.245 NA
ATOM      4  C4  <0> d           2.296   0.018  -0.020  0.00  0.00     0.175 A 
ATOM      5  C5  <0> d           2.276   1.425  -0.012  0.00  0.00     0.176 A 
ATOM      6  N2  <0> d           1.112   2.067   0.003  0.00  0.00    -0.238 NA
ATOM      7  C6  <0> d           3.505   2.162  -0.020  0.00  0.00     0.123 C 
ATOM      8  N3  <0> d           4.479   2.746  -0.027  0.00  0.00    -0.190 NA
ATOM      9  C7  <0> d           3.543  -0.684  -0.036  0.00  0.00     0.123 C 
ATOM     10  N4  <0> d           4.533  -1.242  -0.049  0.00  0.00    -0.190 NA
ATOM     11  H4  <0> d          -0.927  -0.554   0.008  0.00  0.00     0.117 H 
ENDROOT
BRANCH   1  12
ATOM     12  C1  <0> d          -1.334   2.117   0.020  0.00  0.00    -0.034 C 
ATOM     13  H1  <0> d          -1.647   2.287   1.050  0.00  0.00     0.035 H 
ATOM     14  H2  <0> d          -1.222   3.074  -0.489  0.00  0.00     0.035 H 
ATOM     15  H3  <0> d          -2.086   1.518  -0.494  0.00  0.00     0.035 H 
ENDBRANCH   1  12
TORSDOF 1
