REMARK  3 active torsions:
REMARK  status: ('A' for Active; 'I' for Inactive)
REMARK    1  A    between atoms: C1_1  and  C2_2 
REMARK       I    between atoms: C2_2  and  N1_4 
REMARK    2  A    between atoms: N1_4  and  C3_5 
REMARK    3  A    between atoms: C3_5  and  C4_6 
ROOT
ATOM      1  C4  <0> d          -0.050   3.840   0.023  0.00  0.00    -0.041 A 
ATOM      2  C5  <0> d           1.156   3.165   0.008  0.00  0.00    -0.075 A 
ATOM      3  C6  <0> d           1.175   1.783   0.000  0.00  0.00    -0.082 A 
ATOM      4  C7  <0> d          -0.013   1.076   0.008  0.00  0.00    -0.083 A 
ATOM      5  C8  <0> d          -1.219   1.751   0.017  0.00  0.00    -0.082 A 
ATOM      6  C9  <0> d          -1.238   3.133   0.030  0.00  0.00    -0.075 A 
ATOM      7  H7  <0> d           2.084   3.718   0.002  0.00  0.00     0.084 H 
ATOM      8  H8  <0> d           2.118   1.256  -0.011  0.00  0.00     0.083 H 
ATOM      9  H9  <0> d           0.002  -0.004   0.002  0.00  0.00     0.083 H 
ATOM     10  H10 <0> d          -2.147   1.198   0.019  0.00  0.00     0.083 H 
ATOM     11  H11 <0> d          -2.180   3.660   0.041  0.00  0.00     0.084 H 
ENDROOT
BRANCH   1  12
ATOM     12  C3  <0> d          -0.070   5.347   0.031  0.00  0.00     0.019 C 
ATOM     13  H5  <0> d          -0.960   5.696   0.555  0.00  0.00     0.071 H 
ATOM     14  H6  <0> d           0.819   5.720   0.538  0.00  0.00     0.071 H 
BRANCH  12  15
ATOM     15  N1  <0> d          -0.090   5.843  -1.347  0.00  0.00    -0.357 N 
ATOM     16  C2  <0> d          -0.111   7.169  -1.586  0.00  0.00     0.213 C 
ATOM     17  O1  <0> d          -0.113   7.952  -0.660  0.00  0.00    -0.274 OA
ATOM     18  H4  <0> d          -0.089   5.216  -2.088  0.00  0.00     0.162 HD
BRANCH  16  19
ATOM     19  C1  <0> d          -0.131   7.679  -3.004  0.00  0.00    -0.003 C 
ATOM     20  H1  <0> d          -0.126   6.835  -3.694  0.00  0.00     0.040 H 
ATOM     21  H2  <0> d          -1.031   8.273  -3.164  0.00  0.00     0.040 H 
ATOM     22  H3  <0> d           0.749   8.297  -3.180  0.00  0.00     0.040 H 
ENDBRANCH  16  19
ENDBRANCH  12  15
ENDBRANCH   1  12
TORSDOF 3
