REMARK  1 active torsions:
REMARK  status: ('A' for Active; 'I' for Inactive)
REMARK    1  A    between atoms: C4_5  and  C5_6 
ROOT
ATOM      1  C1  <0> d          -0.017   1.386   0.010  0.00  0.00    -0.022 A 
ATOM      2  C2  <0> d           1.212   1.998   0.001  0.00  0.00     0.124 A 
ATOM      3  C3  <0> d           2.332   1.230  -0.014  0.00  0.00    -0.007 A 
ATOM      4  S1  <0> d           1.751  -0.347  -0.017  0.00  0.00    -0.092 SA
ATOM      5  C4  <0> d           0.002  -0.004   0.002  0.00  0.00     0.084 A 
ATOM      6  F1  <0> d           1.307   3.346   0.007  0.00  0.00    -0.206 F 
ATOM      7  H1  <0> d          -0.939   1.948   0.026  0.00  0.00     0.090 H 
ATOM      8  H2  <0> d           3.362   1.557  -0.022  0.00  0.00     0.099 H 
ENDROOT
BRANCH   5   9
ATOM      9  C5  <0> d          -1.086  -0.912   0.008  0.00  0.00     0.216 C 
ATOM     10  O1  <0> d          -2.236  -0.490   0.022  0.00  0.00    -0.643 OA
ATOM     11  O2  <0> d          -0.877  -2.119  -0.000  0.00  0.00    -0.643 OA
ENDBRANCH   5   9
TORSDOF 1
