REMARK  2 active torsions:
REMARK  status: ('A' for Active; 'I' for Inactive)
REMARK    1  A    between atoms: C3_3  and  S1_4 
REMARK    2  A    between atoms: S1_4  and  O2_6 
ROOT
ATOM      1  C1  <0> d           1.260   4.155  -1.291  0.00  0.00    -0.048 A 
ATOM      2  C2  <0> d           2.226   4.330  -0.116  0.00  0.00    -0.048 A 
ATOM      3  C3  <0> d           1.032   3.383   0.010  0.00  0.00     0.044 A 
ATOM      4  H1  <0> d           1.395   3.444  -2.120  0.00  0.00     0.035 H 
ATOM      5  H2  <0> d           0.390   4.795  -1.495  0.00  0.00     0.035 H 
ATOM      6  H3  <0> d           3.239   4.033  -0.427  0.00  0.00     0.035 H 
ATOM      7  H4  <0> d           2.234   5.384   0.198  0.00  0.00     0.035 H 
ATOM      8  H5  <0> d           0.180   3.413   0.706  0.00  0.00     0.063 H 
ENDROOT
BRANCH   3   9
ATOM      9  S1  <0> d           1.371   1.601  -0.002  0.00  0.00     0.155 S 
ATOM     10  O1  <0> d           1.935   1.217   1.244  0.00  0.00    -0.228 OA
BRANCH   9  11
ATOM     11  O2  <0> d          -0.011   0.963   0.007  0.00  0.00    -0.306 OA
ATOM     12  H6  <0> d          -0.111  -0.133   0.002  0.00  0.00     0.230 HD
ENDBRANCH   9  11
ENDBRANCH   3   9
TORSDOF 2
