REMARK  5 active torsions:
REMARK  status: ('A' for Active; 'I' for Inactive)
REMARK    1  A    between atoms: C1_1  and  C2_2 
REMARK    2  A    between atoms: C2_2  and  O1_3 
REMARK    3  A    between atoms: O1_3  and  C3_4 
REMARK    4  A    between atoms: C3_4  and  C4_6 
REMARK    5  A    between atoms: C4_6  and  N1_7 
ROOT
ATOM      1  C3  <0> d          -0.014   1.204   0.009  0.00  0.00     0.278 C 
ATOM      2  O2  <0> d           0.002  -0.004   0.002  0.00  0.00    -0.263 OA
ENDROOT
BRANCH   1   3
ATOM      3  O1  <0> d           1.139   1.891   0.001  0.00  0.00    -0.321 OA
BRANCH   3   4
ATOM      4  C2  <0> d           2.367   1.117  -0.015  0.00  0.00     0.025 C 
ATOM      5  H4  <0> d           2.409   0.484   0.872  0.00  0.00     0.074 H 
ATOM      6  H5  <0> d           2.392   0.493  -0.908  0.00  0.00     0.074 H 
BRANCH   4   7
ATOM      7  C1  <0> d           3.568   2.065  -0.021  0.00  0.00    -0.056 C 
ATOM      8  H1  <0> d           3.543   2.689   0.873  0.00  0.00     0.030 H 
ATOM      9  H2  <0> d           4.490   1.484  -0.033  0.00  0.00     0.030 H 
ATOM     10  H3  <0> d           3.526   2.698  -0.907  0.00  0.00     0.030 H 
ENDBRANCH   4   7
ENDBRANCH   3   4
ENDBRANCH   1   3
BRANCH   1  11
ATOM     11  C4  <0> d          -1.329   1.940   0.019  0.00  0.00     0.098 C 
ATOM     12  H6  <0> d          -1.391   2.561   0.913  0.00  0.00     0.083 H 
ATOM     13  H7  <0> d          -1.400   2.570  -0.867  0.00  0.00     0.083 H 
BRANCH  11  14
ATOM     14  N1  <0> d          -2.430   0.973   0.019  0.00  0.00    -0.253 N 
ATOM     15  N3  <0> d          -2.644  -0.059  -0.910  0.00  0.00    -0.164 NA
ATOM     16  C6  <0> d          -3.732  -0.681  -0.539  0.00  0.00     0.107 A 
ATOM     17  N2  <0> d          -4.212  -0.097   0.558  0.00  0.00    -0.234 NA
ATOM     18  H9  <0> d          -4.173  -1.529  -1.042  0.00  0.00     0.149 H 
ATOM     19  C5  <0> d          -3.438   0.900   0.905  0.00  0.00     0.084 A 
ATOM     20  H8  <0> d          -3.584   1.550   1.755  0.00  0.00     0.146 H 
ENDBRANCH  11  14
ENDBRANCH   1  11
TORSDOF 5
