REMARK  4 active torsions:
REMARK  status: ('A' for Active; 'I' for Inactive)
REMARK    1  A    between atoms: C1_1  and  C2_2 
REMARK    2  A    between atoms: C2_2  and  C3_3 
REMARK    3  A    between atoms: C5_6  and  C8_10 
REMARK    4  A    between atoms: C6_7  and  C7_9 
ROOT
ATOM      1  C3  <0> d           0.002  -0.004   0.002  0.00  0.00     0.052 A 
ATOM      2  C4  <0> d          -0.017   1.380   0.010  0.00  0.00     0.026 A 
ATOM      3  N1  <0> d           1.118   2.056   0.002  0.00  0.00    -0.262 NA
ATOM      4  C5  <0> d           2.272   1.411  -0.012  0.00  0.00     0.054 A 
ATOM      5  C6  <0> d           2.291   0.027  -0.020  0.00  0.00     0.055 A 
ATOM      6  N2  <0> d           1.155  -0.649  -0.013  0.00  0.00    -0.255 NA
ATOM      7  H6  <0> d          -0.959   1.907   0.017  0.00  0.00     0.117 H 
ENDROOT
BRANCH   1   8
ATOM      8  C2  <0> d          -1.293  -0.775   0.010  0.00  0.00    -0.027 C 
ATOM      9  H4  <0> d          -1.124  -1.764   0.437  0.00  0.00     0.041 H 
ATOM     10  H5  <0> d          -2.030  -0.241   0.609  0.00  0.00     0.041 H 
BRANCH   8  11
ATOM     11  C1  <0> d          -1.808  -0.920  -1.423  0.00  0.00    -0.071 C 
ATOM     12  H1  <0> d          -1.071  -1.455  -2.022  0.00  0.00     0.028 H 
ATOM     13  H2  <0> d          -2.745  -1.478  -1.418  0.00  0.00     0.028 H 
ATOM     14  H3  <0> d          -1.977   0.068  -1.851  0.00  0.00     0.028 H 
ENDBRANCH   8  11
ENDBRANCH   1   8
BRANCH   5  15
ATOM     15  C7  <0> d           3.606  -0.708  -0.037  0.00  0.00    -0.034 C 
ATOM     16  H7  <0> d           3.913  -0.880  -1.068  0.00  0.00     0.035 H 
ATOM     17  H8  <0> d           4.362  -0.112   0.473  0.00  0.00     0.035 H 
ATOM     18  H9  <0> d           3.493  -1.665   0.473  0.00  0.00     0.035 H 
ENDBRANCH   5  15
BRANCH   4  19
ATOM     19  C8  <0> d           3.566   2.182  -0.020  0.00  0.00    -0.034 C 
ATOM     20  H10 <0> d           3.869   2.373  -1.050  0.00  0.00     0.035 H 
ATOM     21  H11 <0> d           3.428   3.130   0.500  0.00  0.00     0.035 H 
ATOM     22  H12 <0> d           4.339   1.600   0.483  0.00  0.00     0.035 H 
ENDBRANCH   4  19
TORSDOF 4
