REMARK  1 active torsions:
REMARK  status: ('A' for Active; 'I' for Inactive)
REMARK    1  A    between atoms: C2_2  and  O1_9 
ROOT
ATOM      1  C1  <0> d           1.214  -0.680  -0.013  0.00  0.00    -0.014 A 
ATOM      2  C2  <0> d           0.002  -0.004   0.002  0.00  0.00     0.070 A 
ATOM      3  C3  <0> d          -0.017   1.383   0.010  0.00  0.00    -0.030 A 
ATOM      4  C4  <0> d           1.172   2.090   0.002  0.00  0.00     0.039 A 
ATOM      5  C5  <0> d           2.379   1.416  -0.013  0.00  0.00    -0.025 A 
ATOM      6  C6  <0> d           2.401   0.031  -0.021  0.00  0.00     0.120 A 
ATOM      7  F1  <0> d           3.581  -0.626  -0.035  0.00  0.00    -0.206 F 
ATOM      8 Cl1  <0> d           1.148   3.826   0.012  0.00  0.00    -0.084 Cl
ATOM      9  H1  <0> d           1.230  -1.760  -0.019  0.00  0.00     0.092 H 
ATOM     10  H2  <0> d          -0.959   1.910   0.017  0.00  0.00     0.090 H 
ATOM     11  H3  <0> d           3.306   1.970  -0.018  0.00  0.00     0.090 H 
ENDROOT
BRANCH   2  12
ATOM     12  O1  <0> d          -1.165  -0.700   0.010  0.00  0.00    -0.361 OA
ATOM     13  H4  <0> d          -1.512  -0.897  -0.871  0.00  0.00     0.217 HD
ENDBRANCH   2  12
TORSDOF 1
