REMARK  5 active torsions:
REMARK  status: ('A' for Active; 'I' for Inactive)
REMARK    1  A    between atoms: C1_1  and  C2_2 
REMARK    2  A    between atoms: C2_2  and  C3_4 
REMARK    3  A    between atoms: C2_2  and  N1_10 
REMARK    4  A    between atoms: N1_10  and  C9_11 
REMARK    5  A    between atoms: C9_11  and  C10_12 
ROOT
ATOM      1  C10 <0> d           2.107   1.006   1.139  0.00  0.00    -0.087 C 
ATOM      2  C11 <0> d           2.708   0.572   2.049  0.00  0.00    -0.152 C 
ATOM      3  H13 <0> d           3.272   0.166   2.901  0.00  0.00     0.166 H 
ENDROOT
BRANCH   1   4
ATOM      4  C9  <0> d           1.353   1.550  -0.003  0.00  0.00     0.165 C 
ATOM      5  H11 <0> d           1.853   1.268  -0.941  0.00  0.00     0.099 H 
ATOM      6  H12 <0> d           1.310   2.646   0.075  0.00  0.00     0.099 H 
BRANCH   4   7
ATOM      7  N1  <0> d          -0.012   1.005   0.008  0.00  0.00     0.102 N 
ATOM      8  H10 <0> d          -0.497   1.287   0.954  0.00  0.00     0.317 HD
BRANCH   7   9
ATOM      9  C2  <0> d          -0.795   1.527  -1.120  0.00  0.00     0.155 C 
ATOM     10  H1  <0> d          -0.117   1.630  -1.980  0.00  0.00     0.095 H 
BRANCH   9  11
ATOM     11  C1  <0> d          -1.403   2.878  -0.736  0.00  0.00    -0.043 C 
ATOM     12  H2  <0> d          -0.597   3.586  -0.491  0.00  0.00     0.030 H 
ATOM     13  H3  <0> d          -2.058   2.750   0.138  0.00  0.00     0.030 H 
ATOM     14  H4  <0> d          -1.990   3.269  -1.581  0.00  0.00     0.030 H 
ENDBRANCH   9  11
BRANCH   9  15
ATOM     15  C3  <0> d          -1.899   0.557  -1.456  0.00  0.00    -0.026 A 
ATOM     16  C8  <0> d          -2.219   0.305  -2.777  0.00  0.00    -0.075 A 
ATOM     17  C7  <0> d          -3.231  -0.584  -3.086  0.00  0.00    -0.082 A 
ATOM     18  H9  <0> d          -1.678   0.804  -3.568  0.00  0.00     0.084 H 
ATOM     19  C6  <0> d          -3.923  -1.222  -2.073  0.00  0.00    -0.083 A 
ATOM     20  H8  <0> d          -3.482  -0.780  -4.118  0.00  0.00     0.083 H 
ATOM     21  C5  <0> d          -3.603  -0.971  -0.752  0.00  0.00    -0.082 A 
ATOM     22  H7  <0> d          -4.715  -1.916  -2.314  0.00  0.00     0.083 H 
ATOM     23  C4  <0> d          -2.587  -0.085  -0.444  0.00  0.00    -0.075 A 
ATOM     24  H6  <0> d          -4.144  -1.469   0.039  0.00  0.00     0.083 H 
ATOM     25  H5  <0> d          -2.334   0.109   0.588  0.00  0.00     0.084 H 
ENDBRANCH   9  15
ENDBRANCH   7   9
ENDBRANCH   4   7
ENDBRANCH   1   4
TORSDOF 5
