REMARK  4 active torsions:
REMARK  status: ('A' for Active; 'I' for Inactive)
REMARK    1  A    between atoms: C1_1  and  O1_2 
REMARK    2  A    between atoms: O1_2  and  C2_3 
REMARK    3  A    between atoms: C2_3  and  C3_5 
REMARK    4  A    between atoms: C3_5  and  C4_6 
ROOT
ATOM      1  C3  <0> d          -1.244  -2.135   0.003  0.00  0.00     0.072 C 
ATOM      2  H4  <0> d          -0.753  -2.514  -0.894  0.00  0.00     0.059 H 
ATOM      3  H5  <0> d          -0.736  -2.523   0.886  0.00  0.00     0.059 H 
ENDROOT
BRANCH   1   4
ATOM      4  C2  <0> d          -1.185  -0.630   0.010  0.00  0.00     0.265 C 
ATOM      5  O2  <0> d          -2.208   0.015   0.023  0.00  0.00    -0.265 OA
BRANCH   4   6
ATOM      6  O1  <0> d           0.002  -0.004   0.002  0.00  0.00    -0.326 OA
BRANCH   6   7
ATOM      7  C1  <0> d          -0.017   1.425   0.010  0.00  0.00     0.013 C 
ATOM      8  H1  <0> d           1.005   1.802   0.002  0.00  0.00     0.067 H 
ATOM      9  H2  <0> d          -0.544   1.786  -0.873  0.00  0.00     0.067 H 
ATOM     10  H3  <0> d          -0.527   1.776   0.907  0.00  0.00     0.067 H 
ENDBRANCH   6   7
ENDBRANCH   4   6
ENDBRANCH   1   4
BRANCH   1  11
ATOM     11  C4  <0> d          -2.683  -2.582   0.014  0.00  0.00     0.134 A 
ATOM     12  N2  <0> d          -3.307  -2.767  -1.133  0.00  0.00    -0.245 NA
ATOM     13  C7  <0> d          -4.569  -3.164  -1.162  0.00  0.00     0.005 A 
ATOM     14  C6  <0> d          -5.237  -3.375   0.034  0.00  0.00    -0.049 A 
ATOM     15  H8  <0> d          -5.072  -3.317  -2.105  0.00  0.00     0.114 H 
ATOM     16  C5  <0> d          -4.549  -3.166   1.219  0.00  0.00     0.005 A 
ATOM     17  H7  <0> d          -6.268  -3.696   0.042  0.00  0.00     0.087 H 
ATOM     18  N1  <0> d          -3.286  -2.774   1.170  0.00  0.00    -0.245 NA
ATOM     19  H6  <0> d          -5.037  -3.321   2.170  0.00  0.00     0.114 H 
ENDBRANCH   1  11
TORSDOF 4
