REMARK  0 active torsions:
REMARK  status: ('A' for Active; 'I' for Inactive)
ROOT
ATOM      1  C1  <0> d          -0.013   1.076   0.008  0.00  0.00    -0.082 A 
ATOM      2  C2  <0> d           1.183   1.781   0.000  0.00  0.00    -0.080 A 
ATOM      3  C3  <0> d           1.185   3.159   0.008  0.00  0.00    -0.047 A 
ATOM      4  C4  <0> d          -0.021   3.851   0.023  0.00  0.00     0.114 A 
ATOM      5  C5  <0> d          -1.228   3.134   0.031  0.00  0.00     0.043 A 
ATOM      6  C6  <0> d          -1.208   1.738   0.017  0.00  0.00    -0.067 A 
ATOM      7  C7  <0> d          -2.302   4.132   0.047  0.00  0.00     0.166 A 
ATOM      8  N1  <0> d          -1.743   5.304   0.048  0.00  0.00    -0.115 NA
ATOM      9  O1  <0> d          -0.337   5.162   0.033  0.00  0.00    -0.211 OA
ATOM     10 Cl1  <0> d          -4.008   3.807   0.062  0.00  0.00    -0.059 Cl
ATOM     11  H1  <0> d           0.002  -0.004   0.002  0.00  0.00     0.083 H 
ATOM     12  H2  <0> d           2.120   1.244  -0.011  0.00  0.00     0.083 H 
ATOM     13  H3  <0> d           2.120   3.699   0.002  0.00  0.00     0.087 H 
ATOM     14  H4  <0> d          -2.134   1.183   0.018  0.00  0.00     0.085 H 
ENDROOT
TORSDOF 0
