REMARK  1 active torsions:
REMARK  status: ('A' for Active; 'I' for Inactive)
REMARK    1  A    between atoms: C2_2  and  C3_3 
ROOT
ATOM      1  C1  <0> d           0.018  -1.178  -0.004  0.00  0.00    -0.149 C 
ATOM      2  C2  <0> d           0.002  -0.004   0.002  0.00  0.00    -0.057 C 
ATOM      3  H1  <0> d           0.032  -2.228  -0.010  0.00  0.00     0.166 H 
ENDROOT
BRANCH   2   4
ATOM      4  C3  <0> d          -0.018   1.468   0.010  0.00  0.00     0.190 C 
ATOM      5  O2  <0> d          -0.709   1.941  -1.148  0.00  0.00    -0.350 OA
ATOM      6  C6  <0> d          -0.807   3.367  -1.219  0.00  0.00     0.025 C 
ATOM      7  C5  <0> d          -1.520   3.880   0.037  0.00  0.00    -0.025 C 
ATOM      8  H7  <0> d           0.192   3.799  -1.273  0.00  0.00     0.074 H 
ATOM      9  H8  <0> d          -1.377   3.651  -2.103  0.00  0.00     0.074 H 
ATOM     10  C4  <0> d          -0.783   3.354   1.274  0.00  0.00     0.025 C 
ATOM     11  H5  <0> d          -1.511   4.970   0.043  0.00  0.00     0.039 H 
ATOM     12  H6  <0> d          -2.549   3.521   0.045  0.00  0.00     0.039 H 
ATOM     13  O1  <0> d          -0.687   1.929   1.186  0.00  0.00    -0.350 OA
ATOM     14  H3  <0> d           0.217   3.785   1.314  0.00  0.00     0.074 H 
ATOM     15  H4  <0> d          -1.336   3.629   2.172  0.00  0.00     0.074 H 
ATOM     16  H2  <0> d           1.005   1.845   0.002  0.00  0.00     0.151 H 
ENDBRANCH   2   4
TORSDOF 1
