REMARK  3 active torsions:
REMARK  status: ('A' for Active; 'I' for Inactive)
REMARK    1  A    between atoms: C1_1  and  C2_2 
REMARK    2  A    between atoms: C3_4  and  C5_7 
REMARK    3  A    between atoms: C5_7  and  C6_9 
ROOT
ATOM      1  C2  <0> d           1.348   0.156   3.885  0.00  0.00     0.071 A 
ATOM      2  N1  <0> d           0.891   0.461   2.697  0.00  0.00    -0.242 NA
ATOM      3  C3  <0> d          -0.200   1.218   2.571  0.00  0.00     0.109 A 
ATOM      4  C4  <0> d          -0.836   1.656   3.721  0.00  0.00    -0.012 A 
ATOM      5  S1  <0> d           0.171   0.966   4.956  0.00  0.00    -0.085 SA
ATOM      6  H4  <0> d          -1.722   2.265   3.823  0.00  0.00     0.098 H 
ENDROOT
BRANCH   3   7
ATOM      7  C5  <0> d          -0.718   1.572   1.248  0.00  0.00     0.174 C 
ATOM      8  O1  <0> d          -1.715   2.257   1.150  0.00  0.00    -0.291 OA
BRANCH   7   9
ATOM      9  C6  <0> d          -0.013   1.086   0.008  0.00  0.00    -0.015 C 
ATOM     10  H5  <0> d           0.001   0.086   0.003  0.00  0.00     0.038 H 
ATOM     11  H6  <0> d           1.010   1.463   0.000  0.00  0.00     0.038 H 
ATOM     12  H7  <0> d          -0.540   1.447  -0.875  0.00  0.00     0.038 H 
ENDBRANCH   7   9
ENDBRANCH   3   7
BRANCH   1  13
ATOM     13  C1  <0> d           2.552  -0.671   4.255  0.00  0.00    -0.029 C 
ATOM     14  H1  <0> d           2.636  -0.727   5.340  0.00  0.00     0.036 H 
ATOM     15  H2  <0> d           2.442  -1.676   3.847  0.00  0.00     0.036 H 
ATOM     16  H3  <0> d           3.450  -0.209   3.844  0.00  0.00     0.036 H 
ENDBRANCH   1  13
TORSDOF 3
