REMARK  3 active torsions:
REMARK  status: ('A' for Active; 'I' for Inactive)
REMARK    1  A    between atoms: C1_1  and  C2_2 
REMARK       I    between atoms: C2_2  and  N1_4 
REMARK    2  A    between atoms: N1_4  and  C3_5 
REMARK    3  A    between atoms: N5_9  and  C4_10 
ROOT
ATOM      1  C3  <0> d          -1.223   1.644   0.017  0.00  0.00     0.746 A 
ATOM      2  N2  <0> d          -1.388   2.947   0.030  0.00  0.00     0.065 NA
ATOM      3  N3  <0> d          -2.637   3.243   0.032  0.00  0.00    -0.008 NA
ATOM      4  N4  <0> d          -3.351   2.169   0.030  0.00  0.00    -0.031 NA
ATOM      5  N5  <0> d          -2.455   1.086   0.020  0.00  0.00    -0.082 N 
ENDROOT
BRANCH   1   6
ATOM      6  N1  <0> d          -0.011   0.966   0.007  0.00  0.00    -0.155 N 
ATOM      7  C2  <0> d           1.147   1.655  -0.000  0.00  0.00     0.232 C 
ATOM      8  O1  <0> d           1.130   2.868   0.007  0.00  0.00    -0.273 OA
ATOM      9  H4  <0> d           0.002  -0.004   0.002  0.00  0.00     0.187 HD
BRANCH   7  10
ATOM     10  C1  <0> d           2.462   0.920  -0.017  0.00  0.00    -0.002 C 
ATOM     11  H1  <0> d           2.769   0.748  -1.048  0.00  0.00     0.040 H 
ATOM     12  H2  <0> d           3.218   1.516   0.493  0.00  0.00     0.040 H 
ATOM     13  H3  <0> d           2.349  -0.037   0.493  0.00  0.00     0.040 H 
ENDBRANCH   7  10
ENDBRANCH   1   6
BRANCH   5  14
ATOM     14  C4  <0> d          -2.785  -0.341   0.013  0.00  0.00     0.021 C 
ATOM     15  H5  <0> d          -2.863  -0.701   1.040  0.00  0.00     0.060 H 
ATOM     16  H6  <0> d          -3.737  -0.492  -0.497  0.00  0.00     0.060 H 
ATOM     17  H7  <0> d          -2.003  -0.893  -0.507  0.00  0.00     0.060 H 
ENDBRANCH   5  14
TORSDOF 3
