REMARK  7 active torsions:
REMARK  status: ('A' for Active; 'I' for Inactive)
REMARK    1  A    between atoms: C1_1  and  C2_2 
REMARK    2  A    between atoms: C2_2  and  C3_4 
REMARK    3  A    between atoms: C2_2  and  O4_12 
REMARK    4  A    between atoms: C3_4  and  C4_6 
REMARK    5  A    between atoms: C3_4  and  O3_11 
REMARK    6  A    between atoms: C4_6  and  C5_8 
REMARK    7  A    between atoms: C4_6  and  O2_10 
ROOT
ATOM      1  C3  <0> d           0.742  -0.511   1.242  0.00  0.00     0.090 C 
ATOM      2  H2  <0> d           1.788  -0.208   1.190  0.00  0.00     0.091 H 
ENDROOT
BRANCH   1   3
ATOM      3  C2  <0> d           0.002  -0.004   0.002  0.00  0.00     0.059 C 
ATOM      4  H1  <0> d           0.512  -0.356  -0.895  0.00  0.00     0.086 H 
BRANCH   3   5
ATOM      5  C1  <0> d          -0.019   1.526   0.010  0.00  0.00    -0.050 C 
ATOM      6  H4  <0> d           1.004   1.903   0.003  0.00  0.00     0.031 H 
ATOM      7  H5  <0> d          -0.546   1.887  -0.873  0.00  0.00     0.031 H 
ATOM      8  H6  <0> d          -0.529   1.877   0.907  0.00  0.00     0.031 H 
ENDBRANCH   3   5
BRANCH   3   9
ATOM      9  O4  <0> d          -1.339  -0.499   0.012  0.00  0.00    -0.393 OA
ATOM     10  H10 <0> d          -1.853  -0.225   0.784  0.00  0.00     0.210 HD
ENDBRANCH   3   9
ENDBRANCH   1   3
BRANCH   1  11
ATOM     11  C4  <0> d           0.655  -2.037   1.299  0.00  0.00     0.112 C 
ATOM     12  H3  <0> d           1.190  -2.464   0.450  0.00  0.00     0.098 H 
BRANCH  11  13
ATOM     13  C5  <0> d           1.277  -2.528   2.581  0.00  0.00     0.118 C 
ATOM     14  O1  <0> d           0.614  -3.157   3.371  0.00  0.00    -0.304 OA
ATOM     15  H7  <0> d           2.315  -2.318   2.793  0.00  0.00     0.147 H 
ENDBRANCH  11  13
BRANCH  11  16
ATOM     16  O2  <0> d          -0.715  -2.439   1.249  0.00  0.00    -0.386 OA
ATOM     17  H8  <0> d          -1.252  -2.095   1.976  0.00  0.00     0.210 HD
ENDBRANCH  11  16
ENDBRANCH   1  11
BRANCH   1  18
ATOM     18  O3  <0> d           0.143   0.044   2.414  0.00  0.00    -0.390 OA
ATOM     19  H9  <0> d          -0.790  -0.184   2.525  0.00  0.00     0.210 HD
ENDBRANCH   1  18
TORSDOF 7
