REMARK  1 active torsions:
REMARK  status: ('A' for Active; 'I' for Inactive)
REMARK    1  A    between atoms: C7_9  and  C8_11 
ROOT
ATOM      1  C1  <0> d          -0.776   1.751   1.194  0.00  0.00    -0.061 C 
ATOM      2  C2  <0> d          -1.071   3.200   0.680  0.00  0.00    -0.060 C 
ATOM      3  C3  <0> d          -0.447   3.251  -0.748  0.00  0.00    -0.041 C 
ATOM      4  H1  <0> d          -0.809   4.047  -1.398  0.00  0.00     0.041 H 
ATOM      5  C4  <0> d          -0.694   1.777  -1.226  0.00  0.00    -0.058 C 
ATOM      6  C5  <0> d          -0.013   1.086   0.008  0.00  0.00    -0.053 C 
ATOM      7  H2  <0> d           0.002  -0.004   0.002  0.00  0.00     0.040 H 
ATOM      8  C6  <0> d           1.380   1.786  -0.002  0.00  0.00    -0.049 C 
ATOM      9  C7  <0> d           1.093   3.221  -0.502  0.00  0.00     0.034 C 
ATOM     10  H3  <0> d           1.371   3.951   0.258  0.00  0.00     0.057 H 
ATOM     11  H4  <0> d          -1.701   1.212   1.400  0.00  0.00     0.033 H 
ATOM     12  H5  <0> d          -0.146   1.780   2.083  0.00  0.00     0.033 H 
ATOM     13  H6  <0> d          -0.593   3.932   1.331  0.00  0.00     0.033 H 
ATOM     14  H7  <0> d          -2.145   3.379   0.632  0.00  0.00     0.033 H 
ATOM     15  H8  <0> d          -0.164   1.567  -2.155  0.00  0.00     0.034 H 
ATOM     16  H9  <0> d          -1.753   1.530  -1.299  0.00  0.00     0.034 H 
ATOM     17  H10 <0> d           1.800   1.812   1.004  0.00  0.00     0.034 H 
ATOM     18  H11 <0> d           2.058   1.274  -0.684  0.00  0.00     0.034 H 
ENDROOT
BRANCH   9  19
ATOM     19  C8  <0> d           1.837   3.489  -1.784  0.00  0.00     0.177 C 
ATOM     20  O1  <0> d           1.227   3.746  -2.795  0.00  0.00    -0.648 OA
ATOM     21  O2  <0> d           3.179   3.441  -1.804  0.00  0.00    -0.648 OA
ENDBRANCH   9  19
TORSDOF 1
