REMARK  4 active torsions:
REMARK  status: ('A' for Active; 'I' for Inactive)
REMARK    1  A    between atoms: C1_1  and  C2_2 
REMARK    2  A    between atoms: C2_2  and  O1_3 
REMARK    3  A    between atoms: O1_3  and  C3_4 
REMARK    4  A    between atoms: C3_4  and  C4_5 
ROOT
ATOM      1  C1  <0> d          -0.018   1.468   0.010  0.00  0.00     0.034 C 
ATOM      2  C5  <0> d           0.002  -0.004   0.002  0.00  0.00     0.061 C 
ATOM      3  N1  <0> d           0.018  -1.140  -0.004  0.00  0.00    -0.197 NA
ATOM      4  H1  <0> d           1.005   1.845   0.002  0.00  0.00     0.058 H 
ATOM      5  H2  <0> d          -0.545   1.829  -0.873  0.00  0.00     0.058 H 
ENDROOT
BRANCH   1   6
ATOM      6  C2  <0> d          -0.734   1.961   1.269  0.00  0.00     0.031 C 
ATOM      7  H3  <0> d          -1.757   1.584   1.277  0.00  0.00     0.075 H 
ATOM      8  H4  <0> d          -0.207   1.600   2.152  0.00  0.00     0.075 H 
BRANCH   6   9
ATOM      9  O1  <0> d          -0.753   3.390   1.277  0.00  0.00    -0.381 OA
BRANCH   9  10
ATOM     10  C3  <0> d          -1.403   3.956   2.417  0.00  0.00     0.109 C 
ATOM     11  H5  <0> d          -2.440   3.620   2.448  0.00  0.00     0.088 H 
ATOM     12  H6  <0> d          -0.890   3.637   3.324  0.00  0.00     0.088 H 
BRANCH  10  13
ATOM     13  C4  <0> d          -1.364   5.483   2.320  0.00  0.00     0.408 C 
ATOM     14  F1  <0> d          -2.023   5.893   1.156  0.00  0.00    -0.169 F 
ATOM     15  F2  <0> d          -2.001   6.037   3.436  0.00  0.00    -0.169 F 
ATOM     16  F3  <0> d          -0.034   5.914   2.279  0.00  0.00    -0.169 F 
ENDBRANCH  10  13
ENDBRANCH   9  10
ENDBRANCH   6   9
ENDBRANCH   1   6
TORSDOF 4
