REMARK  4 active torsions:
REMARK  status: ('A' for Active; 'I' for Inactive)
REMARK    1  A    between atoms: C1_1  and  C2_2 
REMARK    2  A    between atoms: C2_2  and  C3_3 
REMARK    3  A    between atoms: C7_7  and  C10_11 
REMARK    4  A    between atoms: C10_11  and  C11_12 
ROOT
ATOM      1  C3  <0> d           0.707  -0.490  -1.238  0.00  0.00    -0.037 A 
ATOM      2  C4  <0> d          -0.020  -0.817  -2.364  0.00  0.00    -0.075 A 
ATOM      3  C5  <0> d           0.626  -1.263  -3.503  0.00  0.00    -0.082 A 
ATOM      4  C6  <0> d           2.005  -1.385  -3.522  0.00  0.00    -0.075 A 
ATOM      5  C7  <0> d           2.744  -1.062  -2.403  0.00  0.00    -0.037 A 
ATOM      6  C8  <0> d           2.099  -0.605  -1.252  0.00  0.00     0.057 A 
ATOM      7  C9  <0> d           2.861  -0.262  -0.088  0.00  0.00     0.100 C 
ATOM      8  N1  <0> d           3.465   0.009   0.834  0.00  0.00    -0.191 NA
ATOM      9  H6  <0> d          -1.096  -0.725  -2.356  0.00  0.00     0.084 H 
ATOM     10  H7  <0> d           0.052  -1.517  -4.382  0.00  0.00     0.083 H 
ATOM     11  H8  <0> d           2.502  -1.734  -4.414  0.00  0.00     0.084 H 
ENDROOT
BRANCH   1  12
ATOM     12  C2  <0> d           0.002  -0.004   0.002  0.00  0.00    -0.043 C 
ATOM     13  H4  <0> d           0.529  -0.365   0.885  0.00  0.00     0.039 H 
ATOM     14  H5  <0> d          -1.020  -0.381   0.010  0.00  0.00     0.039 H 
BRANCH  12  15
ATOM     15  C1  <0> d          -0.019   1.526   0.010  0.00  0.00    -0.073 C 
ATOM     16  H1  <0> d           1.004   1.903   0.003  0.00  0.00     0.028 H 
ATOM     17  H2  <0> d          -0.546   1.887  -0.873  0.00  0.00     0.028 H 
ATOM     18  H3  <0> d          -0.529   1.877   0.907  0.00  0.00     0.028 H 
ENDBRANCH  12  15
ENDBRANCH   1  12
BRANCH   5  19
ATOM     19  C10 <0> d           4.245  -1.195  -2.425  0.00  0.00    -0.043 C 
ATOM     20  H9  <0> d           4.601  -1.118  -3.452  0.00  0.00     0.039 H 
ATOM     21  H10 <0> d           4.689  -0.401  -1.825  0.00  0.00     0.039 H 
BRANCH  19  22
ATOM     22  C11 <0> d           4.644  -2.555  -1.847  0.00  0.00    -0.073 C 
ATOM     23  H11 <0> d           4.288  -2.632  -0.820  0.00  0.00     0.028 H 
ATOM     24  H12 <0> d           4.200  -3.349  -2.447  0.00  0.00     0.028 H 
ATOM     25  H13 <0> d           5.730  -2.651  -1.863  0.00  0.00     0.028 H 
ENDBRANCH  19  22
ENDBRANCH   5  19
TORSDOF 4
