REMARK  3 active torsions:
REMARK  status: ('A' for Active; 'I' for Inactive)
REMARK    1  A    between atoms: C1_1  and  C2_2 
REMARK    2  A    between atoms: C2_2  and  C3_4 
REMARK    3  A    between atoms: C2_2  and  N1_7 
ROOT
ATOM      1  C2  <0> d          -1.331   2.074   0.020  0.00  0.00     0.117 C 
ATOM      2  H1  <0> d          -1.888   1.829   0.936  0.00  0.00     0.092 H 
ENDROOT
BRANCH   1   3
ATOM      3  C1  <0> d          -2.134   1.700  -1.228  0.00  0.00    -0.046 C 
ATOM      4  H2  <0> d          -3.094   2.237  -1.220  0.00  0.00     0.031 H 
ATOM      5  H3  <0> d          -2.321   0.616  -1.233  0.00  0.00     0.031 H 
ATOM      6  H4  <0> d          -1.565   1.978  -2.127  0.00  0.00     0.031 H 
ENDBRANCH   1   3
BRANCH   1   7
ATOM      7  C3  <0> d          -0.016   1.338   0.009  0.00  0.00     0.198 C 
ATOM      8  O1  <0> d           1.022   1.956   0.003  0.00  0.00    -0.646 OA
ATOM      9  O2  <0> d           0.002  -0.004   0.002  0.00  0.00    -0.646 OA
ENDBRANCH   1   7
BRANCH   1  10
ATOM     10  N1  <0> d          -1.083   3.518   0.026  0.00  0.00    -0.227 N 
ATOM     11  N4  <0> d          -1.792   4.414   0.625  0.00  0.00    -0.044 NA
ATOM     12  N3  <0> d          -1.267   5.570   0.410  0.00  0.00    -0.024 NA
ATOM     13  N2  <0> d          -0.224   5.434  -0.334  0.00  0.00    -0.122 NA
ATOM     14  C4  <0> d          -0.076   4.159  -0.596  0.00  0.00     0.108 A 
ATOM     15  H5  <0> d           0.702   3.709  -1.194  0.00  0.00     0.149 H 
ENDBRANCH   1  10
TORSDOF 3
