REMARK  3 active torsions:
REMARK  status: ('A' for Active; 'I' for Inactive)
REMARK    1  A    between atoms: C1_1  and  C2_2 
REMARK    2  A    between atoms: C5_5  and  S1_8 
REMARK    3  A    between atoms: S1_8  and  N1_10 
ROOT
ATOM      1  C2  <0> d           0.039  -2.768  -0.013  0.00  0.00    -0.062 A 
ATOM      2  C3  <0> d           0.042  -2.084   1.188  0.00  0.00    -0.076 A 
ATOM      3  C4  <0> d           0.023  -0.702   1.195  0.00  0.00    -0.062 A 
ATOM      4  C5  <0> d           0.002  -0.004   0.002  0.00  0.00     0.052 A 
ATOM      5  C6  <0> d          -0.006  -0.689  -1.199  0.00  0.00    -0.062 A 
ATOM      6  C7  <0> d           0.018  -2.071  -1.206  0.00  0.00    -0.076 A 
ATOM      7  H4  <0> d           0.059  -2.629   2.120  0.00  0.00     0.084 H 
ATOM      8  H5  <0> d           0.025  -0.167   2.134  0.00  0.00     0.085 H 
ATOM      9  H6  <0> d          -0.026  -0.144  -2.131  0.00  0.00     0.085 H 
ATOM     10  H7  <0> d           0.016  -2.606  -2.145  0.00  0.00     0.084 H 
ENDROOT
BRANCH   4  11
ATOM     11  S1  <0> d          -0.022   1.758   0.012  0.00  0.00     0.144 S 
ATOM     12  O1  <0> d          -0.479   2.103  -1.289  0.00  0.00    -0.230 OA
BRANCH  11  13
ATOM     13  N1  <0> d           1.579   2.180  -0.001  0.00  0.00    -0.346 N 
ATOM     14  H8  <0> d           1.859   3.010  -0.420  0.00  0.00     0.166 HD
ATOM     15  H9  <0> d           2.238   1.598   0.409  0.00  0.00     0.166 HD
ENDBRANCH  11  13
ENDBRANCH   4  11
BRANCH   1  16
ATOM     16  C1  <0> d           0.061  -4.275  -0.021  0.00  0.00    -0.051 C 
ATOM     17  H1  <0> d           0.076  -4.647   1.014  0.00  0.00     0.033 H 
ATOM     18  H2  <0> d           0.959  -4.626  -0.551  0.00  0.00     0.033 H 
ATOM     19  H3  <0> d          -0.837  -4.652  -0.533  0.00  0.00     0.033 H 
ENDBRANCH   1  16
TORSDOF 3
