REMARK  2 active torsions:
REMARK  status: ('A' for Active; 'I' for Inactive)
REMARK    1  A    between atoms: C2_2  and  C3_3 
REMARK    2  A    between atoms: C3_3  and  C4_4 
ROOT
ATOM      1  C4  <0> d          -2.170   1.352  -1.144  0.00  0.00    -0.027 A 
ATOM      2  C5  <0> d          -2.261   1.942  -2.346  0.00  0.00    -0.015 A 
ATOM      3  N1  <0> d          -3.120   1.239  -3.147  0.00  0.00    -0.365 N 
ATOM      4  H1  <0> d          -3.313   1.577  -4.176  0.00  0.00     0.165 HD
ATOM      5  C6  <0> d          -3.621   0.157  -2.459  0.00  0.00     0.042 A 
ATOM      6  C7  <0> d          -3.047   0.179  -1.175  0.00  0.00    -0.002 A 
ATOM      7  C8  <0> d          -3.376  -0.811  -0.247  0.00  0.00    -0.070 A 
ATOM      8  C9  <0> d          -4.254  -1.800  -0.593  0.00  0.00    -0.082 A 
ATOM      9  C10 <0> d          -4.823  -1.826  -1.859  0.00  0.00    -0.081 A 
ATOM     10  C11 <0> d          -4.513  -0.859  -2.789  0.00  0.00    -0.056 A 
ATOM     11  H7  <0> d          -1.734   2.838  -2.639  0.00  0.00     0.112 H 
ATOM     12  H8  <0> d          -2.937  -0.796   0.739  0.00  0.00     0.084 H 
ATOM     13  H9  <0> d          -4.507  -2.566   0.124  0.00  0.00     0.083 H 
ATOM     14  H10 <0> d          -5.515  -2.614  -2.117  0.00  0.00     0.083 H 
ATOM     15  H11 <0> d          -4.960  -0.889  -3.772  0.00  0.00     0.086 H 
ENDROOT
BRANCH   1  16
ATOM     16  C3  <0> d          -1.328   1.812   0.018  0.00  0.00    -0.024 C 
ATOM     17  H5  <0> d          -1.857   1.603   0.960  0.00  0.00     0.046 H 
ATOM     18  H6  <0> d          -1.144   2.893  -0.067  0.00  0.00     0.046 H 
BRANCH  16  19
ATOM     19  C2  <0> d          -0.013   1.076   0.008  0.00  0.00    -0.108 C 
ATOM     20  C1  <0> d           1.113   1.746   0.001  0.00  0.00    -0.124 C 
ATOM     21  H2  <0> d           2.073   1.209  -0.007  0.00  0.00     0.066 H 
ATOM     22  H3  <0> d           1.098   2.846   0.002  0.00  0.00     0.066 H 
ATOM     23  H4  <0> d           0.002  -0.024   0.007  0.00  0.00     0.076 H 
ENDBRANCH  16  19
ENDBRANCH   1  16
TORSDOF 2
