REMARK  0 active torsions:
REMARK  status: ('A' for Active; 'I' for Inactive)
ROOT
ATOM      1  C1  <0> d          -0.016   1.301   0.009  0.00  0.00     0.069 A 
ATOM      2  N1  <0> d           1.121   2.025   0.002  0.00  0.00    -0.315 N 
ATOM      3  C2  <0> d           2.321   1.406  -0.013  0.00  0.00     0.289 A 
ATOM      4  C3  <0> d           2.355   0.001  -0.020  0.00  0.00     0.239 A 
ATOM      5  C4  <0> d           1.156  -0.686  -0.013  0.00  0.00     0.246 A 
ATOM      6  N2  <0> d           0.002  -0.004   0.002  0.00  0.00    -0.215 NA
ATOM      7  O1  <0> d           1.147  -2.040  -0.020  0.00  0.00    -0.167 OA
ATOM      8  F1  <0> d           3.532  -0.661  -0.035  0.00  0.00    -0.195 F 
ATOM      9  O2  <0> d           3.356   2.054  -0.019  0.00  0.00    -0.265 OA
ATOM     10  H1  <0> d          -0.966   1.814   0.026  0.00  0.00     0.143 H 
ATOM     11  H2  <0> d           1.077   2.994   0.007  0.00  0.00     0.170 HD
ENDROOT
TORSDOF 0
