REMARK  5 active torsions:
REMARK  status: ('A' for Active; 'I' for Inactive)
REMARK    1  A    between atoms: C1_1  and  O1_2 
REMARK    2  A    between atoms: O1_2  and  C2_3 
REMARK    3  A    between atoms: C2_3  and  C3_4 
REMARK    4  A    between atoms: C3_4  and  C4_5 
REMARK    5  A    between atoms: C4_5  and  C5_6 
ROOT
ATOM      1  C5  <0> d          -2.401  -4.291   0.002  0.00  0.00     0.015 C 
ATOM      2  C6  <0> d          -3.738  -4.908   0.011  0.00  0.00     0.059 C 
ATOM      3  N1  <0> d          -4.769  -5.384   0.019  0.00  0.00    -0.197 NA
ATOM      4  H10 <0> d          -1.865  -4.601  -0.895  0.00  0.00     0.054 H 
ATOM      5  H11 <0> d          -1.848  -4.610   0.885  0.00  0.00     0.054 H 
ENDROOT
BRANCH   1   6
ATOM      6  C4  <0> d          -2.543  -2.768   0.011  0.00  0.00    -0.052 C 
ATOM      7  H8  <0> d          -3.080  -2.458   0.908  0.00  0.00     0.034 H 
ATOM      8  H9  <0> d          -3.097  -2.449  -0.872  0.00  0.00     0.034 H 
BRANCH   6   9
ATOM      9  C3  <0> d          -1.154  -2.126   0.002  0.00  0.00    -0.044 C 
ATOM     10  H6  <0> d          -0.617  -2.436  -0.895  0.00  0.00     0.036 H 
ATOM     11  H7  <0> d          -0.600  -2.445   0.885  0.00  0.00     0.036 H 
BRANCH   9  12
ATOM     12  C2  <0> d          -1.295  -0.603   0.011  0.00  0.00     0.019 C 
ATOM     13  H4  <0> d          -1.832  -0.294   0.908  0.00  0.00     0.074 H 
ATOM     14  H5  <0> d          -1.849  -0.284  -0.872  0.00  0.00     0.074 H 
BRANCH  12  15
ATOM     15  O1  <0> d           0.002  -0.004   0.002  0.00  0.00    -0.396 OA
BRANCH  15  16
ATOM     16  C1  <0> d          -0.017   1.425   0.010  0.00  0.00     0.004 C 
ATOM     17  H1  <0> d           1.005   1.802   0.002  0.00  0.00     0.066 H 
ATOM     18  H2  <0> d          -0.544   1.786  -0.873  0.00  0.00     0.066 H 
ATOM     19  H3  <0> d          -0.527   1.776   0.907  0.00  0.00     0.066 H 
ENDBRANCH  15  16
ENDBRANCH  12  15
ENDBRANCH   9  12
ENDBRANCH   6   9
ENDBRANCH   1   6
TORSDOF 5
