REMARK  4 active torsions:
REMARK  status: ('A' for Active; 'I' for Inactive)
REMARK    1  A    between atoms: C1_1  and  C2_2 
REMARK    2  A    between atoms: C2_2  and  C3_3 
REMARK    3  A    between atoms: C2_2  and  C4_4 
REMARK    4  A    between atoms: C7_7  and  N2_10 
ROOT
ATOM      1  C4  <0> d           0.707  -0.490  -1.238  0.00  0.00     0.037 A 
ATOM      2  C5  <0> d           2.086  -0.594  -1.241  0.00  0.00    -0.057 A 
ATOM      3  C6  <0> d           2.728  -1.048  -2.382  0.00  0.00    -0.054 A 
ATOM      4  C7  <0> d           1.952  -1.371  -3.493  0.00  0.00     0.043 A 
ATOM      5  C8  <0> d           0.572  -1.234  -3.414  0.00  0.00     0.028 A 
ATOM      6  N1  <0> d           0.002  -0.805  -2.306  0.00  0.00    -0.263 NA
ATOM      7  H8  <0> d           2.656  -0.330  -0.362  0.00  0.00     0.086 H 
ATOM      8  H9  <0> d           3.803  -1.143  -2.411  0.00  0.00     0.087 H 
ATOM      9  H10 <0> d          -0.039  -1.482  -4.269  0.00  0.00     0.118 H 
ENDROOT
BRANCH   1  10
ATOM     10  C2  <0> d           0.002  -0.004   0.002  0.00  0.00    -0.019 C 
ATOM     11  H4  <0> d          -1.027  -0.392  -0.004  0.00  0.00     0.048 H 
BRANCH  10  12
ATOM     12  C1  <0> d          -0.019   1.526   0.010  0.00  0.00    -0.068 C 
ATOM     13  H1  <0> d          -0.551   1.890  -0.881  0.00  0.00     0.028 H 
ATOM     14  H2  <0> d           1.013   1.907   0.003  0.00  0.00     0.028 H 
ATOM     15  H3  <0> d          -0.534   1.881   0.915  0.00  0.00     0.028 H 
ENDBRANCH  10  12
BRANCH  10  16
ATOM     16  C3  <0> d           0.742  -0.511   1.242  0.00  0.00    -0.068 C 
ATOM     17  H5  <0> d           0.757  -1.611   1.235  0.00  0.00     0.028 H 
ATOM     18  H6  <0> d           0.227  -0.156   2.147  0.00  0.00     0.028 H 
ATOM     19  H7  <0> d           1.774  -0.130   1.234  0.00  0.00     0.028 H 
ENDBRANCH  10  16
ENDBRANCH   1  10
BRANCH   4  20
ATOM     20  N2  <0> d           2.553  -1.828  -4.668  0.00  0.00    -0.398 N 
ATOM     21  H11 <0> d           1.933  -2.081  -5.541  0.00  0.00     0.156 HD
ATOM     22  H12 <0> d           3.647  -1.934  -4.722  0.00  0.00     0.156 HD
ENDBRANCH   4  20
TORSDOF 4
