REMARK  3 active torsions:
REMARK  status: ('A' for Active; 'I' for Inactive)
REMARK    1  A    between atoms: C1_1  and  C2_2 
REMARK    2  A    between atoms: C8_10  and  C9_11 
REMARK    3  A    between atoms: C8_10  and  C10_12 
ROOT
ATOM      1  C2  <0> d          -1.358   1.889   0.027  0.00  0.00    -0.087 C 
ATOM      2  C3  <0> d          -0.263   1.170   0.006  0.00  0.00    -0.101 C 
ATOM      3  C4  <0> d           1.090   1.838  -0.011  0.00  0.00    -0.045 C 
ATOM      4  C5  <0> d           1.086   2.976   1.021  0.00  0.00    -0.040 A 
ATOM      5  H1  <0> d           1.612   2.777   1.954  0.00  0.00     0.042 H 
ATOM      6  C6  <0> d          -0.201   3.821   1.053  0.00  0.00    -0.039 A 
ATOM      7  H2  <0> d          -0.551   4.192   2.016  0.00  0.00     0.042 H 
ATOM      8  C7  <0> d          -1.282   3.396   0.047  0.00  0.00    -0.041 C 
ATOM      9  C8  <0> d           1.091   4.407   0.479  0.00  0.00    -0.039 A 
ATOM     10  H6  <0> d          -0.329   0.092  -0.004  0.00  0.00     0.077 H 
ATOM     11  H7  <0> d           1.860   1.111   0.248  0.00  0.00     0.039 H 
ATOM     12  H8  <0> d           1.285   2.244  -1.004  0.00  0.00     0.039 H 
ATOM     13  H9  <0> d          -2.245   3.808   0.349  0.00  0.00     0.040 H 
ATOM     14  H10 <0> d          -1.023   3.762  -0.946  0.00  0.00     0.040 H 
ENDROOT
BRANCH   9  15
ATOM     15  C9  <0> d           1.811   5.473   1.308  0.00  0.00    -0.069 C 
ATOM     16  H11 <0> d           2.704   5.803   0.778  0.00  0.00     0.028 H 
ATOM     17  H12 <0> d           1.146   6.322   1.465  0.00  0.00     0.028 H 
ATOM     18  H13 <0> d           2.096   5.052   2.272  0.00  0.00     0.028 H 
ENDBRANCH   9  15
BRANCH   9  19
ATOM     19  C10 <0> d           1.172   4.587  -1.038  0.00  0.00    -0.069 C 
ATOM     20  H14 <0> d           0.413   3.969  -1.518  0.00  0.00     0.028 H 
ATOM     21  H15 <0> d           1.001   5.634  -1.289  0.00  0.00     0.028 H 
ATOM     22  H16 <0> d           2.159   4.286  -1.387  0.00  0.00     0.028 H 
ENDBRANCH   9  19
BRANCH   1  23
ATOM     23  C1  <0> d          -2.701   1.206   0.038  0.00  0.00    -0.055 C 
ATOM     24  H3  <0> d          -2.560   0.126   0.025  0.00  0.00     0.033 H 
ATOM     25  H4  <0> d          -3.246   1.491   0.938  0.00  0.00     0.033 H 
ATOM     26  H5  <0> d          -3.269   1.509  -0.842  0.00  0.00     0.033 H 
ENDBRANCH   1  23
TORSDOF 3
