REMARK  4 active torsions:
REMARK  status: ('A' for Active; 'I' for Inactive)
REMARK    1  A    between atoms: C1_1  and  C2_2 
REMARK    2  A    between atoms: C2_2  and  C3_3 
REMARK    3  A    between atoms: C2_2  and  C4_4 
REMARK    4  A    between atoms: C4_4  and  C5_5 
ROOT
ATOM      1  C4  <0> d          -1.439  -0.547   0.010  0.00  0.00    -0.043 C 
ATOM      2  H9  <0> d          -2.065  -0.202   0.833  0.00  0.00     0.036 H 
ATOM      3  H10 <0> d          -1.849  -0.189  -0.934  0.00  0.00     0.036 H 
ENDROOT
BRANCH   1   4
ATOM      4  C2  <0> d          -0.019  -0.005   0.188  0.00  0.00    -0.059 C 
ATOM      5  H5  <0> d           0.429  -0.445   1.079  0.00  0.00     0.038 H 
BRANCH   4   6
ATOM      6  C1  <0> d           0.822  -0.368  -1.037  0.00  0.00    -0.073 C 
ATOM      7  H2  <0> d           1.834   0.018  -0.911  0.00  0.00     0.028 H 
ATOM      8  H3  <0> d           0.858  -1.452  -1.146  0.00  0.00     0.028 H 
ATOM      9  H4  <0> d           0.375   0.071  -1.928  0.00  0.00     0.028 H 
ENDBRANCH   4   6
BRANCH   4  10
ATOM     10  C3  <0> d          -0.069   1.516   0.340  0.00  0.00    -0.073 C 
ATOM     11  H6  <0> d          -0.739   1.778   1.159  0.00  0.00     0.028 H 
ATOM     12  H7  <0> d           0.931   1.893   0.554  0.00  0.00     0.028 H 
ATOM     13  H8  <0> d          -0.435   1.962  -0.585  0.00  0.00     0.028 H 
ENDBRANCH   4  10
ENDBRANCH   1   4
BRANCH   1  14
ATOM     14  C5  <0> d          -1.404  -2.077   0.004  0.00  0.00     0.013 C 
ATOM     15  H1  <0> d          -0.735  -2.435  -0.779  0.00  0.00     0.072 H 
ATOM     16  N1  <0> d          -0.971  -2.581   1.312  0.00  0.00    -0.356 N 
ATOM     17  C8  <0> d          -2.018  -3.021   2.035  0.00  0.00     0.217 C 
ATOM     18  H15 <0> d          -0.050  -2.595   1.615  0.00  0.00     0.162 HD
ATOM     19  C7  <0> d          -3.299  -2.858   1.248  0.00  0.00     0.011 C 
ATOM     20  O1  <0> d          -1.944  -3.482   3.154  0.00  0.00    -0.274 OA
ATOM     21  C6  <0> d          -2.826  -2.643  -0.208  0.00  0.00    -0.038 C 
ATOM     22  H13 <0> d          -3.856  -1.990   1.600  0.00  0.00     0.047 H 
ATOM     23  H14 <0> d          -3.909  -3.759   1.321  0.00  0.00     0.047 H 
ATOM     24  H11 <0> d          -3.460  -1.921  -0.722  0.00  0.00     0.036 H 
ATOM     25  H12 <0> d          -2.792  -3.587  -0.751  0.00  0.00     0.036 H 
ENDBRANCH   1  14
TORSDOF 4
