REMARK  3 active torsions:
REMARK  status: ('A' for Active; 'I' for Inactive)
REMARK    1  A    between atoms: C1_1  and  C2_2 
REMARK    2  A    between atoms: C2_2  and  C3_4 
REMARK    3  A    between atoms: C2_2  and  O1_10 
ROOT
ATOM      1  C3  <0> d           1.171   2.086   0.002  0.00  0.00    -0.030 A 
ATOM      2  C4  <0> d          -0.017   1.378   0.010  0.00  0.00    -0.074 A 
ATOM      3  C5  <0> d           0.002  -0.004   0.002  0.00  0.00    -0.082 A 
ATOM      4  C6  <0> d           1.208  -0.679  -0.014  0.00  0.00    -0.083 A 
ATOM      5  C7  <0> d           2.396   0.029  -0.021  0.00  0.00    -0.082 A 
ATOM      6  C8  <0> d           2.377   1.411  -0.014  0.00  0.00    -0.074 A 
ATOM      7  H5  <0> d          -0.959   1.905   0.017  0.00  0.00     0.084 H 
ATOM      8  H6  <0> d          -0.926  -0.557   0.008  0.00  0.00     0.083 H 
ATOM      9  H7  <0> d           1.223  -1.759  -0.020  0.00  0.00     0.083 H 
ATOM     10  H8  <0> d           3.339  -0.499  -0.033  0.00  0.00     0.083 H 
ATOM     11  H9  <0> d           3.305   1.963  -0.019  0.00  0.00     0.084 H 
ENDROOT
BRANCH   1  12
ATOM     12  C2  <0> d           1.151   3.592   0.010  0.00  0.00     0.057 C 
ATOM     13  H1  <0> d           0.218   3.941   0.455  0.00  0.00     0.089 H 
BRANCH  12  14
ATOM     14  C1  <0> d           1.256   4.111  -1.425  0.00  0.00    -0.049 C 
ATOM     15  H2  <0> d           0.413   3.740  -2.009  0.00  0.00     0.031 H 
ATOM     16  H3  <0> d           1.241   5.201  -1.420  0.00  0.00     0.031 H 
ATOM     17  H4  <0> d           2.188   3.763  -1.870  0.00  0.00     0.031 H 
ENDBRANCH  12  14
BRANCH  12  18
ATOM     18  O1  <0> d           2.255   4.080   0.775  0.00  0.00    -0.391 OA
ATOM     19  H10 <0> d           2.305   5.044   0.823  0.00  0.00     0.210 HD
ENDBRANCH  12  18
ENDBRANCH   1  12
TORSDOF 3
