REMARK  5 active torsions:
REMARK  status: ('A' for Active; 'I' for Inactive)
REMARK    1  A    between atoms: C1_1  and  C2_2 
REMARK    2  A    between atoms: C2_2  and  C3_4 
REMARK    3  A    between atoms: C2_2  and  O2_12 
REMARK    4  A    between atoms: C3_4  and  O1_5 
REMARK    5  A    between atoms: O1_5  and  C4_6 
ROOT
ATOM      1  C4  <0> d          -0.753   1.593  -1.232  0.00  0.00     0.038 C 
ATOM      2  C5  <0> d          -0.013   1.086   0.008  0.00  0.00    -0.041 C 
ATOM      3  C6  <0> d          -0.729   1.579   1.267  0.00  0.00    -0.063 C 
ATOM      4  C7  <0> d          -0.750   3.109   1.275  0.00  0.00    -0.065 C 
ATOM      5  C8  <0> d          -1.490   3.616   0.036  0.00  0.00    -0.063 C 
ATOM      6  C9  <0> d          -0.773   3.123  -1.223  0.00  0.00    -0.041 C 
ATOM      7  H7  <0> d          -1.771   1.180  -1.284  0.00  0.00     0.083 H 
ATOM      8  H8  <0> d           0.002  -0.014   0.002  0.00  0.00     0.036 H 
ATOM      9  H9  <0> d           1.019   1.466   0.000  0.00  0.00     0.036 H 
ATOM     10  H10 <0> d          -1.761   1.198   1.275  0.00  0.00     0.033 H 
ATOM     11  H11 <0> d          -0.197   1.215   2.158  0.00  0.00     0.033 H 
ATOM     12  H12 <0> d          -1.264   3.464   2.180  0.00  0.00     0.033 H 
ATOM     13  H13 <0> d           0.282   3.490   1.267  0.00  0.00     0.033 H 
ATOM     14  H14 <0> d          -2.522   3.235   0.043  0.00  0.00     0.033 H 
ATOM     15  H15 <0> d          -1.505   4.716   0.042  0.00  0.00     0.033 H 
ATOM     16  H16 <0> d           0.259   3.503  -1.231  0.00  0.00     0.036 H 
ATOM     17  H17 <0> d          -1.305   3.487  -2.114  0.00  0.00     0.036 H 
ENDROOT
BRANCH   1  18
ATOM     18  O1  <0> d          -0.084   1.132  -2.407  0.00  0.00    -0.383 OA
BRANCH  18  19
ATOM     19  C3  <0> d          -0.948   0.932  -3.527  0.00  0.00     0.043 C 
ATOM     20  H5  <0> d          -1.440   1.882  -3.785  0.00  0.00     0.078 H 
ATOM     21  H6  <0> d          -1.711   0.182  -3.273  0.00  0.00     0.078 H 
BRANCH  19  22
ATOM     22  C2  <0> d          -0.129   0.442  -4.723  0.00  0.00     0.052 C 
ATOM     23  H1  <0> d          -0.763   0.306  -5.612  0.00  0.00     0.085 H 
BRANCH  22  24
ATOM     24  C1  <0> d           1.010   1.425  -4.999  0.00  0.00    -0.051 C 
ATOM     25  H2  <0> d           1.599   1.072  -5.858  0.00  0.00     0.031 H 
ATOM     26  H3  <0> d           1.658   1.493  -4.113  0.00  0.00     0.031 H 
ATOM     27  H4  <0> d           0.591   2.417  -5.223  0.00  0.00     0.031 H 
ENDBRANCH  22  24
BRANCH  22  28
ATOM     28  O2  <0> d           0.414  -0.847  -4.431  0.00  0.00    -0.394 OA
ATOM     29  H18 <0> d          -0.257  -1.689  -4.205  0.00  0.00     0.210 HD
ENDBRANCH  22  28
ENDBRANCH  19  22
ENDBRANCH  18  19
ENDBRANCH   1  18
TORSDOF 5
