REMARK  3 active torsions:
REMARK  status: ('A' for Active; 'I' for Inactive)
REMARK    1  A    between atoms: C1_1  and  C2_2 
REMARK    2  A    between atoms: C2_2  and  C3_4 
REMARK    3  A    between atoms: C3_4  and  N1_5 
ROOT
ATOM      1  C2  <0> d          -0.013   1.086   0.008  0.00  0.00     0.052 C 
ATOM      2  H1  <0> d          -0.017  -0.014   0.036  0.00  0.00     0.065 H 
ATOM      3  C8  <0> d          -0.702   1.560   1.219  0.00  0.00     0.065 C 
ATOM      4  N2  <0> d          -1.233   1.927   2.154  0.00  0.00    -0.197 NA
ENDROOT
BRANCH   1   5
ATOM      5  C1  <0> d          -0.753   1.593  -1.232  0.00  0.00    -0.059 C 
ATOM      6  H2  <0> d          -1.785   1.212  -1.224  0.00  0.00     0.029 H 
ATOM      7  H3  <0> d          -0.238   1.238  -2.136  0.00  0.00     0.029 H 
ATOM      8  H4  <0> d          -0.768   2.693  -1.225  0.00  0.00     0.029 H 
ENDBRANCH   1   5
BRANCH   1   9
ATOM      9  C3  <0> d           1.423   1.615  -0.003  0.00  0.00     0.128 C 
ATOM     10  H5  <0> d           1.408   2.712  -0.087  0.00  0.00     0.082 H 
ATOM     11  H6  <0> d           1.927   1.326   0.931  0.00  0.00     0.082 H 
BRANCH   9  12
ATOM     12  N1  <0> d           2.146   1.046  -1.147  0.00  0.00     0.093 N 
ATOM     13  C7  <0> d           3.446   1.707  -1.331  0.00  0.00     0.133 C 
ATOM     14  C6  <0> d           4.139   1.125  -2.566  0.00  0.00     0.044 C 
ATOM     15  H13 <0> d           3.292   2.787  -1.469  0.00  0.00     0.083 H 
ATOM     16  H14 <0> d           4.073   1.536  -0.443  0.00  0.00     0.083 H 
ATOM     17  O1  <0> d           4.268  -0.291  -2.412  0.00  0.00    -0.388 OA
ATOM     18  H11 <0> d           5.137   1.575  -2.676  0.00  0.00     0.077 H 
ATOM     19  H12 <0> d           3.538   1.343  -3.462  0.00  0.00     0.077 H 
ATOM     20  C5  <0> d           3.021  -0.967  -2.232  0.00  0.00     0.044 C 
ATOM     21  C4  <0> d           2.317  -0.406  -0.993  0.00  0.00     0.133 C 
ATOM     22  H9  <0> d           3.201  -2.043  -2.095  0.00  0.00     0.077 H 
ATOM     23  H10 <0> d           2.386  -0.810  -3.116  0.00  0.00     0.077 H 
ATOM     24  H7  <0> d           2.925  -0.611  -0.099  0.00  0.00     0.083 H 
ATOM     25  H8  <0> d           1.332  -0.882  -0.882  0.00  0.00     0.083 H 
ENDBRANCH   9  12
ENDBRANCH   1   9
TORSDOF 3
