REMARK  4 active torsions:
REMARK  status: ('A' for Active; 'I' for Inactive)
REMARK    1  A    between atoms: C1_1  and  C2_2 
REMARK    2  A    between atoms: C2_2  and  C3_3 
REMARK    3  A    between atoms: C3_3  and  C4_5 
REMARK    4  A    between atoms: N2_9  and  C7_10 
ROOT
ATOM      1  C4  <0> d          -1.128   1.903   0.017  0.00  0.00     0.099 A 
ATOM      2  C5  <0> d          -0.013   1.076   0.008  0.00  0.00    -0.033 A 
ATOM      3  C6  <0> d           1.085   1.937   0.002  0.00  0.00     0.024 A 
ATOM      4  N1  <0> d           0.634   3.166   0.013  0.00  0.00    -0.185 NA
ATOM      5  N2  <0> d          -0.650   3.185   0.025  0.00  0.00    -0.271 N 
ATOM      6  H6  <0> d           0.002  -0.004   0.002  0.00  0.00     0.089 H 
ATOM      7  H7  <0> d           2.124   1.642  -0.009  0.00  0.00     0.117 H 
ENDROOT
BRANCH   1   8
ATOM      8  C3  <0> d          -2.530   1.487   0.020  0.00  0.00     0.177 C 
ATOM      9  O1  <0> d          -3.411   2.322   0.028  0.00  0.00    -0.291 OA
BRANCH   8  10
ATOM     10  C2  <0> d          -2.882   0.021   0.014  0.00  0.00    -0.007 C 
ATOM     11  H4  <0> d          -2.504  -0.408  -0.806  0.00  0.00     0.044 H 
ATOM     12  H5  <0> d          -2.464  -0.456   0.900  0.00  0.00     0.044 H 
BRANCH  10  13
ATOM     13  C1  <0> d          -4.404  -0.138   0.019  0.00  0.00    -0.070 C 
ATOM     14  H1  <0> d          -4.815   0.331   0.913  0.00  0.00     0.028 H 
ATOM     15  H2  <0> d          -4.822   0.340  -0.867  0.00  0.00     0.028 H 
ATOM     16  H3  <0> d          -4.658  -1.198   0.014  0.00  0.00     0.028 H 
ENDBRANCH  10  13
ENDBRANCH   8  10
ENDBRANCH   1   8
BRANCH   5  17
ATOM     17  C7  <0> d          -1.477   4.394   0.038  0.00  0.00     0.003 C 
ATOM     18  H8  <0> d          -1.691   4.699  -0.986  0.00  0.00     0.059 H 
ATOM     19  H9  <0> d          -2.412   4.189   0.559  0.00  0.00     0.059 H 
ATOM     20  H10 <0> d          -0.943   5.194   0.551  0.00  0.00     0.059 H 
ENDBRANCH   5  17
TORSDOF 4
