REMARK  1 active torsions:
REMARK  status: ('A' for Active; 'I' for Inactive)
REMARK    1  A    between atoms: C1_1  and  C2_2 
ROOT
ATOM      1  C2  <0> d           1.319  -0.312  -0.012  0.00  0.00     0.079 A 
ATOM      2  C3  <0> d           0.002  -0.004   0.002  0.00  0.00     0.003 A 
ATOM      3  C4  <0> d          -0.017   1.415   0.010  0.00  0.00     0.228 A 
ATOM      4  N1  <0> d           1.232   1.797  -0.000  0.00  0.00    -0.100 NA
ATOM      5  O1  <0> d           1.985   0.851  -0.012  0.00  0.00    -0.216 OA
ATOM      6  O2  <0> d          -1.114   2.215   0.020  0.00  0.00    -0.168 OA
ATOM      7  H4  <0> d          -0.840  -0.681   0.006  0.00  0.00     0.094 H 
ENDROOT
BRANCH   1   8
ATOM      8  C1  <0> d           1.921  -1.694  -0.026  0.00  0.00    -0.029 C 
ATOM      9  H1  <0> d           1.116  -2.444  -0.022  0.00  0.00     0.036 H 
ATOM     10  H2  <0> d           2.551  -1.828   0.865  0.00  0.00     0.036 H 
ATOM     11  H3  <0> d           2.534  -1.818  -0.931  0.00  0.00     0.036 H 
ENDBRANCH   1   8
TORSDOF 1
