REMARK  4 active torsions:
REMARK  status: ('A' for Active; 'I' for Inactive)
REMARK    1  A    between atoms: C1_1  and  C2_2 
REMARK    2  A    between atoms: C2_2  and  N1_3 
REMARK       I    between atoms: N1_3  and  C3_4 
REMARK    3  A    between atoms: C3_4  and  C4_6 
REMARK    4  A    between atoms: C7_10  and  C8_11 
ROOT
ATOM      1  C4  <0> d           0.002  -0.004   0.002  0.00  0.00     0.063 A 
ATOM      2  C5  <0> d           1.185  -0.877  -0.020  0.00  0.00    -0.044 A 
ATOM      3  C6  <0> d           0.716  -2.134  -0.016  0.00  0.00     0.020 A 
ATOM      4  O2  <0> d          -0.626  -2.103  -0.003  0.00  0.00    -0.326 OA
ATOM      5  C7  <0> d          -1.073  -0.843   0.008  0.00  0.00     0.064 A 
ATOM      6  H7  <0> d           2.220  -0.569  -0.035  0.00  0.00     0.088 H 
ATOM      7  H8  <0> d           1.322  -3.028  -0.027  0.00  0.00     0.123 H 
ENDROOT
BRANCH   1   8
ATOM      8  C3  <0> d          -0.018   1.470   0.010  0.00  0.00     0.254 C 
ATOM      9  N1  <0> d           1.140   2.159   0.003  0.00  0.00    -0.357 N 
ATOM     10  H6  <0> d           1.986   1.686  -0.008  0.00  0.00     0.162 HD
ATOM     11  O1  <0> d          -1.079   2.063   0.018  0.00  0.00    -0.268 OA
BRANCH   9  12
ATOM     12  C2  <0> d           1.120   3.624   0.011  0.00  0.00    -0.008 C 
ATOM     13  H4  <0> d           0.593   3.985  -0.872  0.00  0.00     0.063 H 
ATOM     14  H5  <0> d           0.610   3.976   0.908  0.00  0.00     0.063 H 
BRANCH  12  15
ATOM     15  C1  <0> d           2.555   4.154  -0.000  0.00  0.00    -0.061 C 
ATOM     16  H1  <0> d           3.066   3.802  -0.897  0.00  0.00     0.029 H 
ATOM     17  H2  <0> d           2.541   5.244   0.006  0.00  0.00     0.029 H 
ATOM     18  H3  <0> d           3.083   3.793   0.883  0.00  0.00     0.029 H 
ENDBRANCH  12  15
ENDBRANCH   9  12
ENDBRANCH   1   8
BRANCH   5  19
ATOM     19  C8  <0> d          -2.520  -0.422   0.023  0.00  0.00    -0.030 C 
ATOM     20  H9  <0> d          -2.879  -0.316  -1.000  0.00  0.00     0.036 H 
ATOM     21  H10 <0> d          -3.113  -1.178   0.539  0.00  0.00     0.036 H 
ATOM     22  H11 <0> d          -2.615   0.531   0.543  0.00  0.00     0.036 H 
ENDBRANCH   5  19
TORSDOF 4
