REMARK  2 active torsions:
REMARK  status: ('A' for Active; 'I' for Inactive)
REMARK    1  A    between atoms: C1_1  and  C2_2 
REMARK    2  A    between atoms: C6_6  and  C7_8 
REMARK       I    between atoms: C7_8  and  N2_10 
ROOT
ATOM      1  C2  <0> d           0.002  -0.004   0.002  0.00  0.00     0.031 A 
ATOM      2  C3  <0> d           0.005  -0.681  -1.208  0.00  0.00    -0.059 A 
ATOM      3  C4  <0> d           0.024  -2.067  -1.210  0.00  0.00    -0.079 A 
ATOM      4  C5  <0> d           0.039  -2.730   0.007  0.00  0.00    -0.050 A 
ATOM      5  C6  <0> d           0.035  -1.985   1.183  0.00  0.00     0.124 A 
ATOM      6  N1  <0> d           0.022  -0.659   1.142  0.00  0.00    -0.248 NA
ATOM      7  H4  <0> d          -0.007  -0.134  -2.139  0.00  0.00     0.086 H 
ATOM      8  H5  <0> d           0.027  -2.617  -2.139  0.00  0.00     0.083 H 
ATOM      9  H6  <0> d           0.054  -3.810   0.042  0.00  0.00     0.087 H 
ENDROOT
BRANCH   5  10
ATOM     10  C7  <0> d           0.050  -2.680   2.492  0.00  0.00     0.268 C 
ATOM     11  O1  <0> d           0.066  -3.894   2.536  0.00  0.00    -0.266 OA
ATOM     12  N2  <0> d           0.045  -1.964   3.635  0.00  0.00    -0.365 N 
ATOM     13  H7  <0> d           0.033  -0.995   3.600  0.00  0.00     0.159 HD
ATOM     14  H8  <0> d           0.055  -2.419   4.492  0.00  0.00     0.159 HD
ENDBRANCH   5  10
BRANCH   1  15
ATOM     15  C1  <0> d          -0.018   1.503   0.010  0.00  0.00    -0.035 C 
ATOM     16  H1  <0> d           1.004   1.880   0.003  0.00  0.00     0.035 H 
ATOM     17  H2  <0> d          -0.545   1.864  -0.873  0.00  0.00     0.035 H 
ATOM     18  H3  <0> d          -0.529   1.854   0.907  0.00  0.00     0.035 H 
ENDBRANCH   1  15
TORSDOF 2
