REMARK  1 active torsions:
REMARK  status: ('A' for Active; 'I' for Inactive)
REMARK    1  A    between atoms: C1_1  and  C2_2 
ROOT
ATOM      1  C2  <0> d           0.002  -0.004   0.002  0.00  0.00     0.060 A 
ATOM      2  C3  <0> d           0.006  -0.722  -1.192  0.00  0.00     0.077 A 
ATOM      3  C4  <0> d           0.026  -2.098  -1.038  0.00  0.00    -0.005 A 
ATOM      4  S1  <0> d           0.037  -2.289   0.629  0.00  0.00     0.001 SA
ATOM      5  N1  <0> d           0.022  -0.688   1.112  0.00  0.00    -0.215 NA
ATOM      6  C5  <0> d          -0.010  -0.088  -2.476  0.00  0.00     0.102 C 
ATOM      7  N2  <0> d          -0.023   0.415  -3.495  0.00  0.00    -0.191 NA
ATOM      8  H4  <0> d           0.032  -2.861  -1.802  0.00  0.00     0.099 H 
ENDROOT
BRANCH   1   9
ATOM      9  C1  <0> d          -0.018   1.503   0.010  0.00  0.00    -0.033 C 
ATOM     10  H1  <0> d           1.004   1.880   0.003  0.00  0.00     0.035 H 
ATOM     11  H2  <0> d          -0.545   1.864  -0.873  0.00  0.00     0.035 H 
ATOM     12  H3  <0> d          -0.529   1.854   0.907  0.00  0.00     0.035 H 
ENDBRANCH   1   9
TORSDOF 1
