REMARK  3 active torsions:
REMARK  status: ('A' for Active; 'I' for Inactive)
REMARK    1  A    between atoms: C1_1  and  C2_2 
REMARK    2  A    between atoms: C2_2  and  N1_3 
REMARK    3  A    between atoms: C5_6  and  N3_8 
ROOT
ATOM      1  N1  <0> d           0.631   3.163   0.013  0.00  0.00    -0.279 N 
ATOM      2  C3  <0> d           1.070   1.887   0.002  0.00  0.00     0.002 A 
ATOM      3  C4  <0> d          -0.013   1.076   0.008  0.00  0.00    -0.021 A 
ATOM      4  C5  <0> d          -1.159   1.887   0.017  0.00  0.00     0.142 A 
ATOM      5  N2  <0> d          -0.770   3.140   0.026  0.00  0.00    -0.155 NA
ATOM      6  H6  <0> d           2.102   1.570  -0.010  0.00  0.00     0.114 H 
ATOM      7  H7  <0> d           0.002  -0.004   0.002  0.00  0.00     0.091 H 
ENDROOT
BRANCH   1   8
ATOM      8  C2  <0> d           1.472   4.362   0.011  0.00  0.00     0.013 C 
ATOM      9  H4  <0> d           1.334   4.904   0.947  0.00  0.00     0.066 H 
ATOM     10  H5  <0> d           2.518   4.073  -0.090  0.00  0.00     0.066 H 
BRANCH   8  11
ATOM     11  C1  <0> d           1.076   5.261  -1.162  0.00  0.00    -0.059 C 
ATOM     12  H1  <0> d           1.213   4.719  -2.098  0.00  0.00     0.029 H 
ATOM     13  H2  <0> d           0.030   5.551  -1.061  0.00  0.00     0.029 H 
ATOM     14  H3  <0> d           1.702   6.154  -1.163  0.00  0.00     0.029 H 
ENDBRANCH   8  11
ENDBRANCH   1   8
BRANCH   4  15
ATOM     15  N3  <0> d          -2.485   1.438   0.019  0.00  0.00    -0.383 N 
ATOM     16  H8  <0> d          -2.674   0.486   0.015  0.00  0.00     0.157 HD
ATOM     17  H9  <0> d          -3.213   2.077   0.026  0.00  0.00     0.157 HD
ENDBRANCH   4  15
TORSDOF 3
