REMARK  2 active torsions:
REMARK  status: ('A' for Active; 'I' for Inactive)
REMARK    1  A    between atoms: C3_3  and  C8_11 
REMARK    2  A    between atoms: C8_11  and  O3_12 
ROOT
ATOM      1  C1  <0> d           1.269   4.877   1.660  0.00  0.00    -0.060 C 
ATOM      2  C2  <0> d           0.532   3.551   1.345  0.00  0.00    -0.055 C 
ATOM      3  C3  <0> d           1.145   3.085   0.008  0.00  0.00     0.021 C 
ATOM      4  H1  <0> d           0.517   3.407  -0.823  0.00  0.00     0.051 H 
ATOM      5  C4  <0> d           2.529   3.743  -0.090  0.00  0.00     0.169 C 
ATOM      6  C5  <0> d           2.715   4.587   1.184  0.00  0.00    -0.012 C 
ATOM      7  O1  <0> d           2.594   4.586  -1.248  0.00  0.00    -0.352 OA
ATOM      8  C6  <0> d           3.961   4.466  -1.712  0.00  0.00     0.043 C 
ATOM      9  C7  <0> d           4.272   2.981  -1.401  0.00  0.00     0.043 C 
ATOM     10  O2  <0> d           3.550   2.746  -0.174  0.00  0.00    -0.352 OA
ATOM     11  H2  <0> d           0.836   5.703   1.096  0.00  0.00     0.033 H 
ATOM     12  H3  <0> d           1.249   5.086   2.729  0.00  0.00     0.033 H 
ATOM     13  H4  <0> d          -0.538   3.727   1.234  0.00  0.00     0.033 H 
ATOM     14  H5  <0> d           0.719   2.816   2.128  0.00  0.00     0.033 H 
ATOM     15  H6  <0> d           3.235   5.517   0.953  0.00  0.00     0.041 H 
ATOM     16  H7  <0> d           3.260   4.023   1.941  0.00  0.00     0.041 H 
ATOM     17  H8  <0> d           4.622   5.129  -1.154  0.00  0.00     0.077 H 
ATOM     18  H9  <0> d           4.028   4.663  -2.782  0.00  0.00     0.077 H 
ATOM     19  H10 <0> d           5.342   2.834  -1.252  0.00  0.00     0.077 H 
ATOM     20  H11 <0> d           3.901   2.335  -2.196  0.00  0.00     0.077 H 
ENDROOT
BRANCH   3  21
ATOM     21  C8  <0> d           1.286   1.562  -0.002  0.00  0.00     0.025 C 
ATOM     22  H12 <0> d           1.840   1.243   0.881  0.00  0.00     0.074 H 
ATOM     23  H13 <0> d           1.823   1.252  -0.899  0.00  0.00     0.074 H 
BRANCH  21  24
ATOM     24  O3  <0> d          -0.011   0.963   0.007  0.00  0.00    -0.400 OA
ATOM     25  H14 <0> d           0.002  -0.004   0.002  0.00  0.00     0.209 HD
ENDBRANCH  21  24
ENDBRANCH   3  21
TORSDOF 2
