REMARK  1 active torsions:
REMARK  status: ('A' for Active; 'I' for Inactive)
REMARK    1  A    between atoms: C2_2  and  C5_9 
ROOT
ATOM      1  C1  <0> d          -0.016   1.324   0.009  0.00  0.00     0.025 A 
ATOM      2  C2  <0> d           1.190   2.025   0.002  0.00  0.00     0.126 A 
ATOM      3  C3  <0> d           2.432   1.241  -0.015  0.00  0.00     0.264 A 
ATOM      4  O1  <0> d           3.521   1.787  -0.022  0.00  0.00    -0.267 OA
ATOM      5  N1  <0> d           2.327  -0.106  -0.021  0.00  0.00    -0.317 N 
ATOM      6  H1  <0> d           3.127  -0.654  -0.031  0.00  0.00     0.170 HD
ATOM      7  C4  <0> d           1.116  -0.689  -0.012  0.00  0.00     0.066 A 
ATOM      8  N2  <0> d           0.002  -0.004   0.002  0.00  0.00    -0.255 NA
ATOM      9  H2  <0> d          -0.956   1.857   0.026  0.00  0.00     0.116 H 
ATOM     10  H3  <0> d           1.060  -1.767  -0.017  0.00  0.00     0.143 H 
ENDROOT
BRANCH   2  11
ATOM     11  C5  <0> d           1.217   3.492   0.009  0.00  0.00     0.216 C 
ATOM     12  O2  <0> d           0.168   4.123   0.022  0.00  0.00    -0.644 OA
ATOM     13  O3  <0> d           2.288   4.084   0.002  0.00  0.00    -0.644 OA
ENDBRANCH   2  11
TORSDOF 1
