REMARK  6 active torsions:
REMARK  status: ('A' for Active; 'I' for Inactive)
REMARK    1  A    between atoms: C1_1  and  C2_2 
REMARK    2  A    between atoms: C2_2  and  C3_3 
REMARK    3  A    between atoms: C2_2  and  C4_4 
REMARK    4  A    between atoms: C4_4  and  C5_5 
REMARK    5  A    between atoms: C4_4  and  C6_6 
REMARK    6  A    between atoms: C4_4  and  N1_7 
REMARK       I    between atoms: N1_7  and  C7_8 
REMARK       I    between atoms: C7_8  and  N2_10 
ROOT
ATOM      1  C4  <0> d           1.423   1.615  -0.003  0.00  0.00     0.030 C 
ENDROOT
BRANCH   1   2
ATOM      2  C2  <0> d          -0.013   1.086   0.008  0.00  0.00    -0.037 C 
ATOM      3  H4  <0> d           0.002  -0.004   0.002  0.00  0.00     0.042 H 
BRANCH   2   4
ATOM      4  C1  <0> d          -0.753   1.593  -1.232  0.00  0.00    -0.071 C 
ATOM      5  H1  <0> d          -1.775   1.215  -1.224  0.00  0.00     0.028 H 
ATOM      6  H2  <0> d          -0.767   2.683  -1.226  0.00  0.00     0.028 H 
ATOM      7  H3  <0> d          -0.242   1.241  -2.128  0.00  0.00     0.028 H 
ENDBRANCH   2   4
BRANCH   2   8
ATOM      8  C3  <0> d          -0.729   1.579   1.267  0.00  0.00    -0.071 C 
ATOM      9  H5  <0> d          -0.744   2.669   1.273  0.00  0.00     0.028 H 
ATOM     10  H6  <0> d          -1.751   1.202   1.275  0.00  0.00     0.028 H 
ATOM     11  H7  <0> d          -0.202   1.218   2.150  0.00  0.00     0.028 H 
ENDBRANCH   2   8
ENDBRANCH   1   2
BRANCH   1  12
ATOM     12  C5  <0> d           1.403   3.141  -0.120  0.00  0.00    -0.053 C 
ATOM     13  H8  <0> d           0.866   3.563   0.729  0.00  0.00     0.030 H 
ATOM     14  H9  <0> d           2.425   3.518  -0.128  0.00  0.00     0.030 H 
ATOM     15  H10 <0> d           0.903   3.428  -1.045  0.00  0.00     0.030 H 
ENDBRANCH   1  12
BRANCH   1  16
ATOM     16  C6  <0> d           2.125   1.213   1.296  0.00  0.00    -0.053 C 
ATOM     17  H11 <0> d           2.139   0.126   1.379  0.00  0.00     0.030 H 
ATOM     18  H12 <0> d           3.147   1.590   1.288  0.00  0.00     0.030 H 
ATOM     19  H13 <0> d           1.588   1.636   2.145  0.00  0.00     0.030 H 
ENDBRANCH   1  16
BRANCH   1  20
ATOM     20  N1  <0> d           2.144   1.047  -1.144  0.00  0.00    -0.334 N 
ATOM     21  C7  <0> d           3.434   1.375  -1.357  0.00  0.00     0.314 C 
ATOM     22  O1  <0> d           3.999   2.141  -0.601  0.00  0.00    -0.248 OA
ATOM     23  N2  <0> d           4.098   0.852  -2.407  0.00  0.00    -0.352 N 
ATOM     24  H15 <0> d           3.647   0.240  -3.010  0.00  0.00     0.160 HD
ATOM     25  H16 <0> d           5.027   1.087  -2.559  0.00  0.00     0.160 HD
ATOM     26  H14 <0> d           1.693   0.436  -1.747  0.00  0.00     0.165 HD
ENDBRANCH   1  20
TORSDOF 6
