REMARK  2 active torsions:
REMARK  status: ('A' for Active; 'I' for Inactive)
REMARK    1  A    between atoms: C6_6  and  C7_7 
REMARK    2  A    between atoms: C7_7  and  C8_8 
REMARK       I    between atoms: C8_8  and  N1_10 
ROOT
ATOM      1  C1  <0> d          -2.990   0.504  -1.179  0.00  0.00    -0.073 A 
ATOM      2  C2  <0> d          -4.025  -0.411  -1.180  0.00  0.00    -0.045 A 
ATOM      3  C3  <0> d          -4.540  -0.875   0.019  0.00  0.00     0.116 A 
ATOM      4  C4  <0> d          -4.013  -0.425   1.218  0.00  0.00    -0.045 A 
ATOM      5  C5  <0> d          -2.975   0.487   1.216  0.00  0.00    -0.073 A 
ATOM      6  C6  <0> d          -2.462   0.950   0.019  0.00  0.00    -0.049 A 
ATOM      7  F1  <0> d          -5.554  -1.767   0.019  0.00  0.00    -0.206 F 
ATOM      8  H1  <0> d          -2.591   0.870  -2.114  0.00  0.00     0.084 H 
ATOM      9  H2  <0> d          -4.435  -0.762  -2.116  0.00  0.00     0.088 H 
ATOM     10  H3  <0> d          -4.414  -0.786   2.153  0.00  0.00     0.088 H 
ATOM     11  H4  <0> d          -2.564   0.838   2.151  0.00  0.00     0.084 H 
ENDROOT
BRANCH   6  12
ATOM     12  C7  <0> d          -1.330   1.944   0.019  0.00  0.00     0.033 C 
ATOM     13  H5  <0> d          -1.392   2.565   0.913  0.00  0.00     0.054 H 
ATOM     14  H6  <0> d          -1.400   2.575  -0.867  0.00  0.00     0.054 H 
BRANCH  12  15
ATOM     15  C8  <0> d          -0.014   1.209   0.009  0.00  0.00     0.219 C 
ATOM     16  O1  <0> d           0.002  -0.004   0.002  0.00  0.00    -0.273 OA
ATOM     17  N1  <0> d           1.143   1.898   0.001  0.00  0.00    -0.370 N 
ATOM     18  H7  <0> d           1.990   1.425  -0.009  0.00  0.00     0.159 HD
ATOM     19  H8  <0> d           1.130   2.868   0.007  0.00  0.00     0.159 HD
ENDBRANCH  12  15
ENDBRANCH   6  12
TORSDOF 2
