REMARK  3 active torsions:
REMARK  status: ('A' for Active; 'I' for Inactive)
REMARK    1  A    between atoms: C1_1  and  C2_2 
REMARK    2  A    between atoms: C2_2  and  C3_3 
REMARK    3  A    between atoms: C6_6  and  C8_9 
ROOT
ATOM      1  C3  <0> d          -0.749   3.086   1.275  0.00  0.00    -0.041 A 
ATOM      2  C4  <0> d          -1.801   3.775   0.691  0.00  0.00    -0.073 A 
ATOM      3  C5  <0> d          -1.781   5.160   0.720  0.00  0.00    -0.048 A 
ATOM      4  C6  <0> d          -0.711   5.809   1.334  0.00  0.00     0.132 A 
ATOM      5  N1  <0> d           0.276   5.111   1.882  0.00  0.00    -0.254 NA
ATOM      6  C7  <0> d           0.280   3.796   1.872  0.00  0.00     0.009 A 
ATOM      7  H6  <0> d          -2.617   3.244   0.223  0.00  0.00     0.084 H 
ATOM      8  H7  <0> d          -2.584   5.729   0.274  0.00  0.00     0.087 H 
ATOM      9  H8  <0> d           1.098   3.263   2.333  0.00  0.00     0.115 H 
ENDROOT
BRANCH   1  10
ATOM     10  C2  <0> d          -0.729   1.579   1.267  0.00  0.00    -0.043 C 
ATOM     11  H4  <0> d          -1.751   1.202   1.275  0.00  0.00     0.039 H 
ATOM     12  H5  <0> d          -0.202   1.218   2.150  0.00  0.00     0.039 H 
BRANCH  10  13
ATOM     13  C1  <0> d          -0.013   1.086   0.008  0.00  0.00    -0.073 C 
ATOM     14  H1  <0> d           0.002  -0.004   0.002  0.00  0.00     0.028 H 
ATOM     15  H2  <0> d           1.010   1.463   0.000  0.00  0.00     0.028 H 
ATOM     16  H3  <0> d          -0.540   1.447  -0.875  0.00  0.00     0.028 H 
ENDBRANCH  10  13
ENDBRANCH   1  10
BRANCH   4  17
ATOM     17  C8  <0> d          -0.675   7.289   1.374  0.00  0.00     0.228 C 
ATOM     18  O1  <0> d          -1.576   7.932   0.874  0.00  0.00    -0.643 OA
ATOM     19  O2  <0> d           0.356   7.921   1.965  0.00  0.00    -0.643 OA
ENDBRANCH   4  17
TORSDOF 3
