REMARK  2 active torsions:
REMARK  status: ('A' for Active; 'I' for Inactive)
REMARK    1  A    between atoms: C1_1  and  C2_2 
REMARK    2  A    between atoms: C2_2  and  C3_4 
ROOT
ATOM      1  C3  <0> d          -0.018   1.460   0.010  0.00  0.00     0.108 A 
ATOM      2  C4  <0> d          -1.218   2.152   0.019  0.00  0.00    -0.012 A 
ATOM      3  S1  <0> d          -0.666   3.799   0.029  0.00  0.00    -0.092 SA
ATOM      4  C5  <0> d           1.088   3.467   0.010  0.00  0.00     0.040 A 
ATOM      5  N1  <0> d           1.119   2.158   0.003  0.00  0.00    -0.250 NA
ATOM      6  H4  <0> d          -2.228   1.770   0.021  0.00  0.00     0.098 H 
ATOM      7  H5  <0> d           1.912   4.166   0.006  0.00  0.00     0.126 H 
ENDROOT
BRANCH   1   8
ATOM      8  C2  <0> d           0.002  -0.004   0.002  0.00  0.00     0.174 C 
ATOM      9  O1  <0> d          -1.040  -0.625   0.008  0.00  0.00    -0.291 OA
BRANCH   8  10
ATOM     10  C1  <0> d           1.317  -0.740  -0.014  0.00  0.00    -0.015 C 
ATOM     11  H1  <0> d           2.068  -0.080  -0.017  0.00  0.00     0.038 H 
ATOM     12  H2  <0> d           1.392  -1.370   0.872  0.00  0.00     0.038 H 
ATOM     13  H3  <0> d           1.375  -1.361  -0.908  0.00  0.00     0.038 H 
ENDBRANCH   8  10
ENDBRANCH   1   8
TORSDOF 2
