REMARK  5 active torsions:
REMARK  status: ('A' for Active; 'I' for Inactive)
REMARK    1  A    between atoms: C1_1  and  C2_2 
REMARK    2  A    between atoms: C2_2  and  C3_3 
REMARK    3  A    between atoms: C2_2  and  C4_4 
REMARK    4  A    between atoms: C7_8  and  O1_10 
REMARK    5  A    between atoms: O1_10  and  C8_11 
ROOT
ATOM      1  C4  <0> d          -0.101   3.752   0.023  0.00  0.00     0.058 A 
ATOM      2  C5  <0> d           1.104   3.074   0.008  0.00  0.00     0.026 A 
ATOM      3  N1  <0> d           1.121   1.752   0.001  0.00  0.00    -0.267 NA
ATOM      4  C6  <0> d          -0.013   1.076   0.008  0.00  0.00     0.053 A 
ATOM      5  C7  <0> d          -1.226   1.756   0.017  0.00  0.00     0.182 A 
ATOM      6  N2  <0> d          -1.240   3.081   0.030  0.00  0.00    -0.226 NA
ATOM      7  H8  <0> d           2.032   3.625   0.002  0.00  0.00     0.117 H 
ATOM      8  H9  <0> d           0.002  -0.004   0.002  0.00  0.00     0.121 H 
ENDROOT
BRANCH   1   9
ATOM      9  C2  <0> d          -0.116   5.259   0.031  0.00  0.00    -0.017 C 
ATOM     10  H4  <0> d          -1.055   5.615  -0.393  0.00  0.00     0.048 H 
BRANCH   9  11
ATOM     11  C1  <0> d           0.018   5.763   1.469  0.00  0.00    -0.068 C 
ATOM     12  H1  <0> d           0.008   6.853   1.475  0.00  0.00     0.028 H 
ATOM     13  H2  <0> d          -0.814   5.388   2.064  0.00  0.00     0.028 H 
ATOM     14  H3  <0> d           0.957   5.407   1.893  0.00  0.00     0.028 H 
ENDBRANCH   9  11
BRANCH   9  15
ATOM     15  C3  <0> d           1.053   5.785  -0.805  0.00  0.00    -0.068 C 
ATOM     16  H5  <0> d           0.958   5.426  -1.830  0.00  0.00     0.028 H 
ATOM     17  H6  <0> d           1.042   6.875  -0.799  0.00  0.00     0.028 H 
ATOM     18  H7  <0> d           1.992   5.429  -0.381  0.00  0.00     0.028 H 
ENDBRANCH   9  15
ENDBRANCH   1   9
BRANCH   5  19
ATOM     19  O1  <0> d          -2.393   1.063   0.019  0.00  0.00    -0.338 OA
BRANCH  19  20
ATOM     20  C8  <0> d          -3.600   1.828   0.029  0.00  0.00     0.012 C 
ATOM     21  H10 <0> d          -4.457   1.154   0.029  0.00  0.00     0.067 H 
ATOM     22  H11 <0> d          -3.628   2.451   0.922  0.00  0.00     0.067 H 
ATOM     23  H12 <0> d          -3.636   2.461  -0.858  0.00  0.00     0.067 H 
ENDBRANCH  19  20
ENDBRANCH   5  19
TORSDOF 5
