REMARK  1 active torsions:
REMARK  status: ('A' for Active; 'I' for Inactive)
REMARK    1  A    between atoms: C1_1  and  C2_2 
ROOT
ATOM      1  C2  <0> d           0.002  -0.004   0.002  0.00  0.00     0.003 A 
ATOM      2  C3  <0> d          -0.005  -0.681  -1.167  0.00  0.00    -0.014 A 
ATOM      3  N1  <0> d           0.019  -2.037  -1.182  0.00  0.00    -0.374 N 
ATOM      4  H1  <0> d           0.022  -2.576  -2.141  0.00  0.00     0.164 HD
ATOM      5  C4  <0> d           0.039  -2.757  -0.034  0.00  0.00    -0.020 A 
ATOM      6  C5  <0> d           0.042  -2.140   1.168  0.00  0.00    -0.019 A 
ATOM      7  C6  <0> d           0.023  -0.726   1.219  0.00  0.00     0.180 A 
ATOM      8  O1  <0> d           0.025  -0.140   2.292  0.00  0.00    -0.288 OA
ATOM      9  H5  <0> d          -0.026  -0.137  -2.099  0.00  0.00     0.112 H 
ATOM     10  H6  <0> d           0.053  -3.836  -0.080  0.00  0.00     0.111 H 
ATOM     11  H7  <0> d           0.058  -2.719   2.079  0.00  0.00     0.091 H 
ENDROOT
BRANCH   1  12
ATOM     12  C1  <0> d          -0.018   1.503   0.010  0.00  0.00    -0.046 C 
ATOM     13  H2  <0> d          -0.033   1.875  -1.025  0.00  0.00     0.033 H 
ATOM     14  H3  <0> d           0.880   1.879   0.522  0.00  0.00     0.033 H 
ATOM     15  H4  <0> d          -0.916   1.854   0.539  0.00  0.00     0.033 H 
ENDBRANCH   1  12
TORSDOF 1
