REMARK  5 active torsions:
REMARK  status: ('A' for Active; 'I' for Inactive)
REMARK    1  A    between atoms: C1_1  and  C2_2 
REMARK    2  A    between atoms: C2_2  and  C3_3 
REMARK    3  A    between atoms: C4_4  and  O2_11 
REMARK    4  A    between atoms: C5_6  and  N3_10 
REMARK    5  A    between atoms: C6_8  and  O1_9 
ROOT
ATOM      1  C3  <0> d          -0.718   1.572   1.248  0.00  0.00     0.048 A 
ATOM      2  C4  <0> d          -0.371   2.783   1.835  0.00  0.00     0.191 A 
ATOM      3  N1  <0> d          -1.018   3.183   2.925  0.00  0.00    -0.038 NA
ATOM      4  C5  <0> d          -1.975   2.438   3.457  0.00  0.00     0.725 A 
ATOM      5  N2  <0> d          -2.328   1.276   2.927  0.00  0.00    -0.038 NA
ATOM      6  C6  <0> d          -1.727   0.817   1.834  0.00  0.00     0.191 A 
ENDROOT
BRANCH   1   7
ATOM      7  C2  <0> d          -0.013   1.086   0.008  0.00  0.00    -0.036 C 
ATOM      8  H4  <0> d           0.002  -0.004   0.002  0.00  0.00     0.040 H 
ATOM      9  H5  <0> d           1.010   1.463   0.000  0.00  0.00     0.040 H 
BRANCH   7  10
ATOM     10  C1  <0> d          -0.753   1.593  -1.232  0.00  0.00    -0.072 C 
ATOM     11  H1  <0> d          -0.767   2.683  -1.226  0.00  0.00     0.028 H 
ATOM     12  H2  <0> d          -0.242   1.241  -2.128  0.00  0.00     0.028 H 
ATOM     13  H3  <0> d          -1.775   1.215  -1.224  0.00  0.00     0.028 H 
ENDBRANCH   7  10
ENDBRANCH   1   7
BRANCH   6  14
ATOM     14  O1  <0> d          -2.094  -0.373   1.298  0.00  0.00    -0.344 OA
ATOM     15  H6  <0> d          -1.601  -1.129   1.645  0.00  0.00     0.219 HD
ENDBRANCH   6  14
BRANCH   2  16
ATOM     16  O2  <0> d           0.611   3.549   1.300  0.00  0.00    -0.344 OA
ATOM     17  H9  <0> d           0.299   4.186   0.643  0.00  0.00     0.219 HD
ENDBRANCH   2  16
BRANCH   4  18
ATOM     18  N3  <0> d          -2.623   2.884   4.595  0.00  0.00    -0.231 N 
ATOM     19  H7  <0> d          -3.326   2.349   4.995  0.00  0.00     0.174 HD
ATOM     20  H8  <0> d          -2.374   3.733   4.994  0.00  0.00     0.174 HD
ENDBRANCH   4  18
TORSDOF 5
