REMARK  1 active torsions:
REMARK  status: ('A' for Active; 'I' for Inactive)
REMARK    1  A    between atoms: C1_1  and  C2_2 
ROOT
ATOM      1  C2  <0> d           1.205  -0.633  -0.013  0.00  0.00    -0.003 A 
ATOM      2  C3  <0> d           0.002  -0.004   0.002  0.00  0.00     0.015 A 
ATOM      3  N1  <0> d          -0.016   1.312   0.009  0.00  0.00    -0.265 NA
ATOM      4  C4  <0> d           1.095   2.013   0.002  0.00  0.00     0.040 A 
ATOM      5  S1  <0> d           2.310   0.772  -0.016  0.00  0.00    -0.086 SA
ATOM      6  H4  <0> d          -0.918  -0.570   0.007  0.00  0.00     0.116 H 
ATOM      7  H5  <0> d           1.221   3.085   0.007  0.00  0.00     0.126 H 
ENDROOT
BRANCH   1   8
ATOM      8  C1  <0> d           1.521  -2.106  -0.024  0.00  0.00    -0.044 C 
ATOM      9  H1  <0> d           1.587  -2.456  -1.054  0.00  0.00     0.034 H 
ATOM     10  H2  <0> d           2.472  -2.278   0.480  0.00  0.00     0.034 H 
ATOM     11  H3  <0> d           0.732  -2.651   0.494  0.00  0.00     0.034 H 
ENDBRANCH   1   8
TORSDOF 1
