REMARK  4 active torsions:
REMARK  status: ('A' for Active; 'I' for Inactive)
REMARK    1  A    between atoms: C1_1  and  C2_2 
REMARK    2  A    between atoms: C3_3  and  C4_4 
REMARK    3  A    between atoms: C4_4  and  C5_5 
REMARK    4  A    between atoms: C10_10  and  O1_11 
ROOT
ATOM      1  C5  <0> d           1.170   2.086   0.002  0.00  0.00    -0.022 A 
ATOM      2  C6  <0> d          -0.017   1.378   0.010  0.00  0.00    -0.074 A 
ATOM      3  C7  <0> d           0.002  -0.004   0.002  0.00  0.00    -0.082 A 
ATOM      4  C8  <0> d           1.208  -0.681  -0.014  0.00  0.00    -0.080 A 
ATOM      5  C9  <0> d           2.396   0.022  -0.022  0.00  0.00    -0.051 A 
ATOM      6  C10 <0> d           2.380   1.409  -0.013  0.00  0.00     0.072 A 
ATOM      7  H8  <0> d          -0.960   1.905   0.017  0.00  0.00     0.084 H 
ATOM      8  H9  <0> d          -0.926  -0.556   0.008  0.00  0.00     0.083 H 
ATOM      9  H10 <0> d           1.220  -1.761  -0.020  0.00  0.00     0.083 H 
ATOM     10  H11 <0> d           3.337  -0.508  -0.035  0.00  0.00     0.087 H 
ENDROOT
BRANCH   1  11
ATOM     11  C4  <0> d           1.149   3.593   0.010  0.00  0.00    -0.024 C 
ATOM     12  H6  <0> d           0.216   3.941   0.455  0.00  0.00     0.046 H 
ATOM     13  H7  <0> d           1.991   3.966   0.593  0.00  0.00     0.046 H 
BRANCH  11  14
ATOM     14  C3  <0> d           1.252   4.104  -1.404  0.00  0.00    -0.103 C 
ATOM     15  C2  <0> d           0.345   4.926  -1.871  0.00  0.00    -0.110 C 
ATOM     16  H4  <0> d          -0.477   5.237  -1.244  0.00  0.00     0.075 H 
ATOM     17  H5  <0> d           2.074   3.793  -2.032  0.00  0.00     0.076 H 
BRANCH  15  18
ATOM     18  C1  <0> d           0.449   5.437  -3.285  0.00  0.00    -0.060 C 
ATOM     19  H1  <0> d           1.385   5.982  -3.407  0.00  0.00     0.032 H 
ATOM     20  H2  <0> d           0.424   4.596  -3.978  0.00  0.00     0.032 H 
ATOM     21  H3  <0> d          -0.389   6.103  -3.493  0.00  0.00     0.032 H 
ENDBRANCH  15  18
ENDBRANCH  11  14
ENDBRANCH   1  11
BRANCH   6  22
ATOM     22  O1  <0> d           3.548   2.104  -0.022  0.00  0.00    -0.360 OA
ATOM     23  H12 <0> d           3.877   2.310  -0.908  0.00  0.00     0.217 HD
ENDBRANCH   6  22
TORSDOF 4
