REMARK  3 active torsions:
REMARK  status: ('A' for Active; 'I' for Inactive)
REMARK    1  A    between atoms: C4_5  and  C6_7 
REMARK    2  A    between atoms: C6_7  and  C7_8 
REMARK    3  A    between atoms: C7_8  and  C8_9 
ROOT
ATOM      1  C8  <0> d          -1.169   7.294  -1.130  0.00  0.00     0.015 C 
ATOM      2  C9  <0> d          -2.003   7.744  -2.257  0.00  0.00     0.059 C 
ATOM      3  N2  <0> d          -2.646   8.092  -3.126  0.00  0.00    -0.197 NA
ATOM      4  H9  <0> d          -1.614   7.627  -0.193  0.00  0.00     0.054 H 
ATOM      5  H10 <0> d          -0.169   7.715  -1.227  0.00  0.00     0.054 H 
ENDROOT
BRANCH   1   6
ATOM      6  C7  <0> d          -1.083   5.766  -1.139  0.00  0.00    -0.049 C 
ATOM      7  H7  <0> d          -0.638   5.433  -2.076  0.00  0.00     0.034 H 
ATOM      8  H8  <0> d          -2.084   5.345  -1.042  0.00  0.00     0.034 H 
BRANCH   6   9
ATOM      9  C6  <0> d          -0.217   5.298   0.032  0.00  0.00    -0.024 C 
ATOM     10  H5  <0> d          -0.662   5.631   0.970  0.00  0.00     0.042 H 
ATOM     11  H6  <0> d           0.784   5.719  -0.065  0.00  0.00     0.042 H 
BRANCH   9  12
ATOM     12  C4  <0> d          -0.132   3.793   0.024  0.00  0.00     0.034 A 
ATOM     13  N1  <0> d          -1.239   3.078   0.030  0.00  0.00    -0.266 NA
ATOM     14  C3  <0> d          -1.214   1.759   0.017  0.00  0.00     0.002 A 
ATOM     15  C2  <0> d          -0.013   1.076   0.008  0.00  0.00    -0.066 A 
ATOM     16  H3  <0> d          -2.142   1.207   0.018  0.00  0.00     0.114 H 
ATOM     17  C1  <0> d           1.174   1.794   0.001  0.00  0.00    -0.080 A 
ATOM     18  H2  <0> d           0.002  -0.004   0.002  0.00  0.00     0.085 H 
ATOM     19  C5  <0> d           1.107   3.179   0.009  0.00  0.00    -0.059 A 
ATOM     20  H1  <0> d           2.127   1.287  -0.011  0.00  0.00     0.083 H 
ATOM     21  H4  <0> d           2.010   3.770   0.004  0.00  0.00     0.086 H 
ENDBRANCH   9  12
ENDBRANCH   6   9
ENDBRANCH   1   6
TORSDOF 3
