REMARK  1 active torsions:
REMARK  status: ('A' for Active; 'I' for Inactive)
REMARK    1  A    between atoms: C1_1  and  C2_2 
ROOT
ATOM      1  C2  <0> d           0.002  -0.004   0.002  0.00  0.00     0.036 A 
ATOM      2  N1  <0> d           0.006  -0.657  -1.111  0.00  0.00    -0.070 NA
ATOM      3  C3  <0> d           0.024  -2.014  -1.178  0.00  0.00     0.755 A 
ATOM      4  N2  <0> d           0.030  -2.824  -2.221  0.00  0.00     0.045 NA
ATOM      5  N3  <0> d           0.049  -4.047  -1.829  0.00  0.00    -0.128 NA
ATOM      6  C4  <0> d           0.056  -4.104  -0.525  0.00  0.00     0.113 A 
ATOM      7  N4  <0> d           0.041  -2.816  -0.066  0.00  0.00    -0.102 N 
ATOM      8  C5  <0> d           0.040  -2.297   1.178  0.00  0.00     0.249 A 
ATOM      9  O1  <0> d           0.055  -3.007   2.155  0.00  0.00    -0.272 OA
ATOM     10  C6  <0> d           0.025  -0.785   1.300  0.00  0.00     0.047 A 
ATOM     11  H4  <0> d           0.071  -5.000   0.077  0.00  0.00     0.148 H 
ATOM     12  H5  <0> d           0.907  -0.479   1.863  0.00  0.00     0.056 H 
ATOM     13  H6  <0> d          -0.855  -0.504   1.879  0.00  0.00     0.056 H 
ENDROOT
BRANCH   1  14
ATOM     14  C1  <0> d          -0.018   1.503   0.010  0.00  0.00    -0.038 C 
ATOM     15  H1  <0> d           1.004   1.880   0.003  0.00  0.00     0.035 H 
ATOM     16  H2  <0> d          -0.545   1.864  -0.873  0.00  0.00     0.035 H 
ATOM     17  H3  <0> d          -0.529   1.854   0.907  0.00  0.00     0.035 H 
ENDBRANCH   1  14
TORSDOF 1
