REMARK  0 active torsions:
REMARK  status: ('A' for Active; 'I' for Inactive)
ROOT
ATOM      1  C1  <0> d           1.284  -0.412  -0.012  0.00  0.00    -0.043 A 
ATOM      2  C2  <0> d           0.002  -0.004   0.002  0.00  0.00     0.019 A 
ATOM      3  O1  <0> d          -0.016   1.339   0.009  0.00  0.00    -0.333 OA
ATOM      4  C3  <0> d           1.244   1.804  -0.000  0.00  0.00     0.035 A 
ATOM      5  C4  <0> d           2.085   0.753  -0.014  0.00  0.00     0.035 A 
ATOM      6 Br1  <0> d           3.975   0.822  -0.032  0.00  0.00    -0.049 Br
ATOM      7  H1  <0> d           1.634  -1.434  -0.021  0.00  0.00     0.088 H 
ATOM      8  H2  <0> d          -0.865  -0.647   0.007  0.00  0.00     0.123 H 
ATOM      9  H3  <0> d           1.534   2.845   0.002  0.00  0.00     0.125 H 
ENDROOT
TORSDOF 0
