REMARK  1 active torsions:
REMARK  status: ('A' for Active; 'I' for Inactive)
REMARK    1  A    between atoms: C1_1  and  N1_2 
ROOT
ATOM      1  N1  <0> d           2.097   0.788  -0.014  0.00  0.00    -0.360 N 
ATOM      2  C2  <0> d           1.260   1.871   0.000  0.00  0.00    -0.020 A 
ATOM      3  C3  <0> d          -0.018   1.461   0.010  0.00  0.00    -0.056 A 
ATOM      4  C4  <0> d           0.002  -0.004   0.002  0.00  0.00    -0.008 A 
ATOM      5  C5  <0> d           1.359  -0.374  -0.013  0.00  0.00     0.044 A 
ATOM      6  C6  <0> d           1.698  -1.723  -0.024  0.00  0.00    -0.056 A 
ATOM      7  C7  <0> d           0.704  -2.678  -0.020  0.00  0.00    -0.081 A 
ATOM      8  C8  <0> d          -0.633  -2.308  -0.005  0.00  0.00    -0.082 A 
ATOM      9  C9  <0> d          -0.988  -0.988   0.006  0.00  0.00    -0.071 A 
ATOM     10  H4  <0> d           1.581   2.902   0.003  0.00  0.00     0.111 H 
ATOM     11  H5  <0> d          -0.895   2.091   0.018  0.00  0.00     0.086 H 
ATOM     12  H6  <0> d           2.736  -2.022  -0.036  0.00  0.00     0.086 H 
ATOM     13  H7  <0> d           0.969  -3.725  -0.030  0.00  0.00     0.083 H 
ATOM     14  H8  <0> d          -1.400  -3.068  -0.002  0.00  0.00     0.083 H 
ATOM     15  H9  <0> d          -2.031  -0.707   0.017  0.00  0.00     0.084 H 
ENDROOT
BRANCH   1  16
ATOM     16  C1  <0> d           3.561   0.856  -0.027  0.00  0.00    -0.014 C 
ATOM     17  H1  <0> d           3.914   0.878  -1.058  0.00  0.00     0.057 H 
ATOM     18  H2  <0> d           3.887   1.759   0.488  0.00  0.00     0.057 H 
ATOM     19  H3  <0> d           3.970  -0.019   0.478  0.00  0.00     0.057 H 
ENDBRANCH   1  16
TORSDOF 1
