REMARK  2 active torsions:
REMARK  status: ('A' for Active; 'I' for Inactive)
REMARK    1  A    between atoms: C1_1  and  N1_2 
REMARK    2  A    between atoms: N1_2  and  C2_3 
ROOT
ATOM      1  C2  <0> d          -0.212   1.226   2.457  0.00  0.00     0.247 A 
ATOM      2  N2  <0> d           0.849   0.490   2.675  0.00  0.00    -0.206 NA
ATOM      3  C3  <0> d           1.030   0.374   4.020  0.00  0.00     0.095 A 
ATOM      4  C4  <0> d           1.977  -0.276   4.812  0.00  0.00    -0.052 A 
ATOM      5  C5  <0> d           1.882  -0.209   6.184  0.00  0.00    -0.081 A 
ATOM      6  C6  <0> d           0.851   0.499   6.782  0.00  0.00    -0.080 A 
ATOM      7  C7  <0> d          -0.092   1.147   6.011  0.00  0.00    -0.048 A 
ATOM      8  C8  <0> d          -0.011   1.090   4.629  0.00  0.00     0.108 A 
ATOM      9  O1  <0> d          -0.760   1.603   3.625  0.00  0.00    -0.276 OA
ATOM     10  H5  <0> d           2.782  -0.829   4.350  0.00  0.00     0.087 H 
ATOM     11  H6  <0> d           2.615  -0.712   6.798  0.00  0.00     0.083 H 
ATOM     12  H7  <0> d           0.786   0.545   7.859  0.00  0.00     0.083 H 
ATOM     13  H8  <0> d          -0.892   1.697   6.483  0.00  0.00     0.087 H 
ENDROOT
BRANCH   1  14
ATOM     14  N1  <0> d          -0.698   1.558   1.213  0.00  0.00    -0.359 N 
ATOM     15  H4  <0> d          -1.495   2.106   1.135  0.00  0.00     0.162 HD
BRANCH  14  16
ATOM     16  C1  <0> d          -0.013   1.086   0.008  0.00  0.00    -0.018 C 
ATOM     17  H1  <0> d           0.002  -0.004   0.002  0.00  0.00     0.056 H 
ATOM     18  H2  <0> d           1.010   1.463   0.000  0.00  0.00     0.056 H 
ATOM     19  H3  <0> d          -0.540   1.447  -0.875  0.00  0.00     0.056 H 
ENDBRANCH  14  16
ENDBRANCH   1  14
TORSDOF 2
