REMARK  3 active torsions:
REMARK  status: ('A' for Active; 'I' for Inactive)
REMARK    1  A    between atoms: C3_3  and  N4_9 
REMARK    2  A    between atoms: C4_5  and  N3_8 
REMARK    3  A    between atoms: C5_6  and  N2_7 
ROOT
ATOM      1  C1  <0> d          -0.017   1.385   0.010  0.00  0.00    -0.050 A 
ATOM      2  C2  <0> d           1.193   2.064   0.002  0.00  0.00    -0.037 A 
ATOM      3  C3  <0> d           2.377   1.341  -0.013  0.00  0.00     0.123 A 
ATOM      4  N1  <0> d           2.364   0.016  -0.021  0.00  0.00    -0.212 NA
ATOM      5  C4  <0> d           1.230  -0.667  -0.014  0.00  0.00     0.150 A 
ATOM      6  C5  <0> d           0.002  -0.004   0.002  0.00  0.00     0.072 A 
ATOM      7  H1  <0> d          -0.952   1.924   0.026  0.00  0.00     0.087 H 
ATOM      8  H2  <0> d           1.212   3.143   0.007  0.00  0.00     0.089 H 
ENDROOT
BRANCH   3   9
ATOM      9  N4  <0> d           3.596   2.017  -0.021  0.00  0.00    -0.384 N 
ATOM     10  H7  <0> d           3.612   2.986  -0.016  0.00  0.00     0.157 HD
ATOM     11  H8  <0> d           4.427   1.517  -0.032  0.00  0.00     0.157 HD
ENDBRANCH   3   9
BRANCH   5  12
ATOM     12  N3  <0> d           1.262  -2.059  -0.022  0.00  0.00    -0.382 N 
ATOM     13  H5  <0> d           2.113  -2.524  -0.033  0.00  0.00     0.157 HD
ATOM     14  H6  <0> d           0.434  -2.564  -0.017  0.00  0.00     0.157 HD
ENDBRANCH   5  12
BRANCH   6  15
ATOM     15  N2  <0> d          -1.198  -0.731   0.010  0.00  0.00    -0.396 N 
ATOM     16  H3  <0> d          -2.049  -0.264   0.021  0.00  0.00     0.156 HD
ATOM     17  H4  <0> d          -1.178  -1.701   0.005  0.00  0.00     0.156 HD
ENDBRANCH   6  15
TORSDOF 3
