REMARK  2 active torsions:
REMARK  status: ('A' for Active; 'I' for Inactive)
REMARK    1  A    between atoms: C1_1  and  N1_2 
REMARK    2  A    between atoms: C8_9  and  N3_11 
ROOT
ATOM      1  N1  <0> d           0.197   5.186   0.029  0.00  0.00    -0.272 N 
ATOM      2  C2  <0> d          -0.089   3.846   0.024  0.00  0.00     0.066 A 
ATOM      3  C3  <0> d          -1.274   3.113   0.030  0.00  0.00    -0.055 A 
ATOM      4  C4  <0> d          -1.229   1.748   0.017  0.00  0.00    -0.081 A 
ATOM      5  C5  <0> d          -0.013   1.076   0.008  0.00  0.00    -0.082 A 
ATOM      6  C6  <0> d           1.164   1.768   0.000  0.00  0.00    -0.067 A 
ATOM      7  C7  <0> d           1.144   3.166   0.008  0.00  0.00     0.039 A 
ATOM      8  C8  <0> d           2.182   4.198   0.004  0.00  0.00     0.154 A 
ATOM      9  N2  <0> d           1.585   5.360   0.016  0.00  0.00    -0.154 NA
ATOM     10  H4  <0> d          -2.226   3.623   0.042  0.00  0.00     0.087 H 
ATOM     11  H5  <0> d          -2.150   1.184   0.019  0.00  0.00     0.083 H 
ATOM     12  H6  <0> d           0.002  -0.004   0.002  0.00  0.00     0.083 H 
ATOM     13  H7  <0> d           2.105   1.239  -0.011  0.00  0.00     0.085 H 
ENDROOT
BRANCH   1  14
ATOM     14  C1  <0> d          -0.794   6.265   0.043  0.00  0.00     0.003 C 
ATOM     15  H1  <0> d          -1.048   6.538  -0.980  0.00  0.00     0.059 H 
ATOM     16  H2  <0> d          -1.690   5.928   0.564  0.00  0.00     0.059 H 
ATOM     17  H3  <0> d          -0.379   7.132   0.558  0.00  0.00     0.059 H 
ENDBRANCH   1  14
BRANCH   8  18
ATOM     18  N3  <0> d           3.562   3.980  -0.011  0.00  0.00    -0.382 N 
ATOM     19  H8  <0> d           3.910   3.075  -0.020  0.00  0.00     0.157 HD
ATOM     20  H9  <0> d           4.172   4.734  -0.012  0.00  0.00     0.157 HD
ENDBRANCH   8  18
TORSDOF 2
