REMARK  4 active torsions:
REMARK  status: ('A' for Active; 'I' for Inactive)
REMARK    1  A    between atoms: C1_1  and  C2_2 
REMARK    2  A    between atoms: C2_2  and  C3_4 
REMARK    3  A    between atoms: C7_8  and  O2_10 
REMARK    4  A    between atoms: O2_10  and  C9_11 
ROOT
ATOM      1  C3  <0> d          -0.049   3.849   0.022  0.00  0.00     0.012 A 
ATOM      2  C4  <0> d           1.168   3.159   0.007  0.00  0.00    -0.069 A 
ATOM      3  C5  <0> d           1.178   1.781   0.000  0.00  0.00    -0.079 A 
ATOM      4  C6  <0> d          -0.013   1.076   0.008  0.00  0.00    -0.051 A 
ATOM      5  C7  <0> d          -1.226   1.750   0.017  0.00  0.00     0.069 A 
ATOM      6  C8  <0> d          -1.250   3.135   0.030  0.00  0.00    -0.037 A 
ATOM      7  H4  <0> d           2.099   3.707   0.001  0.00  0.00     0.085 H 
ATOM      8  H5  <0> d           2.118   1.249  -0.011  0.00  0.00     0.083 H 
ATOM      9  H6  <0> d           0.002  -0.004   0.002  0.00  0.00     0.087 H 
ATOM     10  H7  <0> d          -2.193   3.660   0.041  0.00  0.00     0.089 H 
ENDROOT
BRANCH   1  11
ATOM     11  C2  <0> d          -0.064   5.321   0.030  0.00  0.00     0.155 C 
ATOM     12  O1  <0> d          -1.121   5.916   0.043  0.00  0.00    -0.293 OA
BRANCH  11  13
ATOM     13  C1  <0> d           1.233   6.088   0.023  0.00  0.00    -0.017 C 
ATOM     14  H1  <0> d           2.000   5.446   0.012  0.00  0.00     0.038 H 
ATOM     15  H2  <0> d           1.276   6.720  -0.865  0.00  0.00     0.038 H 
ATOM     16  H3  <0> d           1.292   6.710   0.915  0.00  0.00     0.038 H 
ENDBRANCH  11  13
ENDBRANCH   1  11
BRANCH   5  17
ATOM     17  O2  <0> d          -2.392   1.052   0.019  0.00  0.00    -0.356 OA
BRANCH  17  18
ATOM     18  C9  <0> d          -2.293  -0.374   0.012  0.00  0.00     0.010 C 
ATOM     19  H8  <0> d          -1.751  -0.706   0.897  0.00  0.00     0.066 H 
ATOM     20  H9  <0> d          -3.293  -0.807   0.015  0.00  0.00     0.066 H 
ATOM     21  H10 <0> d          -1.760  -0.697  -0.882  0.00  0.00     0.066 H 
ENDBRANCH  17  18
ENDBRANCH   5  17
TORSDOF 4
