REMARK  1 active torsions:
REMARK  status: ('A' for Active; 'I' for Inactive)
REMARK    1  A    between atoms: C3_3  and  N5_11 
ROOT
ATOM      1  C1  <0> d          -0.016   1.318   0.009  0.00  0.00     0.021 A 
ATOM      2  C2  <0> d           1.201   2.000   0.001  0.00  0.00     0.076 A 
ATOM      3  C3  <0> d           1.600   3.406   0.004  0.00  0.00     0.157 A 
ATOM      4  N1  <0> d           2.907   3.443  -0.008  0.00  0.00    -0.154 NA
ATOM      5  N2  <0> d           3.423   2.143  -0.020  0.00  0.00    -0.258 N 
ATOM      6  H1  <0> d           4.366   1.915  -0.030  0.00  0.00     0.191 HD
ATOM      7  C4  <0> d           2.397   1.248  -0.014  0.00  0.00     0.160 A 
ATOM      8  N3  <0> d           2.314  -0.080  -0.020  0.00  0.00    -0.222 NA
ATOM      9  C5  <0> d           1.142  -0.675  -0.011  0.00  0.00     0.088 A 
ATOM     10  N4  <0> d           0.002  -0.004   0.002  0.00  0.00    -0.253 NA
ATOM     11  H2  <0> d          -0.951   1.857   0.026  0.00  0.00     0.116 H 
ATOM     12  H3  <0> d           1.108  -1.754  -0.016  0.00  0.00     0.146 H 
ENDROOT
BRANCH   3  13
ATOM     13  N5  <0> d           0.742   4.508   0.018  0.00  0.00    -0.382 N 
ATOM     14  H4  <0> d          -0.218   4.375   0.026  0.00  0.00     0.157 HD
ATOM     15  H5  <0> d           1.107   5.407   0.019  0.00  0.00     0.157 HD
ENDBRANCH   3  13
TORSDOF 1
