REMARK  2 active torsions:
REMARK  status: ('A' for Active; 'I' for Inactive)
REMARK    1  A    between atoms: C1_1  and  C2_2 
REMARK    2  A    between atoms: C4_4  and  C10_12 
ROOT
ATOM      1  C2  <0> d           0.002  -0.004   0.002  0.00  0.00    -0.041 A 
ATOM      2  C3  <0> d          -0.017   1.377   0.010  0.00  0.00    -0.069 A 
ATOM      3  C4  <0> d           1.166   2.090   0.002  0.00  0.00    -0.041 A 
ATOM      4  C5  <0> d           2.391   1.417  -0.013  0.00  0.00     0.052 A 
ATOM      5  C6  <0> d           2.417   0.024  -0.021  0.00  0.00    -0.042 A 
ATOM      6  C7  <0> d           1.220  -0.689  -0.014  0.00  0.00     0.052 A 
ATOM      7  C8  <0> d           1.237  -2.121  -0.022  0.00  0.00     0.100 C 
ATOM      8  N1  <0> d           1.251  -3.257  -0.028  0.00  0.00    -0.191 NA
ATOM      9  C9  <0> d           3.616   2.158  -0.021  0.00  0.00     0.100 C 
ATOM     10  N2  <0> d           4.588   2.746  -0.026  0.00  0.00    -0.191 NA
ATOM     11  H4  <0> d          -0.961   1.901   0.017  0.00  0.00     0.085 H 
ATOM     12  H5  <0> d           3.361  -0.501  -0.033  0.00  0.00     0.088 H 
ENDROOT
BRANCH   1  13
ATOM     13  C1  <0> d          -1.294  -0.773   0.010  0.00  0.00    -0.050 C 
ATOM     14  H1  <0> d          -1.616  -0.954  -1.015  0.00  0.00     0.033 H 
ATOM     15  H2  <0> d          -1.147  -1.727   0.518  0.00  0.00     0.033 H 
ATOM     16  H3  <0> d          -2.055  -0.197   0.535  0.00  0.00     0.033 H 
ENDBRANCH   1  13
BRANCH   3  17
ATOM     17  C10 <0> d           1.135   3.596   0.010  0.00  0.00    -0.050 C 
ATOM     18  H6  <0> d           1.137   3.954   1.040  0.00  0.00     0.033 H 
ATOM     19  H7  <0> d           2.013   3.980  -0.510  0.00  0.00     0.033 H 
ATOM     20  H8  <0> d           0.233   3.944  -0.494  0.00  0.00     0.033 H 
ENDBRANCH   3  17
TORSDOF 2
