REMARK  9 active torsions:
REMARK  status: ('A' for Active; 'I' for Inactive)
REMARK    1  A    between atoms: C1_1  and  C2_2 
REMARK    2  A    between atoms: C2_2  and  C3_3 
REMARK    3  A    between atoms: C3_3  and  C4_4 
REMARK    4  A    between atoms: C4_4  and  C5_6 
REMARK    5  A    between atoms: C4_4  and  C6_7 
REMARK    6  A    between atoms: C6_7  and  C7_9 
REMARK    7  A    between atoms: C7_9  and  C8_11 
REMARK    8  A    between atoms: C7_9  and  C9_12 
REMARK    9  A    between atoms: C9_12  and  C10_13 
ROOT
ATOM      1  C4  <0> d           2.196  -0.721  -1.216  0.00  0.00     0.001 C 
ATOM      2  H1  <0> d           2.467  -1.065  -0.317  0.00  0.00     0.051 H 
ENDROOT
BRANCH   1   3
ATOM      3  C3  <0> d           2.569  -1.748  -2.288  0.00  0.00    -0.056 C 
ATOM      4  H8  <0> d           1.986  -2.656  -2.139  0.00  0.00     0.034 H 
ATOM      5  H9  <0> d           2.356  -1.336  -3.274  0.00  0.00     0.034 H 
BRANCH   3   6
ATOM      6  C2  <0> d           4.060  -2.075  -2.184  0.00  0.00    -0.068 C 
ATOM      7  H6  <0> d           4.643  -1.167  -2.333  0.00  0.00     0.032 H 
ATOM      8  H7  <0> d           4.273  -2.486  -1.197  0.00  0.00     0.032 H 
BRANCH   6   9
ATOM      9  C1  <0> d           4.433  -3.102  -3.255  0.00  0.00    -0.076 C 
ATOM     10  H3  <0> d           3.849  -4.011  -3.107  0.00  0.00     0.027 H 
ATOM     11  H4  <0> d           4.219  -2.691  -4.242  0.00  0.00     0.027 H 
ATOM     12  H5  <0> d           5.495  -3.335  -3.181  0.00  0.00     0.027 H 
ENDBRANCH   6   9
ENDBRANCH   3   6
ENDBRANCH   1   3
BRANCH   1  13
ATOM     13  C5  <0> d           2.921   0.596  -1.498  0.00  0.00    -0.066 C 
ATOM     14  H10 <0> d           2.626   0.971  -2.478  0.00  0.00     0.028 H 
ATOM     15  H11 <0> d           2.656   1.328  -0.734  0.00  0.00     0.028 H 
ATOM     16  H12 <0> d           3.998   0.429  -1.482  0.00  0.00     0.028 H 
ENDBRANCH   1  13
BRANCH   1  17
ATOM     17  C6  <0> d           0.707  -0.490  -1.238  0.00  0.00     0.134 C 
ATOM     18  O1  <0> d           0.080  -0.694  -2.249  0.00  0.00    -0.297 OA
BRANCH  17  19
ATOM     19  C7  <0> d           0.002  -0.004   0.002  0.00  0.00     0.000 C 
ATOM     20  H2  <0> d           0.486  -0.335   0.812  0.00  0.00     0.051 H 
BRANCH  19  21
ATOM     21  C8  <0> d          -0.019   1.526   0.010  0.00  0.00    -0.066 C 
ATOM     22  H13 <0> d           1.004   1.903   0.003  0.00  0.00     0.028 H 
ATOM     23  H14 <0> d          -0.546   1.887  -0.873  0.00  0.00     0.028 H 
ATOM     24  H15 <0> d          -0.529   1.877   0.907  0.00  0.00     0.028 H 
ENDBRANCH  19  21
BRANCH  19  25
ATOM     25  C9  <0> d          -1.433  -0.534   0.013  0.00  0.00    -0.059 C 
ATOM     26  H16 <0> d          -1.986  -0.102  -0.821  0.00  0.00     0.033 H 
ATOM     27  H17 <0> d          -1.421  -1.619  -0.083  0.00  0.00     0.033 H 
BRANCH  25  28
ATOM     28  C10 <0> d          -2.110  -0.145   1.329  0.00  0.00    -0.076 C 
ATOM     29  H18 <0> d          -1.557  -0.577   2.163  0.00  0.00     0.027 H 
ATOM     30  H19 <0> d          -2.123   0.941   1.424  0.00  0.00     0.027 H 
ATOM     31  H20 <0> d          -3.133  -0.522   1.337  0.00  0.00     0.027 H 
ENDBRANCH  25  28
ENDBRANCH  19  25
ENDBRANCH  17  19
ENDBRANCH   1  17
TORSDOF 9
