REMARK  2 active torsions:
REMARK  status: ('A' for Active; 'I' for Inactive)
REMARK    1  A    between atoms: C1_1  and  N1_2 
REMARK    2  A    between atoms: N1_2  and  C2_3 
ROOT
ATOM      1  C2  <0> d          -0.842   2.922   1.442  0.00  0.00     0.124 A 
ATOM      2  C3  <0> d          -0.327   3.832   0.525  0.00  0.00    -0.018 A 
ATOM      3  C4  <0> d          -0.482   5.187   0.763  0.00  0.00     0.039 A 
ATOM      4  C5  <0> d          -1.141   5.586   1.921  0.00  0.00    -0.045 A 
ATOM      5  C6  <0> d          -1.621   4.628   2.789  0.00  0.00     0.006 A 
ATOM      6  N2  <0> d          -1.463   3.342   2.534  0.00  0.00    -0.244 NA
ATOM      7 Cl1  <0> d           0.137   6.362  -0.356  0.00  0.00    -0.084 Cl
ATOM      8  H5  <0> d           0.183   3.487  -0.362  0.00  0.00     0.092 H 
ATOM      9  H6  <0> d          -1.274   6.636   2.138  0.00  0.00     0.088 H 
ATOM     10  H7  <0> d          -2.132   4.933   3.690  0.00  0.00     0.114 H 
ENDROOT
BRANCH   1  11
ATOM     11  N1  <0> d          -0.698   1.558   1.213  0.00  0.00    -0.379 N 
ATOM     12  H4  <0> d          -1.100   0.834   1.937  0.00  0.00     0.160 HD
BRANCH  11  13
ATOM     13  C1  <0> d          -0.013   1.086   0.008  0.00  0.00    -0.020 C 
ATOM     14  H1  <0> d           0.002  -0.014   0.002  0.00  0.00     0.056 H 
ATOM     15  H2  <0> d           1.019   1.466   0.000  0.00  0.00     0.056 H 
ATOM     16  H3  <0> d          -0.545   1.450  -0.883  0.00  0.00     0.056 H 
ENDBRANCH  11  13
ENDBRANCH   1  11
TORSDOF 2
