REMARK  0 active torsions:
REMARK  status: ('A' for Active; 'I' for Inactive)
ROOT
ATOM      1  C1  <0> d          -0.013   1.076   0.008  0.00  0.00     0.013 A 
ATOM      2  C2  <0> d           1.176   1.795   0.001  0.00  0.00     0.164 A 
ATOM      3  C3  <0> d           1.109   3.183   0.008  0.00  0.00     0.212 A 
ATOM      4  C4  <0> d          -0.133   3.799   0.023  0.00  0.00     0.254 A 
ATOM      5  N1  <0> d          -1.242   3.081   0.029  0.00  0.00    -0.189 NA
ATOM      6  C5  <0> d          -1.215   1.760   0.017  0.00  0.00     0.215 A 
ATOM      7  F1  <0> d          -2.376   1.068   0.019  0.00  0.00    -0.184 F 
ATOM      8  F2  <0> d          -0.210   5.147   0.031  0.00  0.00    -0.181 F 
ATOM      9  F3  <0> d           2.239   3.923   0.002  0.00  0.00    -0.198 F 
ATOM     10  F4  <0> d           2.368   1.160  -0.014  0.00  0.00    -0.203 F 
ATOM     11  H1  <0> d           0.002  -0.004   0.002  0.00  0.00     0.095 H 
ENDROOT
TORSDOF 0
