REMARK  1 active torsions:
REMARK  status: ('A' for Active; 'I' for Inactive)
REMARK    1  A    between atoms: C1_1  and  C2_2 
ROOT
ATOM      1  C2  <0> d          -1.945   3.333  -0.047  0.00  0.00    -0.006 C 
ATOM      2  H1  <0> d          -2.931   2.984  -0.387  0.00  0.00     0.049 H 
ATOM      3  C3  <0> d          -0.896   3.026  -1.116  0.00  0.00     0.118 C 
ATOM      4  N1  <0> d          -0.714   1.568  -1.186  0.00  0.00     0.088 N 
ATOM      5  C4  <0> d          -0.013   1.086   0.008  0.00  0.00     0.135 C 
ATOM      6  C5  <0> d          -0.709   1.567   1.254  0.00  0.00    -0.024 A 
ATOM      7  C6  <0> d          -1.602   2.615   1.232  0.00  0.00    -0.045 A 
ATOM      8  C7  <0> d          -2.212   3.027   2.407  0.00  0.00    -0.076 A 
ATOM      9  C8  <0> d          -1.940   2.393   3.594  0.00  0.00    -0.082 A 
ATOM     10  C9  <0> d          -1.044   1.341   3.620  0.00  0.00    -0.082 A 
ATOM     11  C10 <0> d          -0.431   0.931   2.454  0.00  0.00    -0.075 A 
ATOM     12  H5  <0> d          -1.240   3.409  -2.088  0.00  0.00     0.080 H 
ATOM     13  H6  <0> d           0.054   3.511  -0.847  0.00  0.00     0.080 H 
ATOM     14  H7  <0> d          -1.697   1.078  -1.248  0.00  0.00     0.316 HD
ATOM     15  H8  <0> d           0.001  -0.014   0.007  0.00  0.00     0.086 H 
ATOM     16  H9  <0> d           1.020   1.465   0.005  0.00  0.00     0.086 H 
ATOM     17  H10 <0> d          -2.912   3.849   2.389  0.00  0.00     0.084 H 
ATOM     18  H11 <0> d          -2.421   2.719   4.505  0.00  0.00     0.083 H 
ATOM     19  H12 <0> d          -0.824   0.842   4.552  0.00  0.00     0.083 H 
ATOM     20  H13 <0> d           0.270   0.109   2.476  0.00  0.00     0.084 H 
ENDROOT
BRANCH   1  21
ATOM     21  C1  <0> d          -1.981   4.841   0.211  0.00  0.00    -0.067 C 
ATOM     22  H2  <0> d          -2.231   5.367  -0.722  0.00  0.00     0.028 H 
ATOM     23  H3  <0> d          -0.995   5.175   0.568  0.00  0.00     0.028 H 
ATOM     24  H4  <0> d          -2.741   5.065   0.974  0.00  0.00     0.028 H 
ENDBRANCH   1  21
TORSDOF 1
