REMARK  4 active torsions:
REMARK  status: ('A' for Active; 'I' for Inactive)
REMARK    1  A    between atoms: C1_1  and  C2_2 
REMARK    2  A    between atoms: C2_2  and  C3_4 
REMARK    3  A    between atoms: C2_2  and  C5_6 
REMARK    4  A    between atoms: C5_6  and  O1_12 
ROOT
ATOM      1  C5  <0> d           2.178   0.019   1.231  0.00  0.00     0.064 C 
ATOM      2  C6  <0> d           0.742  -0.511   1.242  0.00  0.00    -0.036 C 
ATOM      3  C7  <0> d           0.002  -0.004   0.002  0.00  0.00    -0.062 C 
ATOM      4  C8  <0> d          -0.019   1.526   0.010  0.00  0.00    -0.065 C 
ATOM      5  C9  <0> d           1.417   2.055  -0.000  0.00  0.00    -0.062 C 
ATOM      6  C10 <0> d           2.157   1.548   1.239  0.00  0.00    -0.036 C 
ATOM      7  H8  <0> d           0.232  -0.159   2.138  0.00  0.00     0.037 H 
ATOM      8  H9  <0> d           0.757  -1.601   1.236  0.00  0.00     0.037 H 
ATOM      9  H10 <0> d          -1.020  -0.381   0.010  0.00  0.00     0.033 H 
ATOM     10  H11 <0> d           0.512  -0.356  -0.895  0.00  0.00     0.033 H 
ATOM     11  H12 <0> d          -0.546   1.887  -0.873  0.00  0.00     0.033 H 
ATOM     12  H13 <0> d          -0.529   1.877   0.907  0.00  0.00     0.033 H 
ATOM     13  H14 <0> d           1.927   1.704  -0.897  0.00  0.00     0.033 H 
ATOM     14  H15 <0> d           1.402   3.145   0.006  0.00  0.00     0.033 H 
ATOM     15  H16 <0> d           1.647   1.900   2.136  0.00  0.00     0.037 H 
ATOM     16  H17 <0> d           3.179   1.926   1.231  0.00  0.00     0.037 H 
ENDROOT
BRANCH   1  17
ATOM     17  C2  <0> d           2.917  -0.488   2.470  0.00  0.00    -0.012 C 
ATOM     18  H1  <0> d           3.010  -1.573   2.420  0.00  0.00     0.050 H 
BRANCH  17  19
ATOM     19  C1  <0> d           4.311   0.141   2.525  0.00  0.00    -0.067 C 
ATOM     20  H2  <0> d           4.219   1.226   2.575  0.00  0.00     0.028 H 
ATOM     21  H3  <0> d           4.838  -0.221   3.408  0.00  0.00     0.028 H 
ATOM     22  H4  <0> d           4.870  -0.135   1.630  0.00  0.00     0.028 H 
ENDBRANCH  17  19
BRANCH  17  23
ATOM     23  C3  <0> d           2.146  -0.107   3.707  0.00  0.00    -0.105 C 
ATOM     24  C4  <0> d           1.707  -1.037   4.518  0.00  0.00    -0.124 C 
ATOM     25  H6  <0> d           1.154  -0.764   5.405  0.00  0.00     0.066 H 
ATOM     26  H7  <0> d           1.898  -2.078   4.301  0.00  0.00     0.066 H 
ATOM     27  H5  <0> d           1.954   0.934   3.925  0.00  0.00     0.076 H 
ENDBRANCH  17  23
ENDBRANCH   1  17
BRANCH   1  28
ATOM     28  O1  <0> d           2.846  -0.442   0.055  0.00  0.00    -0.389 OA
ATOM     29  H18 <0> d           2.431  -0.158  -0.771  0.00  0.00     0.210 HD
ENDBRANCH   1  28
TORSDOF 4
