REMARK  1 active torsions:
REMARK  status: ('A' for Active; 'I' for Inactive)
REMARK    1  A    between atoms: C1_1  and  C2_2 
ROOT
ATOM      1  C2  <0> d          -2.582   2.051   0.039  0.00  0.00    -0.048 A 
ATOM      2  C3  <0> d          -3.462   3.111   0.052  0.00  0.00    -0.076 A 
ATOM      3  C4  <0> d          -2.988   4.415   0.054  0.00  0.00    -0.080 A 
ATOM      4  C5  <0> d          -1.634   4.669   0.043  0.00  0.00    -0.056 A 
ATOM      5  C6  <0> d          -0.729   3.613   0.029  0.00  0.00     0.044 A 
ATOM      6  C7  <0> d          -1.210   2.294   0.019  0.00  0.00     0.019 A 
ATOM      7  C8  <0> d          -0.017   1.428   0.010  0.00  0.00     0.072 A 
ATOM      8  C9  <0> d           1.063   2.258   0.004  0.00  0.00    -0.002 A 
ATOM      9  N1  <0> d           0.649   3.551   0.015  0.00  0.00    -0.364 N 
ATOM     10  H1  <0> d           1.242   4.477   0.014  0.00  0.00     0.165 HD
ATOM     11  C10 <0> d           0.002  -0.004   0.002  0.00  0.00     0.102 C 
ATOM     12  N2  <0> d           0.018  -1.140  -0.004  0.00  0.00    -0.191 NA
ATOM     13  H5  <0> d          -4.526   2.926   0.062  0.00  0.00     0.084 H 
ATOM     14  H6  <0> d          -3.687   5.238   0.065  0.00  0.00     0.083 H 
ATOM     15  H7  <0> d          -1.275   5.688   0.044  0.00  0.00     0.086 H 
ATOM     16  H8  <0> d           2.094   1.936  -0.007  0.00  0.00     0.113 H 
ENDROOT
BRANCH   1  17
ATOM     17  C1  <0> d          -3.100   0.636   0.037  0.00  0.00    -0.050 C 
ATOM     18  H2  <0> d          -4.200   0.648   0.054  0.00  0.00     0.033 H 
ATOM     19  H3  <0> d          -2.726   0.107   0.926  0.00  0.00     0.033 H 
ATOM     20  H4  <0> d          -2.753   0.119  -0.870  0.00  0.00     0.033 H 
ENDBRANCH   1  17
TORSDOF 1
