REMARK  2 active torsions:
REMARK  status: ('A' for Active; 'I' for Inactive)
REMARK    1  A    between atoms: C1_1  and  N1_2 
REMARK    2  A    between atoms: N1_2  and  C2_3 
ROOT
ATOM      1  C2  <0> d          -0.102   3.628   0.022  0.00  0.00     0.147 A 
ATOM      2  C3  <0> d           1.121   2.915   0.007  0.00  0.00     0.066 A 
ATOM      3  N2  <0> d           1.102   1.610   0.000  0.00  0.00    -0.179 NA
ATOM      4  N3  <0> d          -0.011   0.966   0.007  0.00  0.00    -0.227 N 
ATOM      5  H1  <0> d           0.003  -0.034   0.006  0.00  0.00     0.194 HD
ATOM      6  C4  <0> d          -1.193   1.608   0.017  0.00  0.00     0.364 A 
ATOM      7  O1  <0> d          -2.231   0.966   0.018  0.00  0.00    -0.243 OA
ATOM      8  N4  <0> d          -1.239   2.943   0.029  0.00  0.00    -0.174 NA
ATOM      9  H6  <0> d           2.061   3.446   0.001  0.00  0.00     0.123 H 
ENDROOT
BRANCH   1  10
ATOM     10  N1  <0> d          -0.112   5.003   0.029  0.00  0.00    -0.378 N 
ATOM     11  H5  <0> d           0.725   5.494   0.024  0.00  0.00     0.160 HD
BRANCH  10  12
ATOM     12  C1  <0> d          -1.385   5.727   0.045  0.00  0.00    -0.020 C 
ATOM     13  H2  <0> d          -1.194   6.800   0.049  0.00  0.00     0.056 H 
ATOM     14  H3  <0> d          -1.963   5.464  -0.842  0.00  0.00     0.056 H 
ATOM     15  H4  <0> d          -1.947   5.455   0.938  0.00  0.00     0.056 H 
ENDBRANCH  10  12
ENDBRANCH   1  10
TORSDOF 2
