REMARK  0 active torsions:
REMARK  status: ('A' for Active; 'I' for Inactive)
ROOT
ATOM      1  C1  <0> d          -0.017   1.383   0.010  0.00  0.00    -0.054 A 
ATOM      2  C2  <0> d           1.214   1.996   0.001  0.00  0.00    -0.053 A 
ATOM      3  C3  <0> d           2.333   1.229  -0.014  0.00  0.00     0.075 A 
ATOM      4  S1  <0> d           1.751  -0.347  -0.017  0.00  0.00    -0.067 SA
ATOM      5  C4  <0> d           0.002  -0.004   0.002  0.00  0.00     0.086 A 
ATOM      6  C5  <0> d          -1.097  -0.921   0.008  0.00  0.00     0.107 C 
ATOM      7  N1  <0> d          -1.970  -1.649   0.012  0.00  0.00    -0.191 NA
ATOM      8 Cl1  <0> d           3.987   1.756  -0.027  0.00  0.00    -0.076 Cl
ATOM      9  H1  <0> d          -0.939   1.944   0.026  0.00  0.00     0.086 H 
ATOM     10  H2  <0> d           1.288   3.074   0.006  0.00  0.00     0.086 H 
ENDROOT
TORSDOF 0
