REMARK  3 active torsions:
REMARK  status: ('A' for Active; 'I' for Inactive)
REMARK    1  A    between atoms: C1_1  and  C2_2 
REMARK    2  A    between atoms: C2_2  and  N1_3 
REMARK    3  A    between atoms: N1_3  and  C3_4 
REMARK       I    between atoms: N1_3  and  C4_5 
ROOT
ATOM      1  N1  <0> d           0.711  -0.489   1.189  0.00  0.00    -0.331 N 
ATOM      2  C4  <0> d           2.042  -0.696   1.142  0.00  0.00     0.285 C 
ATOM      3  O1  <0> d           2.658  -0.478   0.108  0.00  0.00    -0.630 OA
ATOM      4  O2  <0> d           2.633  -1.101   2.133  0.00  0.00    -0.630 OA
ENDROOT
BRANCH   1   5
ATOM      5  C2  <0> d           0.002  -0.004   0.002  0.00  0.00    -0.003 C 
ATOM      6  H4  <0> d          -1.020  -0.381   0.010  0.00  0.00     0.064 H 
ATOM      7  H5  <0> d           0.512  -0.356  -0.895  0.00  0.00     0.064 H 
BRANCH   5   8
ATOM      8  C1  <0> d          -0.019   1.526   0.010  0.00  0.00    -0.061 C 
ATOM      9  H1  <0> d           1.004   1.903   0.003  0.00  0.00     0.029 H 
ATOM     10  H2  <0> d          -0.546   1.887  -0.873  0.00  0.00     0.029 H 
ATOM     11  H3  <0> d          -0.529   1.877   0.907  0.00  0.00     0.029 H 
ENDBRANCH   5   8
ENDBRANCH   1   5
BRANCH   1  12
ATOM     12  C3  <0> d          -0.028  -0.750   2.427  0.00  0.00    -0.013 C 
ATOM     13  H6  <0> d          -0.372  -1.785   2.434  0.00  0.00     0.056 H 
ATOM     14  H7  <0> d           0.626  -0.579   3.283  0.00  0.00     0.056 H 
ATOM     15  H8  <0> d          -0.886  -0.082   2.486  0.00  0.00     0.056 H 
ENDBRANCH   1  12
TORSDOF 3
