REMARK  1 active torsions:
REMARK  status: ('A' for Active; 'I' for Inactive)
REMARK    1  A    between atoms: C3_3  and  N2_11 
ROOT
ATOM      1  C1  <0> d           1.575   4.155   0.009  0.00  0.00    -0.069 A 
ATOM      2  C2  <0> d           2.914   3.885  -0.004  0.00  0.00    -0.057 A 
ATOM      3  C3  <0> d           3.369   2.567  -0.015  0.00  0.00     0.027 A 
ATOM      4  C4  <0> d           2.471   1.514  -0.012  0.00  0.00    -0.031 A 
ATOM      5  C5  <0> d           1.105   1.772   0.001  0.00  0.00     0.044 A 
ATOM      6  C6  <0> d           0.654   3.105   0.012  0.00  0.00    -0.008 A 
ATOM      7  C7  <0> d          -0.810   3.038   0.025  0.00  0.00    -0.056 A 
ATOM      8  C8  <0> d          -1.143   1.738   0.016  0.00  0.00    -0.022 A 
ATOM      9  N1  <0> d          -0.011   0.966   0.007  0.00  0.00    -0.365 N 
ATOM     10  H1  <0> d           0.002  -0.004   0.002  0.00  0.00     0.165 HD
ATOM     11  H2  <0> d           1.230   5.178   0.016  0.00  0.00     0.085 H 
ATOM     12  H3  <0> d           3.625   4.698  -0.007  0.00  0.00     0.086 H 
ATOM     13  H4  <0> d           2.830   0.495  -0.020  0.00  0.00     0.090 H 
ATOM     14  H5  <0> d          -1.492   3.875   0.035  0.00  0.00     0.086 H 
ATOM     15  H6  <0> d          -2.153   1.357   0.019  0.00  0.00     0.111 H 
ENDROOT
BRANCH   3  16
ATOM     16  N2  <0> d           4.743   2.308  -0.029  0.00  0.00    -0.399 N 
ATOM     17  H7  <0> d           5.375   3.043  -0.031  0.00  0.00     0.156 HD
ATOM     18  H8  <0> d           5.063   1.393  -0.037  0.00  0.00     0.156 HD
ENDBRANCH   3  16
TORSDOF 1
