REMARK  5 active torsions:
REMARK  status: ('A' for Active; 'I' for Inactive)
REMARK    1  A    between atoms: C1_1  and  C2_2 
REMARK    2  A    between atoms: C2_2  and  C3_3 
REMARK    3  A    between atoms: C3_3  and  S1_4 
REMARK    4  A    between atoms: S1_4  and  C4_5 
REMARK    5  A    between atoms: N2_9  and  C7_10 
ROOT
ATOM      1  C4  <0> d          -3.112  -2.797   0.017  0.00  0.00     0.167 A 
ATOM      2  N1  <0> d          -4.126  -1.963   0.025  0.00  0.00    -0.235 NA
ATOM      3  C5  <0> d          -5.275  -2.661   0.034  0.00  0.00     0.020 A 
ATOM      4  C6  <0> d          -4.974  -3.971   0.031  0.00  0.00    -0.002 A 
ATOM      5  N2  <0> d          -3.601  -4.067   0.015  0.00  0.00    -0.339 N 
ATOM      6  H8  <0> d          -6.270  -2.241   0.042  0.00  0.00     0.117 H 
ATOM      7  H9  <0> d          -5.676  -4.791   0.037  0.00  0.00     0.113 H 
ENDROOT
BRANCH   1   8
ATOM      8  S1  <0> d          -1.409  -2.348   0.003  0.00  0.00    -0.092 SA
BRANCH   8   9
ATOM      9  C3  <0> d          -1.433  -0.534   0.013  0.00  0.00    -0.016 C 
ATOM     10  H6  <0> d          -1.944  -0.182   0.910  0.00  0.00     0.049 H 
ATOM     11  H7  <0> d          -1.960  -0.173  -0.870  0.00  0.00     0.049 H 
BRANCH   9  12
ATOM     12  C2  <0> d           0.002  -0.004   0.002  0.00  0.00    -0.060 C 
ATOM     13  H4  <0> d           0.512  -0.356  -0.895  0.00  0.00     0.033 H 
ATOM     14  H5  <0> d           0.529  -0.365   0.885  0.00  0.00     0.033 H 
BRANCH  12  15
ATOM     15  C1  <0> d          -0.019   1.526   0.010  0.00  0.00    -0.076 C 
ATOM     16  H1  <0> d           1.004   1.903   0.003  0.00  0.00     0.027 H 
ATOM     17  H2  <0> d          -0.546   1.887  -0.873  0.00  0.00     0.027 H 
ATOM     18  H3  <0> d          -0.529   1.877   0.907  0.00  0.00     0.027 H 
ENDBRANCH  12  15
ENDBRANCH   9  12
ENDBRANCH   8   9
ENDBRANCH   1   8
BRANCH   5  19
ATOM     19  C7  <0> d          -2.814  -5.303   0.001  0.00  0.00    -0.013 C 
ATOM     20  H10 <0> d          -2.610  -5.615   1.025  0.00  0.00     0.057 H 
ATOM     21  H11 <0> d          -3.375  -6.085  -0.512  0.00  0.00     0.057 H 
ATOM     22  H12 <0> d          -1.873  -5.129  -0.521  0.00  0.00     0.057 H 
ENDBRANCH   5  19
TORSDOF 5
