REMARK  0 active torsions:
REMARK  status: ('A' for Active; 'I' for Inactive)
ROOT
ATOM      1  C1  <0> d          -2.400   1.279   0.025  0.00  0.00    -0.065 A 
ATOM      2  C2  <0> d          -1.242   2.041   0.019  0.00  0.00    -0.073 A 
ATOM      3  C3  <0> d          -0.017   1.389   0.010  0.00  0.00    -0.026 A 
ATOM      4  C4  <0> d           0.002  -0.004   0.002  0.00  0.00     0.108 A 
ATOM      5  N1  <0> d          -1.132  -0.698   0.003  0.00  0.00    -0.257 NA
ATOM      6  C5  <0> d          -2.304  -0.105   0.013  0.00  0.00     0.003 A 
ATOM      7  C6  <0> d           1.297  -0.723  -0.005  0.00  0.00     0.178 C 
ATOM      8  O1  <0> d           1.353  -1.917   0.195  0.00  0.00    -0.291 OA
ATOM      9  C7  <0> d           2.549   0.087  -0.270  0.00  0.00    -0.003 C 
ATOM     10  C8  <0> d           2.429   1.392   0.529  0.00  0.00    -0.055 C 
ATOM     11  C9  <0> d           1.248   2.201   0.002  0.00  0.00    -0.038 C 
ATOM     12  H1  <0> d          -3.367   1.758   0.035  0.00  0.00     0.085 H 
ATOM     13  H2  <0> d          -1.293   3.119   0.028  0.00  0.00     0.084 H 
ATOM     14  H3  <0> d          -3.204  -0.701   0.013  0.00  0.00     0.114 H 
ATOM     15  H4  <0> d           3.351  -0.433   0.021  0.00  0.00     0.044 H 
ATOM     16  H5  <0> d           2.628   0.310  -1.335  0.00  0.00     0.044 H 
ATOM     17  H6  <0> d           2.271   1.159   1.582  0.00  0.00     0.034 H 
ATOM     18  H7  <0> d           3.346   1.971   0.419  0.00  0.00     0.034 H 
ATOM     19  H8  <0> d           1.460   2.521  -1.018  0.00  0.00     0.040 H 
ATOM     20  H9  <0> d           1.110   3.082   0.629  0.00  0.00     0.040 H 
ENDROOT
TORSDOF 0
