REMARK  1 active torsions:
REMARK  status: ('A' for Active; 'I' for Inactive)
REMARK    1  A    between atoms: C6_6  and  C7_7 
ROOT
ATOM      1  C1  <0> d          -0.017   1.378   0.010  0.00  0.00    -0.069 A 
ATOM      2  C2  <0> d           1.170   2.086   0.002  0.00  0.00    -0.045 A 
ATOM      3  C3  <0> d           2.379   1.410  -0.013  0.00  0.00     0.116 A 
ATOM      4  C4  <0> d           2.396   0.026  -0.021  0.00  0.00    -0.045 A 
ATOM      5  C5  <0> d           1.208  -0.680  -0.013  0.00  0.00    -0.069 A 
ATOM      6  C6  <0> d           0.002  -0.004   0.002  0.00  0.00     0.006 A 
ATOM      7  F3  <0> d           3.540   2.101  -0.021  0.00  0.00    -0.206 F 
ATOM      8  H1  <0> d          -0.959   1.905   0.026  0.00  0.00     0.084 H 
ATOM      9  H2  <0> d           1.155   3.166   0.008  0.00  0.00     0.088 H 
ATOM     10  H3  <0> d           3.338  -0.503  -0.033  0.00  0.00     0.088 H 
ATOM     11  H4  <0> d           1.221  -1.760  -0.019  0.00  0.00     0.084 H 
ENDROOT
BRANCH   6  12
ATOM     12  C7  <0> d          -1.293  -0.775   0.010  0.00  0.00     0.234 C 
ATOM     13  F1  <0> d          -1.103  -1.998   0.661  0.00  0.00    -0.209 F 
ATOM     14  F2  <0> d          -2.271  -0.035   0.683  0.00  0.00    -0.209 F 
ATOM     15  H5  <0> d          -1.615  -0.955  -1.015  0.00  0.00     0.153 H 
ENDBRANCH   6  12
TORSDOF 1
