REMARK  1 active torsions:
REMARK  status: ('A' for Active; 'I' for Inactive)
REMARK    1  A    between atoms: C6_6  and  C7_7 
ROOT
ATOM      1  C1  <0> d           0.059   3.814   0.022  0.00  0.00    -0.066 A 
ATOM      2  C2  <0> d           0.121   5.191   0.029  0.00  0.00    -0.075 A 
ATOM      3  C3  <0> d           1.351   5.837   0.021  0.00  0.00    -0.051 A 
ATOM      4  C4  <0> d           2.519   5.104   0.006  0.00  0.00    -0.051 A 
ATOM      5  C5  <0> d           2.470   3.720   0.004  0.00  0.00    -0.060 A 
ATOM      6  C6  <0> d           1.238   3.067   0.007  0.00  0.00     0.041 A 
ATOM      7  C8  <0> d           3.380   6.340   0.005  0.00  0.00    -0.037 A 
ATOM      8  C9  <0> d           2.090   7.150   0.022  0.00  0.00    -0.037 A 
ATOM      9  H1  <0> d          -0.898   3.315   0.028  0.00  0.00     0.085 H 
ATOM     10  H2  <0> d          -0.791   5.770   0.041  0.00  0.00     0.084 H 
ATOM     11  H3  <0> d           3.386   3.148  -0.003  0.00  0.00     0.086 H 
ATOM     12  H4  <0> d           4.023   6.340   0.898  0.00  0.00     0.040 H 
ATOM     13  H5  <0> d           4.006   6.350  -0.899  0.00  0.00     0.040 H 
ATOM     14  H6  <0> d           1.810   7.729  -0.870  0.00  0.00     0.040 H 
ATOM     15  H7  <0> d           1.827   7.718   0.926  0.00  0.00     0.040 H 
ENDROOT
BRANCH   6  16
ATOM     16  C7  <0> d           1.181   1.591  -0.001  0.00  0.00     0.209 C 
ATOM     17  O1  <0> d           2.208   0.943  -0.014  0.00  0.00    -0.644 OA
ATOM     18  O2  <0> d          -0.011   0.963   0.007  0.00  0.00    -0.644 OA
ENDBRANCH   6  16
TORSDOF 1
