REMARK  3 active torsions:
REMARK  status: ('A' for Active; 'I' for Inactive)
REMARK    1  A    between atoms: C1_1  and  C2_2 
REMARK    2  A    between atoms: C3_3  and  C5_10 
REMARK    3  A    between atoms: C4_7  and  N3_8 
ROOT
ATOM      1  C2  <0> d          -2.107   1.793   1.225  0.00  0.00     0.075 A 
ATOM      2  C3  <0> d          -0.718   1.572   1.248  0.00  0.00     0.076 A 
ATOM      3  N1  <0> d          -0.038   1.793   2.341  0.00  0.00    -0.163 NA
ATOM      4  N2  <0> d          -0.624   2.208   3.410  0.00  0.00    -0.106 N 
ATOM      5  H1  <0> d          -0.102   2.366   4.212  0.00  0.00     0.208 HD
ATOM      6  C4  <0> d          -1.978   2.430   3.428  0.00  0.00     0.736 A 
ATOM      7  N4  <0> d          -2.709   2.212   2.317  0.00  0.00    -0.065 NA
ENDROOT
BRANCH   1   8
ATOM      8  C1  <0> d          -2.897   1.546  -0.034  0.00  0.00    -0.033 C 
ATOM      9  H2  <0> d          -3.247   0.514  -0.047  0.00  0.00     0.035 H 
ATOM     10  H3  <0> d          -3.753   2.221  -0.064  0.00  0.00     0.035 H 
ATOM     11  H4  <0> d          -2.262   1.726  -0.902  0.00  0.00     0.035 H 
ENDBRANCH   1   8
BRANCH   2  12
ATOM     12  C5  <0> d          -0.013   1.086   0.008  0.00  0.00    -0.032 C 
ATOM     13  H6  <0> d           0.002  -0.004   0.002  0.00  0.00     0.035 H 
ATOM     14  H7  <0> d           1.010   1.463   0.000  0.00  0.00     0.035 H 
ATOM     15  H8  <0> d          -0.540   1.447  -0.875  0.00  0.00     0.035 H 
ENDBRANCH   2  12
BRANCH   6  16
ATOM     16  N3  <0> d          -2.562   2.854   4.527  0.00  0.00    -0.114 NA
ATOM     17  H5  <0> d          -2.035   3.010   5.326  0.00  0.00     0.206 HD
ENDBRANCH   6  16
TORSDOF 3
