REMARK  1 active torsions:
REMARK  status: ('A' for Active; 'I' for Inactive)
REMARK    1  A    between atoms: C8_10  and  O1_13 
ROOT
ATOM      1  C1  <0> d           0.845   4.028   2.175  0.00  0.00    -0.064 C 
ATOM      2  C2  <0> d           1.549   2.889   2.892  0.00  0.00    -0.062 C 
ATOM      3  C3  <0> d           2.640   2.280   2.004  0.00  0.00    -0.052 C 
ATOM      4  H1  <0> d           3.401   1.868   2.666  0.00  0.00     0.040 H 
ATOM      5  C4  <0> d           3.325   3.259   1.090  0.00  0.00    -0.061 C 
ATOM      6  C5  <0> d           2.413   3.846   0.043  0.00  0.00    -0.059 C 
ATOM      7  C6  <0> d           1.122   3.070  -0.109  0.00  0.00    -0.029 C 
ATOM      8  H2  <0> d           0.729   3.293  -1.101  0.00  0.00     0.043 H 
ATOM      9  C7  <0> d           0.104   3.572   0.918  0.00  0.00    -0.059 C 
ATOM     10  C8  <0> d           1.286   1.562  -0.002  0.00  0.00     0.039 C 
ATOM     11  H3  <0> d           1.823   1.210  -0.883  0.00  0.00     0.083 H 
ATOM     12  C9  <0> d           2.035   1.106   1.230  0.00  0.00    -0.037 C 
ATOM     13  H4  <0> d           0.129   4.484   2.859  0.00  0.00     0.033 H 
ATOM     14  H5  <0> d           1.585   4.777   1.894  0.00  0.00     0.033 H 
ATOM     15  H6  <0> d           0.821   2.119   3.144  0.00  0.00     0.033 H 
ATOM     16  H7  <0> d           2.003   3.268   3.808  0.00  0.00     0.033 H 
ATOM     17  H8  <0> d           3.740   4.068   1.690  0.00  0.00     0.033 H 
ATOM     18  H9  <0> d           4.141   2.749   0.578  0.00  0.00     0.033 H 
ATOM     19  H10 <0> d           2.932   3.858  -0.916  0.00  0.00     0.033 H 
ATOM     20  H11 <0> d           2.176   4.872   0.324  0.00  0.00     0.033 H 
ATOM     21  H12 <0> d          -0.584   2.767   1.173  0.00  0.00     0.033 H 
ATOM     22  H13 <0> d          -0.453   4.411   0.500  0.00  0.00     0.033 H 
ATOM     23  H14 <0> d           1.348   0.568   1.883  0.00  0.00     0.037 H 
ATOM     24  H15 <0> d           2.836   0.431   0.928  0.00  0.00     0.037 H 
ENDROOT
BRANCH  10  25
ATOM     25  O1  <0> d          -0.011   0.963   0.007  0.00  0.00    -0.395 OA
ATOM     26  H16 <0> d           0.002  -0.004   0.002  0.00  0.00     0.210 HD
ENDBRANCH  10  25
TORSDOF 1
