REMARK  0 active torsions:
REMARK  status: ('A' for Active; 'I' for Inactive)
ROOT
ATOM      1  C1  <0> d           2.381   0.080  -0.020  0.00  0.00    -0.040 A 
ATOM      2  C2  <0> d           2.259   1.461  -0.012  0.00  0.00     0.025 A 
ATOM      3  N1  <0> d           1.061   2.014   0.003  0.00  0.00    -0.161 NA
ATOM      4  N2  <0> d          -0.016   1.316   0.009  0.00  0.00    -0.137 NA
ATOM      5  C3  <0> d           0.002  -0.004   0.002  0.00  0.00     0.170 A 
ATOM      6  C4  <0> d           1.217  -0.678  -0.013  0.00  0.00     0.077 A 
ATOM      7 Cl1  <0> d           1.278  -2.413  -0.024  0.00  0.00    -0.081 Cl
ATOM      8 Cl2  <0> d          -1.488  -0.895   0.011  0.00  0.00    -0.059 Cl
ATOM      9  H1  <0> d           3.353  -0.392  -0.032  0.00  0.00     0.088 H 
ATOM     10  H2  <0> d           3.142   2.082  -0.017  0.00  0.00     0.117 H 
ENDROOT
TORSDOF 0
