REMARK  2 active torsions:
REMARK  status: ('A' for Active; 'I' for Inactive)
REMARK    1  A    between atoms: C1_1  and  C2_2 
REMARK    2  A    between atoms: C7_7  and  C8_8 
ROOT
ATOM      1  C2  <0> d           1.158   3.183   0.008  0.00  0.00    -0.048 A 
ATOM      2  C3  <0> d          -0.052   3.848   0.022  0.00  0.00    -0.076 A 
ATOM      3  C4  <0> d          -1.236   3.134   0.029  0.00  0.00    -0.082 A 
ATOM      4  C5  <0> d          -1.216   1.751   0.017  0.00  0.00    -0.082 A 
ATOM      5  C6  <0> d          -0.013   1.076   0.008  0.00  0.00    -0.069 A 
ATOM      6  C7  <0> d           1.184   1.790   0.000  0.00  0.00     0.021 A 
ATOM      7  H4  <0> d          -0.073   4.928   0.028  0.00  0.00     0.084 H 
ATOM      8  H5  <0> d          -2.180   3.658   0.041  0.00  0.00     0.083 H 
ATOM      9  H6  <0> d          -2.144   1.198   0.019  0.00  0.00     0.083 H 
ATOM     10  H7  <0> d           0.002  -0.004   0.002  0.00  0.00     0.085 H 
ENDROOT
BRANCH   6  11
ATOM     11  C8  <0> d           2.482   1.069  -0.015  0.00  0.00     0.207 A 
ATOM     12  N3  <0> d           3.703   1.621  -0.023  0.00  0.00    -0.106 NA
ATOM     13  N2  <0> d           4.559   0.655  -0.036  0.00  0.00    -0.021 NA
ATOM     14  N4  <0> d           3.924  -0.464  -0.036  0.00  0.00    -0.021 NA
ATOM     15  N1  <0> d           2.656  -0.237  -0.017  0.00  0.00    -0.106 NA
ENDBRANCH   6  11
BRANCH   1  16
ATOM     16  C1  <0> d           2.447   3.962  -0.000  0.00  0.00    -0.050 C 
ATOM     17  H1  <0> d           2.749   4.155  -1.030  0.00  0.00     0.033 H 
ATOM     18  H2  <0> d           2.303   4.909   0.520  0.00  0.00     0.033 H 
ATOM     19  H3  <0> d           3.223   3.385   0.504  0.00  0.00     0.033 H 
ENDBRANCH   1  16
TORSDOF 2
