REMARK  2 active torsions:
REMARK  status: ('A' for Active; 'I' for Inactive)
REMARK    1  A    between atoms: C1_1  and  C2_2 
REMARK    2  A    between atoms: N1_10  and  C7_11 
ROOT
ATOM      1  C2  <0> d           2.098   1.770   1.245  0.00  0.00     0.017 C 
ATOM      2  H1  <0> d           1.632   2.196   2.146  0.00  0.00     0.072 H 
ATOM      3  C3  <0> d           1.325   2.213   0.001  0.00  0.00     0.009 C 
ATOM      4  C4  <0> d          -0.018   1.510   0.010  0.00  0.00     0.137 C 
ATOM      5  O1  <0> d          -1.056   2.128   0.019  0.00  0.00    -0.297 OA
ATOM      6  C5  <0> d           0.002  -0.004   0.002  0.00  0.00     0.064 C 
ATOM      7  C6  <0> d           1.095  -0.474   0.923  0.00  0.00     0.226 C 
ATOM      8  O2  <0> d           1.120  -1.647   1.232  0.00  0.00    -0.273 OA
ATOM      9  N1  <0> d           2.036   0.327   1.416  0.00  0.00    -0.351 N 
ATOM     10  H5  <0> d           1.183   3.303   0.027  0.00  0.00     0.047 H 
ATOM     11  H6  <0> d           1.892   1.937  -0.900  0.00  0.00     0.047 H 
ATOM     12  H7  <0> d          -0.970  -0.386   0.349  0.00  0.00     0.058 H 
ATOM     13  H8  <0> d           0.193  -0.363  -1.020  0.00  0.00     0.058 H 
ENDROOT
BRANCH   1  14
ATOM     14  C1  <0> d           3.561   2.196   1.103  0.00  0.00    -0.057 C 
ATOM     15  H2  <0> d           3.614   3.287   0.973  0.00  0.00     0.030 H 
ATOM     16  H3  <0> d           4.003   1.701   0.226  0.00  0.00     0.030 H 
ATOM     17  H4  <0> d           4.116   1.907   2.007  0.00  0.00     0.030 H 
ENDBRANCH   1  14
BRANCH   9  18
ATOM     18  C7  <0> d           3.103  -0.299   2.200  0.00  0.00    -0.016 C 
ATOM     19  H9  <0> d           2.934  -1.385   2.249  0.00  0.00     0.056 H 
ATOM     20  H10 <0> d           3.104   0.118   3.218  0.00  0.00     0.056 H 
ATOM     21  H11 <0> d           4.074  -0.101   1.722  0.00  0.00     0.056 H 
ENDBRANCH   9  18
TORSDOF 2
