REMARK  0 active torsions:
REMARK  status: ('A' for Active; 'I' for Inactive)
ROOT
ATOM      1  C1  <0> d          -0.686   1.635   1.283  0.00  0.00    -0.006 C 
ATOM      2  C2  <0> d          -0.013   1.086   0.008  0.00  0.00    -0.037 C 
ATOM      3  C3  <0> d          -0.720   1.646  -1.236  0.00  0.00    -0.006 C 
ATOM      4  C4  <0> d           0.377   2.133  -2.161  0.00  0.00     0.127 C 
ATOM      5  O1  <0> d           0.352   2.171  -3.368  0.00  0.00    -0.298 OA
ATOM      6  C5  <0> d           1.512   2.562  -1.252  0.00  0.00    -0.006 C 
ATOM      7  C6  <0> d           1.417   1.673  -0.003  0.00  0.00    -0.037 C 
ATOM      8  C7  <0> d           1.526   2.543   1.267  0.00  0.00    -0.006 C 
ATOM      9  C8  <0> d           0.476   1.969   2.212  0.00  0.00     0.127 C 
ATOM     10  O2  <0> d           0.548   1.817   3.408  0.00  0.00    -0.298 OA
ATOM     11  H1  <0> d          -1.220   2.461   1.107  0.00  0.00     0.044 H 
ATOM     12  H2  <0> d          -1.326   0.876   1.732  0.00  0.00     0.044 H 
ATOM     13  H3  <0> d           0.002  -0.004   0.002  0.00  0.00     0.041 H 
ATOM     14  H4  <0> d          -1.265   0.924  -1.663  0.00  0.00     0.044 H 
ATOM     15  H5  <0> d          -1.371   2.475  -0.956  0.00  0.00     0.044 H 
ATOM     16  H6  <0> d           1.406   3.530  -1.022  0.00  0.00     0.044 H 
ATOM     17  H7  <0> d           2.470   2.410  -1.749  0.00  0.00     0.044 H 
ATOM     18  H8  <0> d           2.172   0.887  -0.014  0.00  0.00     0.041 H 
ATOM     19  H9  <0> d           2.452   2.475   1.639  0.00  0.00     0.044 H 
ATOM     20  H10 <0> d           1.304   3.584   1.035  0.00  0.00     0.044 H 
ENDROOT
TORSDOF 0
