REMARK  1 active torsions:
REMARK  status: ('A' for Active; 'I' for Inactive)
REMARK    1  A    between atoms: C3_3  and  N4_13 
ROOT
ATOM      1  C1  <0> d           1.315   4.550   0.013  0.00  0.00    -0.050 A 
ATOM      2  C2  <0> d           0.560   5.710   0.025  0.00  0.00    -0.037 A 
ATOM      3  C3  <0> d          -0.828   5.619   0.038  0.00  0.00     0.123 A 
ATOM      4  N1  <0> d          -1.434   4.442   0.038  0.00  0.00    -0.212 NA
ATOM      5  C4  <0> d          -0.747   3.309   0.026  0.00  0.00     0.160 A 
ATOM      6  C5  <0> d           0.649   3.331   0.013  0.00  0.00     0.083 A 
ATOM      7  N2  <0> d           1.076   2.003   0.003  0.00  0.00    -0.305 N 
ATOM      8  H1  <0> d           2.151   1.771  -0.009  0.00  0.00     0.171 HD
ATOM      9  C6  <0> d          -0.014   1.213   0.009  0.00  0.00     0.326 A 
ATOM     10  O1  <0> d           0.002  -0.004   0.002  0.00  0.00    -0.247 OA
ATOM     11  N3  <0> d          -1.125   1.973   0.018  0.00  0.00    -0.291 N 
ATOM     12  H2  <0> d          -2.191   1.703   0.019  0.00  0.00     0.172 HD
ATOM     13  H3  <0> d           2.394   4.591   0.004  0.00  0.00     0.087 H 
ATOM     14  H4  <0> d           1.043   6.676   0.026  0.00  0.00     0.089 H 
ENDROOT
BRANCH   3  15
ATOM     15  N4  <0> d          -1.591   6.782   0.051  0.00  0.00    -0.384 N 
ATOM     16  H5  <0> d          -2.690   6.720   0.061  0.00  0.00     0.157 HD
ATOM     17  H6  <0> d          -1.097   7.765   0.051  0.00  0.00     0.157 HD
ENDBRANCH   3  15
TORSDOF 1
