REMARK  4 active torsions:
REMARK  status: ('A' for Active; 'I' for Inactive)
REMARK    1  A    between atoms: C2_3  and  N4_9 
REMARK    2  A    between atoms: N3_5  and  C3_6 
REMARK    3  A    between atoms: C3_6  and  C4_7 
REMARK    4  A    between atoms: C4_7  and  O1_8 
ROOT
ATOM      1  C1  <0> d          -1.155   0.804   2.227  0.00  0.00     0.102 A 
ATOM      2  N1  <0> d          -1.705   1.596   3.111  0.00  0.00    -0.055 NA
ATOM      3  C2  <0> d          -1.618   2.864   2.698  0.00  0.00     0.738 A 
ATOM      4  N2  <0> d          -1.002   2.890   1.540  0.00  0.00     0.022 NA
ATOM      5  N3  <0> d          -0.698   1.558   1.213  0.00  0.00    -0.245 N 
ATOM      6  H1  <0> d          -1.082  -0.272   2.298  0.00  0.00     0.147 H 
ENDROOT
BRANCH   5   7
ATOM      7  C3  <0> d          -0.013   1.086   0.008  0.00  0.00     0.038 C 
ATOM      8  H2  <0> d           0.002  -0.004   0.002  0.00  0.00     0.070 H 
ATOM      9  H3  <0> d           1.010   1.463   0.000  0.00  0.00     0.070 H 
BRANCH   7  10
ATOM     10  C4  <0> d          -0.753   1.593  -1.232  0.00  0.00     0.033 C 
ATOM     11  H4  <0> d          -1.775   1.215  -1.224  0.00  0.00     0.076 H 
ATOM     12  H5  <0> d          -0.767   2.683  -1.226  0.00  0.00     0.076 H 
BRANCH  10  13
ATOM     13  O1  <0> d          -0.084   1.132  -2.407  0.00  0.00    -0.399 OA
ATOM     14  H6  <0> d          -0.499   1.416  -3.233  0.00  0.00     0.209 HD
ENDBRANCH  10  13
ENDBRANCH   7  10
ENDBRANCH   5   7
BRANCH   3  15
ATOM     15  N4  <0> d          -2.099   3.978   3.388  0.00  0.00    -0.230 N 
ATOM     16  H7  <0> d          -2.539   3.866   4.245  0.00  0.00     0.174 HD
ATOM     17  H8  <0> d          -1.992   4.866   3.011  0.00  0.00     0.174 HD
ENDBRANCH   3  15
TORSDOF 4
