REMARK  1 active torsions:
REMARK  status: ('A' for Active; 'I' for Inactive)
REMARK    1  A    between atoms: C9_13  and  O1_16 
ROOT
ATOM      1  C1  <0> d           1.146   4.254   3.321  0.00  0.00    -0.046 A 
ATOM      2  C2  <0> d           0.449   5.315   2.512  0.00  0.00    -0.106 A 
ATOM      3  C3  <0> d          -0.066   4.844   1.386  0.00  0.00    -0.102 A 
ATOM      4  C4  <0> d           0.176   3.363   1.268  0.00  0.00    -0.028 A 
ATOM      5  H1  <0> d          -0.750   2.802   1.152  0.00  0.00     0.047 H 
ATOM      6  C5  <0> d           0.970   2.934   2.554  0.00  0.00    -0.041 A 
ATOM      7  H2  <0> d           0.480   2.154   3.138  0.00  0.00     0.042 H 
ATOM      8  C6  <0> d           2.359   2.495   2.002  0.00  0.00    -0.047 C 
ATOM      9  H3  <0> d           3.175   2.479   2.724  0.00  0.00     0.040 H 
ATOM     10  C7  <0> d           2.533   3.468   0.782  0.00  0.00    -0.055 C 
ATOM     11  C8  <0> d           1.169   3.114   0.091  0.00  0.00    -0.022 C 
ATOM     12  H4  <0> d           0.955   3.631  -0.844  0.00  0.00     0.044 H 
ATOM     13  C9  <0> d           1.286   1.562  -0.002  0.00  0.00     0.040 C 
ATOM     14  H5  <0> d           1.831   1.274  -0.901  0.00  0.00     0.083 H 
ATOM     15  C10 <0> d           2.078   1.152   1.261  0.00  0.00    -0.037 C 
ATOM     16  H6  <0> d           0.691   4.177   4.308  0.00  0.00     0.039 H 
ATOM     17  H7  <0> d           2.206   4.492   3.416  0.00  0.00     0.039 H 
ATOM     18  H8  <0> d           0.394   6.355   2.798  0.00  0.00     0.076 H 
ATOM     19  H9  <0> d          -0.605   5.427   0.654  0.00  0.00     0.077 H 
ATOM     20  H10 <0> d           2.574   4.511   1.095  0.00  0.00     0.034 H 
ATOM     21  H11 <0> d           3.388   3.198   0.162  0.00  0.00     0.034 H 
ATOM     22  H12 <0> d           1.479   0.491   1.887  0.00  0.00     0.037 H 
ATOM     23  H13 <0> d           3.013   0.666   0.983  0.00  0.00     0.037 H 
ENDROOT
BRANCH  13  24
ATOM     24  O1  <0> d          -0.011   0.963   0.007  0.00  0.00    -0.395 OA
ATOM     25  H14 <0> d           0.002  -0.004   0.002  0.00  0.00     0.210 HD
ENDBRANCH  13  24
TORSDOF 1
