REMARK  5 active torsions:
REMARK  status: ('A' for Active; 'I' for Inactive)
REMARK    1  A    between atoms: C1_1  and  O1_2 
REMARK    2  A    between atoms: O1_2  and  C2_3 
REMARK    3  A    between atoms: C7_8  and  C8_9 
REMARK    4  A    between atoms: C8_9  and  C9_10 
REMARK    5  A    between atoms: C9_10  and  O2_11 
ROOT
ATOM      1  C2  <0> d          -0.787   2.892   1.346  0.00  0.00     0.074 A 
ATOM      2  C3  <0> d          -0.253   3.751   0.396  0.00  0.00    -0.050 A 
ATOM      3  C4  <0> d          -0.367   5.117   0.561  0.00  0.00    -0.080 A 
ATOM      4  C5  <0> d          -1.003   5.630   1.677  0.00  0.00    -0.082 A 
ATOM      5  C6  <0> d          -1.531   4.776   2.627  0.00  0.00    -0.074 A 
ATOM      6  C7  <0> d          -1.425   3.409   2.465  0.00  0.00    -0.023 A 
ATOM      7  H4  <0> d           0.247   3.351  -0.473  0.00  0.00     0.087 H 
ATOM      8  H5  <0> d           0.045   5.786  -0.180  0.00  0.00     0.083 H 
ATOM      9  H6  <0> d          -1.087   6.699   1.806  0.00  0.00     0.083 H 
ATOM     10  H7  <0> d          -2.026   5.179   3.498  0.00  0.00     0.084 H 
ENDROOT
BRANCH   6  11
ATOM     11  C8  <0> d          -2.000   2.479   3.502  0.00  0.00    -0.019 C 
ATOM     12  H8  <0> d          -2.805   2.983   4.035  0.00  0.00     0.043 H 
ATOM     13  H9  <0> d          -2.391   1.586   3.013  0.00  0.00     0.043 H 
BRANCH  11  14
ATOM     14  C9  <0> d          -0.904   2.079   4.492  0.00  0.00     0.021 C 
ATOM     15  H10 <0> d          -0.099   1.574   3.958  0.00  0.00     0.074 H 
ATOM     16  H11 <0> d          -0.513   2.971   4.981  0.00  0.00     0.074 H 
BRANCH  14  17
ATOM     17  O2  <0> d          -1.450   1.197   5.475  0.00  0.00    -0.401 OA
ATOM     18  H12 <0> d          -0.810   0.902   6.138  0.00  0.00     0.209 HD
ENDBRANCH  14  17
ENDBRANCH  11  14
ENDBRANCH   6  11
BRANCH   1  19
ATOM     19  O1  <0> d          -0.682   1.547   1.184  0.00  0.00    -0.355 OA
BRANCH  19  20
ATOM     20  C1  <0> d          -0.013   1.086   0.008  0.00  0.00     0.010 C 
ATOM     21  H1  <0> d           0.002  -0.004   0.002  0.00  0.00     0.066 H 
ATOM     22  H2  <0> d           1.010   1.463   0.000  0.00  0.00     0.066 H 
ATOM     23  H3  <0> d          -0.540   1.447  -0.875  0.00  0.00     0.066 H 
ENDBRANCH  19  20
ENDBRANCH   1  19
TORSDOF 5
