REMARK  7 active torsions:
REMARK  status: ('A' for Active; 'I' for Inactive)
REMARK    1  A    between atoms: C1_1  and  C2_2 
REMARK    2  A    between atoms: C2_2  and  C3_3 
REMARK    3  A    between atoms: C3_3  and  O1_4 
REMARK    4  A    between atoms: O1_4  and  C4_5 
REMARK    5  A    between atoms: C4_5  and  C5_6 
REMARK    6  A    between atoms: C5_6  and  C6_7 
REMARK    7  A    between atoms: C6_7  and  O2_8 
ROOT
ATOM      1  O1  <0> d           0.761  -1.940   1.234  0.00  0.00    -0.391 OA
ENDROOT
BRANCH   1   2
ATOM      2  C3  <0> d           0.742  -0.511   1.242  0.00  0.00     0.019 C 
ATOM      3  H6  <0> d           1.765  -0.134   1.234  0.00  0.00     0.074 H 
ATOM      4  H7  <0> d           0.232  -0.159   2.138  0.00  0.00     0.074 H 
BRANCH   2   5
ATOM      5  C2  <0> d           0.002  -0.004   0.002  0.00  0.00    -0.049 C 
ATOM      6  H4  <0> d          -1.020  -0.381   0.010  0.00  0.00     0.035 H 
ATOM      7  H5  <0> d           0.512  -0.356  -0.895  0.00  0.00     0.035 H 
BRANCH   5   8
ATOM      8  C1  <0> d          -0.019   1.526   0.010  0.00  0.00    -0.075 C 
ATOM      9  H1  <0> d           1.004   1.903   0.003  0.00  0.00     0.027 H 
ATOM     10  H2  <0> d          -0.546   1.887  -0.873  0.00  0.00     0.027 H 
ATOM     11  H3  <0> d          -0.529   1.877   0.907  0.00  0.00     0.027 H 
ENDBRANCH   5   8
ENDBRANCH   2   5
ENDBRANCH   1   2
BRANCH   1  12
ATOM     12  C4  <0> d           1.433  -2.518   2.355  0.00  0.00     0.021 C 
ATOM     13  H8  <0> d           2.470  -2.183   2.370  0.00  0.00     0.074 H 
ATOM     14  H9  <0> d           0.937  -2.208   3.275  0.00  0.00     0.074 H 
BRANCH  12  15
ATOM     15  C5  <0> d           1.392  -4.043   2.242  0.00  0.00    -0.026 C 
ATOM     16  H10 <0> d           0.355  -4.379   2.227  0.00  0.00     0.039 H 
ATOM     17  H11 <0> d           1.888  -4.353   1.323  0.00  0.00     0.039 H 
BRANCH  15  18
ATOM     18  C6  <0> d           2.111  -4.663   3.443  0.00  0.00     0.019 C 
ATOM     19  H12 <0> d           3.148  -4.327   3.458  0.00  0.00     0.074 H 
ATOM     20  H13 <0> d           1.615  -4.353   4.363  0.00  0.00     0.074 H 
BRANCH  18  21
ATOM     21  O2  <0> d           2.073  -6.087   3.338  0.00  0.00    -0.401 OA
ATOM     22  H14 <0> d           2.511  -6.547   4.067  0.00  0.00     0.209 HD
ENDBRANCH  18  21
ENDBRANCH  15  18
ENDBRANCH  12  15
ENDBRANCH   1  12
TORSDOF 7
