REMARK  6 active torsions:
REMARK  status: ('A' for Active; 'I' for Inactive)
REMARK    1  A    between atoms: C1_1  and  C2_2 
REMARK    2  A    between atoms: C2_2  and  C3_4 
REMARK    3  A    between atoms: C2_2  and  N1_7 
REMARK       I    between atoms: N1_7  and  C4_8 
REMARK    4  A    between atoms: C4_8  and  C5_10 
REMARK    5  A    between atoms: C5_10  and  C6_11 
REMARK    6  A    between atoms: C5_10  and  C7_12 
ROOT
ATOM      1  N1  <0> d           0.688  -0.476  -1.203  0.00  0.00    -0.347 N 
ATOM      2  C4  <0> d           0.006  -0.608  -2.358  0.00  0.00     0.221 C 
ATOM      3  O3  <0> d          -1.175  -0.336  -2.400  0.00  0.00    -0.273 OA
ATOM      4  H5  <0> d           1.632  -0.695  -1.170  0.00  0.00     0.163 HD
ENDROOT
BRANCH   2   5
ATOM      5  C5  <0> d           0.712  -1.094  -3.598  0.00  0.00     0.017 C 
ATOM      6  H6  <0> d           1.522  -0.409  -3.847  0.00  0.00     0.053 H 
BRANCH   5   7
ATOM      7  C6  <0> d           1.284  -2.490  -3.346  0.00  0.00    -0.065 C 
ATOM      8  H7  <0> d           0.473  -3.175  -3.096  0.00  0.00     0.028 H 
ATOM      9  H8  <0> d           1.794  -2.842  -4.242  0.00  0.00     0.028 H 
ATOM     10  H9  <0> d           1.991  -2.449  -2.518  0.00  0.00     0.028 H 
ENDBRANCH   5   7
BRANCH   5  11
ATOM     11  C7  <0> d          -0.282  -1.153  -4.761  0.00  0.00    -0.065 C 
ATOM     12  H10 <0> d          -0.689  -0.158  -4.941  0.00  0.00     0.028 H 
ATOM     13  H11 <0> d           0.228  -1.504  -5.657  0.00  0.00     0.028 H 
ATOM     14  H12 <0> d          -1.092  -1.838  -4.511  0.00  0.00     0.028 H 
ENDBRANCH   5  11
ENDBRANCH   2   5
BRANCH   1  15
ATOM     15  C2  <0> d           0.002  -0.004   0.002  0.00  0.00     0.092 C 
ATOM     16  H1  <0> d          -1.020  -0.381   0.010  0.00  0.00     0.089 H 
BRANCH  15  17
ATOM     17  C1  <0> d          -0.019   1.526   0.010  0.00  0.00    -0.048 C 
ATOM     18  H2  <0> d           1.004   1.903   0.003  0.00  0.00     0.030 H 
ATOM     19  H3  <0> d          -0.546   1.887  -0.873  0.00  0.00     0.030 H 
ATOM     20  H4  <0> d          -0.529   1.877   0.907  0.00  0.00     0.030 H 
ENDBRANCH  15  17
BRANCH  15  21
ATOM     21  C3  <0> d           0.731  -0.503   1.223  0.00  0.00     0.196 C 
ATOM     22  O1  <0> d           0.117  -0.721   2.253  0.00  0.00    -0.646 OA
ATOM     23  O2  <0> d           1.935  -0.690   1.180  0.00  0.00    -0.646 OA
ENDBRANCH  15  21
ENDBRANCH   1  15
TORSDOF 6
