REMARK  1 active torsions:
REMARK  status: ('A' for Active; 'I' for Inactive)
REMARK    1  A    between atoms: C1_1  and  C2_2 
ROOT
ATOM      1  C2  <0> d          -0.016   1.349   0.009  0.00  0.00     0.027 A 
ATOM      2  C3  <0> d           0.002  -0.004   0.002  0.00  0.00    -0.019 A 
ATOM      3  C4  <0> d           1.340  -0.416  -0.013  0.00  0.00     0.147 A 
ATOM      4  N1  <0> d           2.096   0.652  -0.015  0.00  0.00    -0.163 NA
ATOM      5  N2  <0> d           1.263   1.778  -0.001  0.00  0.00    -0.281 N 
ATOM      6  H1  <0> d           1.563   2.732   0.002  0.00  0.00     0.189 HD
ATOM      7 Cl1  <0> d           1.899  -2.060  -0.027  0.00  0.00    -0.061 Cl
ATOM      8  H5  <0> d          -0.862  -0.651   0.007  0.00  0.00     0.091 H 
ENDROOT
BRANCH   1   9
ATOM      9  C1  <0> d          -1.246   2.220   0.020  0.00  0.00    -0.036 C 
ATOM     10  H2  <0> d          -1.537   2.425   1.050  0.00  0.00     0.035 H 
ATOM     11  H3  <0> d          -1.030   3.159  -0.490  0.00  0.00     0.035 H 
ATOM     12  H4  <0> d          -2.059   1.708  -0.492  0.00  0.00     0.035 H 
ENDBRANCH   1   9
TORSDOF 1
