REMARK  2 active torsions:
REMARK  status: ('A' for Active; 'I' for Inactive)
REMARK    1  A    between atoms: C1_1  and  C2_2 
REMARK    2  A    between atoms: C2_2  and  C3_4 
ROOT
ATOM      1  C3  <0> d          -0.017   1.388   0.010  0.00  0.00     0.051 A 
ATOM      2  C4  <0> d           0.002  -0.004   0.002  0.00  0.00    -0.061 A 
ATOM      3  C5  <0> d           1.208  -0.642  -0.013  0.00  0.00    -0.055 A 
ATOM      4  C6  <0> d           2.368   0.123  -0.020  0.00  0.00     0.086 A 
ATOM      5  S1  <0> d           1.723   1.787  -0.005  0.00  0.00    -0.076 SA
ATOM      6  C7  <0> d           3.732  -0.313  -0.035  0.00  0.00     0.107 C 
ATOM      7  N1  <0> d           4.814  -0.659  -0.046  0.00  0.00    -0.191 NA
ATOM      8  H4  <0> d          -0.919  -0.568   0.008  0.00  0.00     0.085 H 
ATOM      9  H5  <0> d           1.259  -1.720  -0.019  0.00  0.00     0.086 H 
ENDROOT
BRANCH   1  10
ATOM     10  C2  <0> d          -1.131   2.263   0.020  0.00  0.00     0.162 C 
ATOM     11  O1  <0> d          -2.258   1.811   0.023  0.00  0.00    -0.292 OA
BRANCH  10  12
ATOM     12  C1  <0> d          -0.918   3.755   0.027  0.00  0.00    -0.016 C 
ATOM     13  H1  <0> d           0.063   3.951   0.023  0.00  0.00     0.038 H 
ATOM     14  H2  <0> d          -1.379   4.192  -0.858  0.00  0.00     0.038 H 
ATOM     15  H3  <0> d          -1.371   4.182   0.922  0.00  0.00     0.038 H 
ENDBRANCH  10  12
ENDBRANCH   1  10
TORSDOF 2
