REMARK  2 active torsions:
REMARK  status: ('A' for Active; 'I' for Inactive)
REMARK    1  A    between atoms: C4_5  and  C5_6 
REMARK    2  A    between atoms: C4_5  and  O2_10 
ROOT
ATOM      1  C1  <0> d          -0.019   1.541   0.011  0.00  0.00    -0.006 C 
ATOM      2  C2  <0> d           1.474   1.937  -0.002  0.00  0.00     0.023 C 
ATOM      3  O1  <0> d           2.163   0.795   0.553  0.00  0.00    -0.388 OA
ATOM      4  C3  <0> d           1.506  -0.359  -0.014  0.00  0.00     0.056 C 
ATOM      5  C4  <0> d           0.002  -0.004   0.002  0.00  0.00     0.178 C 
ATOM      6  H1  <0> d          -0.505   1.911   0.913  0.00  0.00     0.041 H 
ATOM      7  H2  <0> d          -0.522   1.921  -0.879  0.00  0.00     0.041 H 
ATOM      8  H3  <0> d           1.809   2.123  -1.022  0.00  0.00     0.074 H 
ATOM      9  H4  <0> d           1.639   2.817   0.619  0.00  0.00     0.074 H 
ATOM     10  H5  <0> d           1.845  -0.525  -1.037  0.00  0.00     0.079 H 
ATOM     11  H6  <0> d           1.694  -1.242   0.597  0.00  0.00     0.079 H 
ENDROOT
BRANCH   5  12
ATOM     12  C5  <0> d          -0.690  -0.543  -1.252  0.00  0.00     0.420 C 
ATOM     13  F1  <0> d          -0.024  -0.073  -2.390  0.00  0.00    -0.168 F 
ATOM     14  F2  <0> d          -0.658  -1.941  -1.238  0.00  0.00    -0.168 F 
ATOM     15  F3  <0> d          -2.018  -0.106  -1.276  0.00  0.00    -0.168 F 
ENDBRANCH   5  12
BRANCH   5  16
ATOM     16  O2  <0> d          -0.621  -0.520   1.180  0.00  0.00    -0.379 OA
ATOM     17  H7  <0> d          -0.636  -1.486   1.226  0.00  0.00     0.211 HD
ENDBRANCH   5  16
TORSDOF 2
