REMARK  3 active torsions:
REMARK  status: ('A' for Active; 'I' for Inactive)
REMARK    1  A    between atoms: C1_1  and  C2_2 
REMARK    2  A    between atoms: C2_2  and  C3_3 
REMARK    3  A    between atoms: C2_2  and  C5_6 
ROOT
ATOM      1  C2  <0> d          -0.018   1.468   0.010  0.00  0.00     0.086 C 
ATOM      2  C4  <0> d           0.002  -0.004   0.002  0.00  0.00     0.075 C 
ATOM      3  N1  <0> d           0.018  -1.140  -0.004  0.00  0.00    -0.196 NA
ENDROOT
BRANCH   1   4
ATOM      4  C1  <0> d           1.417   1.997  -0.001  0.00  0.00    -0.052 C 
ATOM      5  H1  <0> d           1.950   1.633   0.890  0.00  0.00     0.030 H 
ATOM      6  H2  <0> d           1.403   3.097   0.005  0.00  0.00     0.030 H 
ATOM      7  H3  <0> d           1.932   1.643  -0.906  0.00  0.00     0.030 H 
ENDBRANCH   1   4
BRANCH   1   8
ATOM      8  C3  <0> d          -0.758   1.975  -1.229  0.00  0.00    -0.052 C 
ATOM      9  H4  <0> d          -1.790   1.594  -1.222  0.00  0.00     0.030 H 
ATOM     10  H5  <0> d          -0.243   1.620  -2.134  0.00  0.00     0.030 H 
ATOM     11  H6  <0> d          -0.773   3.075  -1.223  0.00  0.00     0.030 H 
ENDBRANCH   1   8
BRANCH   1  12
ATOM     12  C5  <0> d          -0.723   1.954   1.250  0.00  0.00     0.056 A 
ATOM     13  N2  <0> d          -0.019   2.450   2.248  0.00  0.00    -0.264 NA
ATOM     14  C9  <0> d          -0.594   2.891   3.350  0.00  0.00     0.003 A 
ATOM     15  C8  <0> d          -1.966   2.839   3.502  0.00  0.00    -0.066 A 
ATOM     16  H10 <0> d           0.016   3.295   4.145  0.00  0.00     0.114 H 
ATOM     17  C7  <0> d          -2.740   2.319   2.475  0.00  0.00    -0.080 A 
ATOM     18  H9  <0> d          -2.430   3.198   4.408  0.00  0.00     0.085 H 
ATOM     19  C6  <0> d          -2.101   1.869   1.330  0.00  0.00    -0.057 A 
ATOM     20  H8  <0> d          -3.815   2.265   2.565  0.00  0.00     0.083 H 
ATOM     21  H7  <0> d          -2.672   1.458   0.511  0.00  0.00     0.086 H 
ENDBRANCH   1  12
TORSDOF 3
