REMARK  2 active torsions:
REMARK  status: ('A' for Active; 'I' for Inactive)
REMARK    1  A    between atoms: C1_1  and  C2_2 
REMARK    2  A    between atoms: C2_2  and  C3_4 
ROOT
ATOM      1  C3  <0> d          -0.018   1.503   0.010  0.00  0.00     0.011 C 
ATOM      2  H1  <0> d          -0.547   1.833  -0.772  0.00  0.00     0.052 H 
ATOM      3  C4  <0> d          -0.664   1.997   1.307  0.00  0.00    -0.048 C 
ATOM      4  C5  <0> d           0.339   2.859   2.084  0.00  0.00    -0.037 C 
ATOM      5  H2  <0> d          -0.106   3.264   2.992  0.00  0.00     0.046 H 
ATOM      6  C6  <0> d           1.563   1.994   2.416  0.00  0.00    -0.058 C 
ATOM      7  C7  <0> d           2.208   1.500   1.120  0.00  0.00    -0.057 C 
ATOM      8  C8  <0> d           1.418   2.034  -0.083  0.00  0.00    -0.028 C 
ATOM      9  H3  <0> d           1.879   1.736  -1.024  0.00  0.00     0.047 H 
ATOM     10  C9  <0> d           1.363   3.550   0.036  0.00  0.00    -0.102 C 
ATOM     11  C10 <0> d           0.802   3.979   1.163  0.00  0.00    -0.102 C 
ATOM     12  H7  <0> d          -1.546   2.591   1.070  0.00  0.00     0.035 H 
ATOM     13  H8  <0> d          -0.955   1.141   1.916  0.00  0.00     0.035 H 
ATOM     14  H9  <0> d           2.285   2.587   2.978  0.00  0.00     0.034 H 
ATOM     15  H10 <0> d           1.251   1.139   3.015  0.00  0.00     0.034 H 
ATOM     16  H11 <0> d           2.203   0.410   1.103  0.00  0.00     0.034 H 
ATOM     17  H12 <0> d           3.236   1.859   1.066  0.00  0.00     0.034 H 
ATOM     18  H13 <0> d           1.744   4.215  -0.725  0.00  0.00     0.077 H 
ATOM     19  H14 <0> d           0.685   5.026   1.403  0.00  0.00     0.076 H 
ENDROOT
BRANCH   1  20
ATOM     20  C2  <0> d           0.002  -0.004   0.002  0.00  0.00     0.127 C 
ATOM     21  O1  <0> d           0.020  -0.613   1.044  0.00  0.00    -0.298 OA
BRANCH  20  22
ATOM     22  C1  <0> d          -0.000  -0.750  -1.307  0.00  0.00    -0.021 C 
ATOM     23  H4  <0> d           0.808  -0.495  -1.838  0.00  0.00     0.037 H 
ATOM     24  H5  <0> d           0.016  -1.823  -1.114  0.00  0.00     0.037 H 
ATOM     25  H6  <0> d          -0.899  -0.496  -1.869  0.00  0.00     0.037 H 
ENDBRANCH  20  22
ENDBRANCH   1  20
TORSDOF 2
