REMARK  0 active torsions:
REMARK  status: ('A' for Active; 'I' for Inactive)
ROOT
ATOM      1  C1  <0> d          -0.247   3.866   0.593  0.00  0.00     0.010 C 
ATOM      2  C2  <0> d          -1.141   3.989  -0.629  0.00  0.00     0.010 C 
ATOM      3  N1  <0> d          -1.151   2.792  -1.442  0.00  0.00    -0.359 N 
ATOM      4  C3  <0> d          -0.720   1.573  -1.212  0.00  0.00     0.226 C 
ATOM      5  O1  <0> d          -0.919   0.755  -2.085  0.00  0.00    -0.273 OA
ATOM      6  C4  <0> d          -0.013   1.086   0.008  0.00  0.00     0.083 C 
ATOM      7  C5  <0> d          -0.704   1.565   1.259  0.00  0.00     0.226 C 
ATOM      8  O2  <0> d          -1.210   0.769   2.021  0.00  0.00    -0.273 OA
ATOM      9  N2  <0> d          -0.752   2.863   1.519  0.00  0.00    -0.359 N 
ATOM     10  H1  <0> d           0.756   3.585   0.274  0.00  0.00     0.066 H 
ATOM     11  H2  <0> d          -0.202   4.830   1.100  0.00  0.00     0.066 H 
ATOM     12  H3  <0> d          -0.791   4.824  -1.237  0.00  0.00     0.066 H 
ATOM     13  H4  <0> d          -2.159   4.199  -0.300  0.00  0.00     0.066 H 
ATOM     14  H5  <0> d          -1.550   2.912  -2.318  0.00  0.00     0.162 HD
ATOM     15  H6  <0> d           0.002  -0.004   0.002  0.00  0.00     0.061 H 
ATOM     16  H7  <0> d           1.012   1.458   0.000  0.00  0.00     0.061 H 
ATOM     17  H8  <0> d          -1.139   3.156   2.359  0.00  0.00     0.162 HD
ENDROOT
TORSDOF 0
