REMARK  2 active torsions:
REMARK  status: ('A' for Active; 'I' for Inactive)
REMARK    1  A    between atoms: C1_1  and  C2_2 
REMARK    2  A    between atoms: C7_7  and  C8_8 
ROOT
ATOM      1  C2  <0> d          -2.409   1.369   0.033  0.00  0.00    -0.054 A 
ATOM      2  C3  <0> d          -1.252   2.085   0.031  0.00  0.00    -0.047 A 
ATOM      3  C4  <0> d          -0.017   1.414   0.010  0.00  0.00     0.085 A 
ATOM      4  C5  <0> d           0.002  -0.004   0.002  0.00  0.00     0.085 A 
ATOM      5  C6  <0> d          -1.214  -0.709   0.010  0.00  0.00    -0.047 A 
ATOM      6  C7  <0> d          -2.390  -0.024   0.026  0.00  0.00    -0.054 A 
ATOM      7  N1  <0> d           1.174  -0.648  -0.013  0.00  0.00    -0.257 NA
ATOM      8  C9  <0> d           2.294   0.038  -0.020  0.00  0.00     0.020 A 
ATOM      9  C10 <0> d           2.275   1.434  -0.012  0.00  0.00     0.020 A 
ATOM     10  N2  <0> d           1.137   2.090   0.002  0.00  0.00    -0.257 NA
ATOM     11  H4  <0> d          -1.282   3.165   0.037  0.00  0.00     0.088 H 
ATOM     12  H5  <0> d          -1.215  -1.789   0.004  0.00  0.00     0.088 H 
ATOM     13  H9  <0> d           3.240  -0.483  -0.032  0.00  0.00     0.117 H 
ATOM     14  H10 <0> d           3.206   1.981  -0.018  0.00  0.00     0.117 H 
ENDROOT
BRANCH   1  15
ATOM     15  C1  <0> d          -3.730   2.094   0.050  0.00  0.00    -0.051 C 
ATOM     16  H1  <0> d          -4.038   2.263   1.082  0.00  0.00     0.033 H 
ATOM     17  H2  <0> d          -3.626   3.051  -0.460  0.00  0.00     0.033 H 
ATOM     18  H3  <0> d          -4.482   1.490  -0.459  0.00  0.00     0.033 H 
ENDBRANCH   1  15
BRANCH   6  19
ATOM     19  C8  <0> d          -3.691  -0.785   0.035  0.00  0.00    -0.051 C 
ATOM     20  H6  <0> d          -3.995  -0.973   1.064  0.00  0.00     0.033 H 
ATOM     21  H7  <0> d          -4.459  -0.197  -0.469  0.00  0.00     0.033 H 
ATOM     22  H8  <0> d          -3.561  -1.734  -0.486  0.00  0.00     0.033 H 
ENDBRANCH   6  19
TORSDOF 2
