REMARK  3 active torsions:
REMARK  status: ('A' for Active; 'I' for Inactive)
REMARK    1  A    between atoms: C3_3  and  O2_9 
REMARK    2  A    between atoms: C4_4  and  N1_8 
REMARK    3  A    between atoms: C5_5  and  O1_7 
ROOT
ATOM      1  C1  <0> d          -3.655   3.004   0.037  0.00  0.00    -0.078 A 
ATOM      2  C2  <0> d          -3.639   1.622   0.029  0.00  0.00    -0.049 A 
ATOM      3  C3  <0> d          -2.432   0.941   0.019  0.00  0.00     0.094 A 
ATOM      4  C4  <0> d          -1.235   1.651   0.017  0.00  0.00     0.092 A 
ATOM      5  C5  <0> d          -1.257   3.042   0.030  0.00  0.00     0.094 A 
ATOM      6  C6  <0> d          -2.469   3.714   0.035  0.00  0.00    -0.049 A 
ATOM      7  H1  <0> d          -4.598   3.532   0.045  0.00  0.00     0.083 H 
ATOM      8  H2  <0> d          -4.569   1.072   0.030  0.00  0.00     0.087 H 
ATOM      9  H3  <0> d          -2.486   4.794   0.041  0.00  0.00     0.087 H 
ENDROOT
BRANCH   4  10
ATOM     10  N1  <0> d          -0.011   0.966   0.007  0.00  0.00    -0.395 N 
ATOM     11  H5  <0> d           0.002  -0.004   0.002  0.00  0.00     0.156 HD
ATOM     12  H6  <0> d           0.822   1.462   0.002  0.00  0.00     0.156 HD
ENDBRANCH   4  10
BRANCH   3  13
ATOM     13  O2  <0> d          -2.417  -0.419   0.010  0.00  0.00    -0.358 OA
ATOM     14  H7  <0> d          -2.408  -0.818   0.891  0.00  0.00     0.217 HD
ENDBRANCH   3  13
BRANCH   5  15
ATOM     15  O1  <0> d          -0.090   3.741   0.034  0.00  0.00    -0.358 OA
ATOM     16  H4  <0> d           0.245   3.951  -0.849  0.00  0.00     0.217 HD
ENDBRANCH   5  15
TORSDOF 3
