REMARK  1 active torsions:
REMARK  status: ('A' for Active; 'I' for Inactive)
REMARK    1  A    between atoms: C3_4  and  O1_8 
ROOT
ATOM      1  C1  <0> d           1.197  -0.696  -0.013  0.00  0.00    -0.045 A 
ATOM      2  C2  <0> d           0.002  -0.004   0.002  0.00  0.00     0.006 A 
ATOM      3  N1  <0> d          -0.016   1.315   0.009  0.00  0.00    -0.237 NA
ATOM      4  C3  <0> d           1.101   2.025   0.002  0.00  0.00     0.163 A 
ATOM      5  C4  <0> d           2.338   1.397  -0.013  0.00  0.00    -0.011 A 
ATOM      6  C5  <0> d           2.392   0.013  -0.020  0.00  0.00     0.039 A 
ATOM      7 Cl1  <0> d           3.916  -0.817  -0.039  0.00  0.00    -0.084 Cl
ATOM      8  H1  <0> d           1.202  -1.776  -0.018  0.00  0.00     0.088 H 
ATOM      9  H2  <0> d          -0.930  -0.550   0.008  0.00  0.00     0.114 H 
ATOM     10  H3  <0> d           3.248   1.980  -0.018  0.00  0.00     0.092 H 
ENDROOT
BRANCH   4  11
ATOM     11  O1  <0> d           1.035   3.381   0.010  0.00  0.00    -0.345 OA
ATOM     12  H4  <0> d           1.024   3.769   0.896  0.00  0.00     0.219 HD
ENDBRANCH   4  11
TORSDOF 1
