REMARK  2 active torsions:
REMARK  status: ('A' for Active; 'I' for Inactive)
REMARK    1  A    between atoms: C1_1  and  C2_2 
REMARK    2  A    between atoms: C4_5  and  N3_8 
ROOT
ATOM      1  C2  <0> d          -3.534   2.998   0.036  0.00  0.00     0.048 A 
ATOM      2  C3  <0> d          -3.517   1.616   0.028  0.00  0.00     0.028 A 
ATOM      3  N1  <0> d          -2.365   0.967   0.018  0.00  0.00    -0.240 NA
ATOM      4  C4  <0> d          -1.224   1.644   0.017  0.00  0.00     0.138 A 
ATOM      5  C5  <0> d          -1.245   3.037   0.030  0.00  0.00     0.046 A 
ATOM      6  N2  <0> d          -2.399   3.677   0.034  0.00  0.00    -0.261 NA
ATOM      7  H4  <0> d          -4.446   1.066   0.030  0.00  0.00     0.117 H 
ATOM      8  H5  <0> d          -0.319   3.592   0.033  0.00  0.00     0.120 H 
ENDROOT
BRANCH   1   9
ATOM      9  C1  <0> d          -4.849   3.734   0.047  0.00  0.00    -0.034 C 
ATOM     10  H1  <0> d          -5.161   3.905   1.078  0.00  0.00     0.035 H 
ATOM     11  H2  <0> d          -4.735   4.691  -0.462  0.00  0.00     0.035 H 
ATOM     12  H3  <0> d          -5.604   3.137  -0.466  0.00  0.00     0.035 H 
ENDBRANCH   1   9
BRANCH   4  13
ATOM     13  N3  <0> d          -0.011   0.966   0.007  0.00  0.00    -0.383 N 
ATOM     14  H6  <0> d           0.002  -0.004   0.002  0.00  0.00     0.157 HD
ATOM     15  H7  <0> d           0.822   1.462   0.002  0.00  0.00     0.157 HD
ENDBRANCH   4  13
TORSDOF 2
