REMARK  1 active torsions:
REMARK  status: ('A' for Active; 'I' for Inactive)
REMARK    1  A    between atoms: C3_3  and  C8_10 
ROOT
ATOM      1  C1  <0> d          -0.050   3.751  -1.398  0.00  0.00    -0.060 C 
ATOM      2  C2  <0> d          -1.252   2.779  -1.419  0.00  0.00    -0.041 C 
ATOM      3  C3  <0> d          -1.248   2.118   0.019  0.00  0.00     0.109 C 
ATOM      4  C4  <0> d          -0.716   3.315   0.890  0.00  0.00    -0.038 C 
ATOM      5  C5  <0> d           0.568   3.575   0.024  0.00  0.00    -0.046 C 
ATOM      6  H1  <0> d           1.227   4.375   0.362  0.00  0.00     0.040 H 
ATOM      7  C6  <0> d           1.183   2.143   0.002  0.00  0.00    -0.005 C 
ATOM      8  C7  <0> d          -0.014   1.203   0.009  0.00  0.00     0.146 C 
ATOM      9  O1  <0> d           0.002  -0.004   0.002  0.00  0.00    -0.297 OA
ATOM     10  H2  <0> d          -0.388   4.778  -1.542  0.00  0.00     0.033 H 
ATOM     11  H3  <0> d           0.676   3.480  -2.164  0.00  0.00     0.033 H 
ATOM     12  H4  <0> d          -2.180   3.326  -1.581  0.00  0.00     0.035 H 
ATOM     13  H5  <0> d          -1.116   2.025  -2.195  0.00  0.00     0.035 H 
ATOM     14  H6  <0> d          -0.469   3.009   1.906  0.00  0.00     0.036 H 
ATOM     15  H7  <0> d          -1.398   4.164   0.877  0.00  0.00     0.036 H 
ATOM     16  H8  <0> d           1.765   2.018   0.806  0.00  0.00     0.044 H 
ATOM     17  H9  <0> d           1.775   1.996  -0.901  0.00  0.00     0.044 H 
ENDROOT
BRANCH   3  18
ATOM     18  C8  <0> d          -2.538   1.476   0.460  0.00  0.00     0.189 C 
ATOM     19  O2  <0> d          -3.117   1.892   1.435  0.00  0.00    -0.647 OA
ATOM     20  O3  <0> d          -3.043   0.441  -0.230  0.00  0.00    -0.647 OA
ENDBRANCH   3  18
TORSDOF 1
