REMARK  2 active torsions:
REMARK  status: ('A' for Active; 'I' for Inactive)
REMARK    1  A    between atoms: C1_1  and  C2_2 
REMARK    2  A    between atoms: C4_4  and  C7_8 
ROOT
ATOM      1  C2  <0> d           1.096   2.023   0.003  0.00  0.00     0.030 A 
ATOM      2  C3  <0> d           2.331   1.401  -0.013  0.00  0.00    -0.053 A 
ATOM      3  C4  <0> d           2.389   0.017  -0.021  0.00  0.00    -0.051 A 
ATOM      4  C5  <0> d           1.199  -0.695  -0.013  0.00  0.00    -0.059 A 
ATOM      5  C6  <0> d           0.002  -0.004   0.002  0.00  0.00     0.003 A 
ATOM      6  N1  <0> d          -0.016   1.315   0.009  0.00  0.00    -0.266 NA
ATOM      7  H4  <0> d           3.238   1.987  -0.018  0.00  0.00     0.087 H 
ATOM      8  H5  <0> d           1.207  -1.775  -0.019  0.00  0.00     0.086 H 
ATOM      9  H6  <0> d          -0.929  -0.550   0.008  0.00  0.00     0.114 H 
ENDROOT
BRANCH   3  10
ATOM     10  C7  <0> d           3.715  -0.699  -0.037  0.00  0.00    -0.028 A 
ATOM     11  C9  <0> d           4.025  -1.639   1.130  0.00  0.00    -0.057 A 
ATOM     12  C8  <0> d           3.698  -2.214  -0.251  0.00  0.00    -0.057 A 
ATOM     13  H10 <0> d           5.059  -1.699   1.468  0.00  0.00     0.034 H 
ATOM     14  H11 <0> d           3.269  -1.740   1.909  0.00  0.00     0.034 H 
ATOM     15  H8  <0> d           2.727  -2.693  -0.380  0.00  0.00     0.034 H 
ATOM     16  H9  <0> d           4.518  -2.651  -0.821  0.00  0.00     0.034 H 
ATOM     17  H7  <0> d           4.546  -0.140  -0.466  0.00  0.00     0.047 H 
ENDBRANCH   3  10
BRANCH   1  18
ATOM     18  C1  <0> d           1.020   3.528   0.011  0.00  0.00    -0.035 C 
ATOM     19  H1  <0> d           1.012   3.886   1.040  0.00  0.00     0.035 H 
ATOM     20  H2  <0> d           1.886   3.939  -0.509  0.00  0.00     0.035 H 
ATOM     21  H3  <0> d           0.108   3.849  -0.493  0.00  0.00     0.035 H 
ENDBRANCH   1  18
TORSDOF 2
