REMARK  2 active torsions:
REMARK  status: ('A' for Active; 'I' for Inactive)
REMARK    1  A    between atoms: C3_3  and  N2_9 
REMARK    2  A    between atoms: C4_4  and  N1_8 
ROOT
ATOM      1  C1  <0> d           0.002  -0.004   0.002  0.00  0.00    -0.079 A 
ATOM      2  C2  <0> d           1.207  -0.683  -0.013  0.00  0.00    -0.055 A 
ATOM      3  C3  <0> d           2.401   0.022  -0.021  0.00  0.00     0.054 A 
ATOM      4  C4  <0> d           2.382   1.416  -0.013  0.00  0.00     0.074 A 
ATOM      5  C5  <0> d           1.170   2.090   0.002  0.00  0.00     0.062 A 
ATOM      6  C6  <0> d          -0.017   1.378   0.010  0.00  0.00    -0.060 A 
ATOM      7 Cl1  <0> d           1.141   3.826   0.011  0.00  0.00    -0.082 Cl
ATOM      8  H1  <0> d          -0.927  -0.555   0.008  0.00  0.00     0.083 H 
ATOM      9  H2  <0> d           1.217  -1.763  -0.019  0.00  0.00     0.087 H 
ATOM     10  H3  <0> d          -0.960   1.904   0.017  0.00  0.00     0.086 H 
ENDROOT
BRANCH   3  11
ATOM     11  N2  <0> d           3.621  -0.665  -0.036  0.00  0.00    -0.397 N 
ATOM     12  H6  <0> d           3.632  -1.635  -0.042  0.00  0.00     0.156 HD
ATOM     13  H7  <0> d           4.455  -0.170  -0.042  0.00  0.00     0.156 HD
ENDBRANCH   3  11
BRANCH   4  14
ATOM     14  N1  <0> d           3.585   2.134  -0.021  0.00  0.00    -0.396 N 
ATOM     15  H4  <0> d           4.432   1.662  -0.032  0.00  0.00     0.156 HD
ATOM     16  H5  <0> d           3.571   3.104  -0.016  0.00  0.00     0.156 HD
ENDBRANCH   4  14
TORSDOF 2
