REMARK  1 active torsions:
REMARK  status: ('A' for Active; 'I' for Inactive)
REMARK    1  A    between atoms: C1_1  and  C2_2 
ROOT
ATOM      1  C2  <0> d           0.002  -0.004   0.002  0.00  0.00     0.054 A 
ATOM      2  C3  <0> d          -1.206  -0.708   0.004  0.00  0.00    -0.019 A 
ATOM      3  C4  <0> d          -1.203  -2.076  -0.003  0.00  0.00     0.158 A 
ATOM      4  C5  <0> d           0.035  -2.756  -0.013  0.00  0.00     0.210 A 
ATOM      5  N1  <0> d           0.381  -4.032  -0.021  0.00  0.00    -0.126 NA
ATOM      6  N2  <0> d           1.665  -4.123  -0.028  0.00  0.00    -0.141 NA
ATOM      7  C6  <0> d           2.203  -2.929  -0.024  0.00  0.00     0.112 A 
ATOM      8  N3  <0> d           1.199  -2.027  -0.015  0.00  0.00    -0.203 N 
ATOM      9  N4  <0> d           1.149  -0.631  -0.012  0.00  0.00    -0.170 NA
ATOM     10  O1  <0> d          -2.369  -2.768  -0.000  0.00  0.00    -0.188 OA
ATOM     11  H4  <0> d          -2.143  -0.171   0.011  0.00  0.00     0.091 H 
ATOM     12  H5  <0> d           3.260  -2.706  -0.028  0.00  0.00     0.149 H 
ENDROOT
BRANCH   1  13
ATOM     13  C1  <0> d          -0.018   1.503   0.010  0.00  0.00    -0.034 C 
ATOM     14  H1  <0> d           1.004   1.880   0.003  0.00  0.00     0.035 H 
ATOM     15  H2  <0> d          -0.545   1.864  -0.873  0.00  0.00     0.035 H 
ATOM     16  H3  <0> d          -0.529   1.854   0.907  0.00  0.00     0.035 H 
ENDBRANCH   1  13
TORSDOF 1
