REMARK  1 active torsions:
REMARK  status: ('A' for Active; 'I' for Inactive)
REMARK    1  A    between atoms: C5_5  and  N1_7 
ROOT
ATOM      1  C1  <0> d          -3.633   1.612   0.028  0.00  0.00    -0.080 A 
ATOM      2  C2  <0> d          -3.662   2.992   0.036  0.00  0.00    -0.067 A 
ATOM      3  C3  <0> d          -2.468   3.715   0.034  0.00  0.00     0.042 A 
ATOM      4  C4  <0> d          -1.252   3.030   0.030  0.00  0.00     0.001 A 
ATOM      5  C5  <0> d          -1.230   1.648   0.017  0.00  0.00     0.034 A 
ATOM      6  C6  <0> d          -2.427   0.938   0.019  0.00  0.00    -0.057 A 
ATOM      7  C7  <0> d          -0.169   4.080   0.025  0.00  0.00     0.022 A 
ATOM      8  N2  <0> d          -0.856   5.377   0.035  0.00  0.00    -0.352 N 
ATOM      9  C8  <0> d          -2.183   5.163   0.040  0.00  0.00     0.252 A 
ATOM     10  O1  <0> d          -3.027   6.037   0.049  0.00  0.00    -0.268 OA
ATOM     11  H1  <0> d          -4.559   1.056   0.030  0.00  0.00     0.083 H 
ATOM     12  H2  <0> d          -4.609   3.513   0.043  0.00  0.00     0.085 H 
ATOM     13  H3  <0> d          -2.413  -0.142   0.012  0.00  0.00     0.086 H 
ATOM     14  H6  <0> d           0.443   3.987  -0.872  0.00  0.00     0.071 H 
ATOM     15  H7  <0> d           0.452   3.978   0.915  0.00  0.00     0.071 H 
ATOM     16  H8  <0> d          -0.423   6.245   0.038  0.00  0.00     0.163 HD
ENDROOT
BRANCH   5  17
ATOM     17  N1  <0> d          -0.011   0.966   0.007  0.00  0.00    -0.399 N 
ATOM     18  H4  <0> d           0.002  -0.004   0.002  0.00  0.00     0.156 HD
ATOM     19  H5  <0> d           0.822   1.462   0.002  0.00  0.00     0.156 HD
ENDBRANCH   5  17
TORSDOF 1
