REMARK  4 active torsions:
REMARK  status: ('A' for Active; 'I' for Inactive)
REMARK    1  A    between atoms: C3_3  and  C6_8 
REMARK    2  A    between atoms: C4_5  and  C5_6 
REMARK    3  A    between atoms: C5_6  and  O2_7 
REMARK    4  A    between atoms: C6_8  and  O3_9 
ROOT
ATOM      1  C1  <0> d           1.361  -0.395  -0.013  0.00  0.00    -0.050 A 
ATOM      2  C2  <0> d           0.002  -0.004   0.002  0.00  0.00    -0.050 A 
ATOM      3  C3  <0> d          -0.016   1.341   0.009  0.00  0.00     0.076 A 
ATOM      4  O1  <0> d           1.252   1.783  -0.000  0.00  0.00    -0.315 OA
ATOM      5  C4  <0> d           2.091   0.734  -0.014  0.00  0.00     0.076 A 
ATOM      6  H1  <0> d           1.739  -1.407  -0.022  0.00  0.00     0.087 H 
ATOM      7  H2  <0> d          -0.856  -0.659   0.007  0.00  0.00     0.087 H 
ENDROOT
BRANCH   3   8
ATOM      8  C6  <0> d          -1.250   2.205   0.020  0.00  0.00     0.061 C 
ATOM      9  H6  <0> d          -1.040   3.146  -0.490  0.00  0.00     0.084 H 
ATOM     10  H7  <0> d          -2.061   1.688  -0.492  0.00  0.00     0.084 H 
BRANCH   8  11
ATOM     11  O3  <0> d          -1.634   2.471   1.371  0.00  0.00    -0.394 OA
ATOM     12  H8  <0> d          -2.423   3.024   1.454  0.00  0.00     0.209 HD
ENDBRANCH   8  11
ENDBRANCH   3   8
BRANCH   5  13
ATOM     13  C5  <0> d           3.596   0.810  -0.028  0.00  0.00     0.061 C 
ATOM     14  H3  <0> d           3.919   1.715   0.488  0.00  0.00     0.084 H 
ATOM     15  H4  <0> d           4.009  -0.063   0.478  0.00  0.00     0.084 H 
BRANCH  13  16
ATOM     16  O2  <0> d           4.060   0.841  -1.379  0.00  0.00    -0.394 OA
ATOM     17  H5  <0> d           5.022   0.890  -1.464  0.00  0.00     0.209 HD
ENDBRANCH  13  16
ENDBRANCH   5  13
TORSDOF 4
