REMARK  5 active torsions:
REMARK  status: ('A' for Active; 'I' for Inactive)
REMARK    1  A    between atoms: C1_1  and  C2_2 
REMARK    2  A    between atoms: C2_2  and  C3_3 
REMARK    3  A    between atoms: C3_3  and  C4_5 
REMARK    4  A    between atoms: N1_7  and  C8_11 
REMARK    5  A    between atoms: C6_9  and  C7_10 
ROOT
ATOM      1  C4  <0> d          -0.200   1.217   2.573  0.00  0.00     0.053 A 
ATOM      2  C5  <0> d           0.917   0.443   2.840  0.00  0.00     0.013 A 
ATOM      3  N1  <0> d           1.042   0.366   4.173  0.00  0.00    -0.284 N 
ATOM      4  N2  <0> d          -0.004   1.086   4.761  0.00  0.00    -0.177 NA
ATOM      5  C6  <0> d          -0.750   1.597   3.821  0.00  0.00     0.066 A 
ATOM      6  H6  <0> d           1.569  -0.013   2.110  0.00  0.00     0.115 H 
ENDROOT
BRANCH   1   7
ATOM      7  C3  <0> d          -0.718   1.572   1.248  0.00  0.00     0.162 C 
ATOM      8  O1  <0> d          -1.715   2.256   1.150  0.00  0.00    -0.292 OA
BRANCH   7   9
ATOM      9  C2  <0> d          -0.013   1.086   0.008  0.00  0.00    -0.008 C 
ATOM     10  H4  <0> d           0.001   0.086   0.002  0.00  0.00     0.044 H 
ATOM     11  H5  <0> d           1.010   1.463   0.000  0.00  0.00     0.044 H 
BRANCH   9  12
ATOM     12  C1  <0> d          -0.753   1.593  -1.232  0.00  0.00    -0.070 C 
ATOM     13  H1  <0> d          -1.775   1.215  -1.224  0.00  0.00     0.028 H 
ATOM     14  H2  <0> d          -0.767   2.683  -1.226  0.00  0.00     0.028 H 
ATOM     15  H3  <0> d          -0.242   1.241  -2.128  0.00  0.00     0.028 H 
ENDBRANCH   9  12
ENDBRANCH   7   9
ENDBRANCH   1   7
BRANCH   5  16
ATOM     16  C7  <0> d          -1.980   2.441   4.027  0.00  0.00    -0.033 C 
ATOM     17  H7  <0> d          -2.859   1.798   4.078  0.00  0.00     0.035 H 
ATOM     18  H8  <0> d          -1.886   3.001   4.957  0.00  0.00     0.035 H 
ATOM     19  H9  <0> d          -2.087   3.136   3.194  0.00  0.00     0.035 H 
ENDBRANCH   5  16
BRANCH   3  20
ATOM     20  C8  <0> d           2.094  -0.355   4.894  0.00  0.00     0.002 C 
ATOM     21  H10 <0> d           1.774  -1.381   5.074  0.00  0.00     0.059 H 
ATOM     22  H11 <0> d           3.006  -0.358   4.297  0.00  0.00     0.059 H 
ATOM     23  H12 <0> d           2.285   0.139   5.847  0.00  0.00     0.059 H 
ENDBRANCH   3  20
TORSDOF 5
