REMARK  2 active torsions:
REMARK  status: ('A' for Active; 'I' for Inactive)
REMARK    1  A    between atoms: C4_4  and  O1_8 
REMARK    2  A    between atoms: C6_6  and  N1_7 
ROOT
ATOM      1  C1  <0> d          -0.017   1.389   0.010  0.00  0.00    -0.056 A 
ATOM      2  C2  <0> d           1.162   2.097   0.002  0.00  0.00    -0.058 A 
ATOM      3  C3  <0> d           2.385   1.419  -0.013  0.00  0.00     0.077 A 
ATOM      4  C4  <0> d           2.403   0.015  -0.021  0.00  0.00     0.088 A 
ATOM      5  C5  <0> d           1.212  -0.687  -0.013  0.00  0.00    -0.024 A 
ATOM      6  C6  <0> d           0.002  -0.004   0.002  0.00  0.00     0.028 A 
ATOM      7  C7  <0> d           3.615   2.153  -0.021  0.00  0.00     0.102 C 
ATOM      8  N2  <0> d           4.590   2.736  -0.028  0.00  0.00    -0.191 NA
ATOM      9  H1  <0> d          -0.960   1.914   0.026  0.00  0.00     0.086 H 
ATOM     10  H2  <0> d           1.144   3.177   0.008  0.00  0.00     0.086 H 
ATOM     11  H3  <0> d           1.222  -1.767  -0.019  0.00  0.00     0.091 H 
ENDROOT
BRANCH   4  12
ATOM     12  O1  <0> d           3.586  -0.651  -0.036  0.00  0.00    -0.359 OA
ATOM     13  H6  <0> d           3.937  -0.848   0.843  0.00  0.00     0.217 HD
ENDBRANCH   4  12
BRANCH   6  14
ATOM     14  N1  <0> d          -1.195  -0.714   0.010  0.00  0.00    -0.399 N 
ATOM     15  H4  <0> d          -2.041  -0.239   0.020  0.00  0.00     0.156 HD
ATOM     16  H5  <0> d          -1.184  -1.684   0.004  0.00  0.00     0.156 HD
ENDBRANCH   6  14
TORSDOF 2
