REMARK  5 active torsions:
REMARK  status: ('A' for Active; 'I' for Inactive)
REMARK    1  A    between atoms: C1_1  and  C2_2 
REMARK    2  A    between atoms: C5_5  and  C10_12 
REMARK    3  A    between atoms: C6_6  and  C8_8 
REMARK    4  A    between atoms: C8_8  and  C9_10 
REMARK    5  A    between atoms: C8_8  and  O1_11 
ROOT
ATOM      1  C2  <0> d           3.013   3.242   0.676  0.00  0.00    -0.061 A 
ATOM      2  C3  <0> d           3.995   2.565  -0.023  0.00  0.00    -0.077 A 
ATOM      3  C4  <0> d           3.679   1.409  -0.712  0.00  0.00    -0.076 A 
ATOM      4  C5  <0> d           2.382   0.930  -0.702  0.00  0.00    -0.053 A 
ATOM      5  C6  <0> d           1.401   1.607  -0.003  0.00  0.00    -0.024 A 
ATOM      6  C7  <0> d           1.716   2.766   0.683  0.00  0.00    -0.068 A 
ATOM      7  H5  <0> d           5.008   2.939  -0.031  0.00  0.00     0.084 H 
ATOM      8  H6  <0> d           4.446   0.880  -1.258  0.00  0.00     0.084 H 
ATOM      9  H7  <0> d           0.948   3.298   1.226  0.00  0.00     0.085 H 
ENDROOT
BRANCH   5  10
ATOM     10  C8  <0> d          -0.013   1.086   0.008  0.00  0.00     0.058 C 
ATOM     11  H1  <0> d           0.002  -0.004   0.002  0.00  0.00     0.090 H 
BRANCH  10  12
ATOM     12  C9  <0> d          -0.753   1.593  -1.232  0.00  0.00    -0.049 C 
ATOM     13  H8  <0> d          -0.242   1.241  -2.128  0.00  0.00     0.031 H 
ATOM     14  H9  <0> d          -1.775   1.215  -1.224  0.00  0.00     0.031 H 
ATOM     15  H10 <0> d          -0.767   2.683  -1.226  0.00  0.00     0.031 H 
ENDBRANCH  10  12
BRANCH  10  16
ATOM     16  O1  <0> d          -0.682   1.547   1.184  0.00  0.00    -0.391 OA
ATOM     17  H11 <0> d          -0.732   2.510   1.256  0.00  0.00     0.210 HD
ENDBRANCH  10  16
ENDBRANCH   5  10
BRANCH   4  18
ATOM     18  C10 <0> d           2.038  -0.330  -1.454  0.00  0.00    -0.051 C 
ATOM     19  H12 <0> d           1.743  -0.076  -2.472  0.00  0.00     0.033 H 
ATOM     20  H13 <0> d           2.908  -0.986  -1.481  0.00  0.00     0.033 H 
ATOM     21  H14 <0> d           1.215  -0.838  -0.953  0.00  0.00     0.033 H 
ENDBRANCH   4  18
BRANCH   1  22
ATOM     22  C1  <0> d           3.357   4.502   1.428  0.00  0.00    -0.051 C 
ATOM     23  H2  <0> d           3.228   5.363   0.772  0.00  0.00     0.033 H 
ATOM     24  H3  <0> d           2.699   4.601   2.292  0.00  0.00     0.033 H 
ATOM     25  H4  <0> d           4.393   4.454   1.764  0.00  0.00     0.033 H 
ENDBRANCH   1  22
TORSDOF 5
