REMARK  0 active torsions:
REMARK  status: ('A' for Active; 'I' for Inactive)
ROOT
ATOM      1  C1  <0> d          -0.013   1.086   0.008  0.00  0.00    -0.065 C 
ATOM      2  C2  <0> d          -0.755   1.594  -1.230  0.00  0.00    -0.064 C 
ATOM      3  C3  <0> d          -2.185   1.052  -1.222  0.00  0.00    -0.055 C 
ATOM      4  C4  <0> d          -2.914   1.539   0.033  0.00  0.00     0.007 C 
ATOM      5  H1  <0> d          -2.964   2.538   0.022  0.00  0.00     0.052 H 
ATOM      6  C5  <0> d          -2.166   1.057   1.279  0.00  0.00    -0.044 C 
ATOM      7  H2  <0> d          -2.666   1.440   2.168  0.00  0.00     0.041 H 
ATOM      8  C6  <0> d          -0.731   1.580   1.265  0.00  0.00    -0.061 C 
ATOM      9  C7  <0> d          -2.169  -0.470   1.318  0.00  0.00    -0.061 C 
ATOM     10  C8  <0> d          -3.604  -0.980   1.460  0.00  0.00    -0.059 C 
ATOM     11  C9  <0> d          -4.419  -0.567   0.230  0.00  0.00    -0.009 C 
ATOM     12  C10 <0> d          -4.301   0.931   0.052  0.00  0.00     0.131 C 
ATOM     13  O1  <0> d          -5.284   1.621  -0.072  0.00  0.00    -0.298 OA
ATOM     14  H3  <0> d           0.002  -0.004   0.002  0.00  0.00     0.033 H 
ATOM     15  H4  <0> d           1.010   1.464   0.000  0.00  0.00     0.033 H 
ATOM     16  H5  <0> d          -0.779   2.683  -1.219  0.00  0.00     0.033 H 
ATOM     17  H6  <0> d          -0.241   1.250  -2.128  0.00  0.00     0.033 H 
ATOM     18  H7  <0> d          -2.712   1.405  -2.108  0.00  0.00     0.034 H 
ATOM     19  H8  <0> d          -2.159  -0.038  -1.226  0.00  0.00     0.034 H 
ATOM     20  H9  <0> d          -0.204   1.219   2.149  0.00  0.00     0.033 H 
ATOM     21  H10 <0> d          -0.742   2.670   1.271  0.00  0.00     0.033 H 
ATOM     22  H11 <0> d          -1.576  -0.812   2.166  0.00  0.00     0.033 H 
ATOM     23  H12 <0> d          -1.736  -0.857   0.395  0.00  0.00     0.033 H 
ATOM     24  H13 <0> d          -4.055  -0.551   2.355  0.00  0.00     0.033 H 
ATOM     25  H14 <0> d          -3.597  -2.067   1.542  0.00  0.00     0.033 H 
ATOM     26  H15 <0> d          -5.377  -0.820   0.364  0.00  0.00     0.044 H 
ATOM     27  H16 <0> d          -4.031  -1.072  -0.655  0.00  0.00     0.044 H 
ENDROOT
TORSDOF 0
