REMARK  0 active torsions:
REMARK  status: ('A' for Active; 'I' for Inactive)
ROOT
ATOM      1  C1  <0> d          -0.019   1.526   0.010  0.00  0.00    -0.065 C 
ATOM      2  C2  <0> d           1.416   2.058  -0.000  0.00  0.00    -0.064 C 
ATOM      3  C3  <0> d           2.127   1.577  -1.268  0.00  0.00    -0.056 C 
ATOM      4  C4  <0> d           2.124   0.055  -1.308  0.00  0.00    -0.016 C 
ATOM      5  C5  <0> d           0.707  -0.496  -1.266  0.00  0.00    -0.056 C 
ATOM      6  C6  <0> d           0.002  -0.004   0.002  0.00  0.00    -0.064 C 
ATOM      7  C7  <0> d           2.964  -0.519  -0.152  0.00  0.00     0.018 C 
ATOM      8  C8  <0> d           4.333  -0.731  -0.762  0.00  0.00     0.218 C 
ATOM      9  O1  <0> d           5.354  -0.914  -0.133  0.00  0.00    -0.274 OA
ATOM     10  N1  <0> d           4.253  -0.688  -2.104  0.00  0.00    -0.360 N 
ATOM     11  C9  <0> d           2.872  -0.458  -2.550  0.00  0.00     0.003 C 
ATOM     12  H1  <0> d          -0.546   1.887  -0.872  0.00  0.00     0.033 H 
ATOM     13  H2  <0> d          -0.529   1.877   0.907  0.00  0.00     0.033 H 
ATOM     14  H3  <0> d           1.399   3.148   0.015  0.00  0.00     0.033 H 
ATOM     15  H4  <0> d           1.947   1.690   0.877  0.00  0.00     0.033 H 
ATOM     16  H5  <0> d           3.156   1.938  -1.266  0.00  0.00     0.034 H 
ATOM     17  H6  <0> d           1.609   1.964  -2.145  0.00  0.00     0.034 H 
ATOM     18  H7  <0> d           0.741  -1.586  -1.262  0.00  0.00     0.034 H 
ATOM     19  H8  <0> d           0.157  -0.153  -2.143  0.00  0.00     0.034 H 
ATOM     20  H9  <0> d           0.538  -0.365   0.879  0.00  0.00     0.033 H 
ATOM     21  H10 <0> d          -1.020  -0.382   0.020  0.00  0.00     0.033 H 
ATOM     22  H11 <0> d           3.019   0.194   0.671  0.00  0.00     0.048 H 
ATOM     23  H12 <0> d           2.546  -1.466   0.189  0.00  0.00     0.048 H 
ATOM     24  H13 <0> d           5.010  -0.794  -2.702  0.00  0.00     0.162 HD
ATOM     25  H14 <0> d           2.428  -1.391  -2.899  0.00  0.00     0.065 H 
ATOM     26  H15 <0> d           2.849   0.291  -3.341  0.00  0.00     0.065 H 
ENDROOT
TORSDOF 0
