REMARK  3 active torsions:
REMARK  status: ('A' for Active; 'I' for Inactive)
REMARK    1  A    between atoms: N2_4  and  C4_6 
REMARK    2  A    between atoms: C4_6  and  C5_7 
REMARK    3  A    between atoms: C5_7  and  O1_8 
ROOT
ATOM      1  C1  <0> d          -1.144   3.036   3.085  0.00  0.00    -0.048 A 
ATOM      2  C2  <0> d          -2.259   2.263   2.743  0.00  0.00     0.023 A 
ATOM      3  N1  <0> d          -1.998   1.645   1.619  0.00  0.00    -0.185 NA
ATOM      4  N2  <0> d          -0.704   1.998   1.216  0.00  0.00    -0.279 N 
ATOM      5  C3  <0> d          -0.203   2.855   2.130  0.00  0.00    -0.000 A 
ATOM      6  H1  <0> d          -1.051   3.666   3.958  0.00  0.00     0.087 H 
ATOM      7  H2  <0> d          -3.178   2.193   3.306  0.00  0.00     0.117 H 
ATOM      8  H3  <0> d           0.774   3.313   2.104  0.00  0.00     0.114 H 
ENDROOT
BRANCH   4   9
ATOM      9  C4  <0> d          -0.019   1.526   0.010  0.00  0.00     0.036 C 
ATOM     10  H4  <0> d           1.004   1.903   0.003  0.00  0.00     0.070 H 
ATOM     11  H5  <0> d          -0.546   1.887  -0.873  0.00  0.00     0.070 H 
BRANCH   9  12
ATOM     12  C5  <0> d           0.002  -0.004   0.002  0.00  0.00     0.033 C 
ATOM     13  H6  <0> d           0.529  -0.365   0.885  0.00  0.00     0.076 H 
ATOM     14  H7  <0> d          -1.020  -0.381   0.010  0.00  0.00     0.076 H 
BRANCH  12  15
ATOM     15  O1  <0> d           0.671  -0.465  -1.174  0.00  0.00    -0.399 OA
ATOM     16  H8  <0> d           0.722  -1.428  -1.246  0.00  0.00     0.209 HD
ENDBRANCH  12  15
ENDBRANCH   9  12
ENDBRANCH   4   9
TORSDOF 3
