REMARK  4 active torsions:
REMARK  status: ('A' for Active; 'I' for Inactive)
REMARK    1  A    between atoms: C1_1  and  C2_2 
REMARK    2  A    between atoms: C2_2  and  C3_3 
REMARK    3  A    between atoms: N2_7  and  C6_8 
REMARK    4  A    between atoms: C6_8  and  C7_9 
ROOT
ATOM      1  C3  <0> d           3.417   3.682  -1.094  0.00  0.00     0.105 A 
ATOM      2  N1  <0> d           4.598   4.081  -0.708  0.00  0.00    -0.246 NA
ATOM      3  C4  <0> d           4.611   4.197   0.629  0.00  0.00     0.019 A 
ATOM      4  C5  <0> d           3.390   3.861   1.088  0.00  0.00    -0.002 A 
ATOM      5  N2  <0> d           2.634   3.529  -0.004  0.00  0.00    -0.334 N 
ATOM      6  H6  <0> d           5.451   4.509   1.231  0.00  0.00     0.117 H 
ATOM      7  H7  <0> d           3.070   3.853   2.119  0.00  0.00     0.113 H 
ENDROOT
BRANCH   1   8
ATOM      8  C2  <0> d           2.997   3.432  -2.519  0.00  0.00    -0.013 C 
ATOM      9  H4  <0> d           3.861   3.112  -3.102  0.00  0.00     0.044 H 
ATOM     10  H5  <0> d           2.235   2.652  -2.542  0.00  0.00     0.044 H 
BRANCH   8  11
ATOM     11  C1  <0> d           2.427   4.720  -3.116  0.00  0.00    -0.070 C 
ATOM     12  H1  <0> d           1.563   5.039  -2.534  0.00  0.00     0.028 H 
ATOM     13  H2  <0> d           3.189   5.499  -3.094  0.00  0.00     0.028 H 
ATOM     14  H3  <0> d           2.123   4.539  -4.147  0.00  0.00     0.028 H 
ENDBRANCH   8  11
ENDBRANCH   1   8
BRANCH   5  15
ATOM     15  C6  <0> d           1.235   3.094   0.007  0.00  0.00     0.080 C 
ATOM     16  H8  <0> d           0.727   3.482  -0.876  0.00  0.00     0.081 H 
ATOM     17  H9  <0> d           0.744   3.473   0.904  0.00  0.00     0.081 H 
BRANCH  15  18
ATOM     18  C7  <0> d           1.177   1.588  -0.001  0.00  0.00     0.191 C 
ATOM     19  O1  <0> d           2.199   0.944  -0.014  0.00  0.00    -0.647 OA
ATOM     20  O2  <0> d          -0.011   0.963   0.007  0.00  0.00    -0.647 OA
ENDBRANCH  15  18
ENDBRANCH   5  15
TORSDOF 4
