REMARK  2 active torsions:
REMARK  status: ('A' for Active; 'I' for Inactive)
REMARK    1  A    between atoms: C1_1  and  C2_2 
REMARK    2  A    between atoms: N2_10  and  C9_11 
ROOT
ATOM      1  C2  <0> d          -1.204   1.744   0.017  0.00  0.00    -0.060 A 
ATOM      2  C3  <0> d          -1.238   3.131   0.029  0.00  0.00    -0.075 A 
ATOM      3  C4  <0> d          -0.067   3.858   0.023  0.00  0.00    -0.054 A 
ATOM      4  C5  <0> d           1.154   3.197   0.008  0.00  0.00     0.064 A 
ATOM      5  C6  <0> d           1.187   1.792   0.000  0.00  0.00     0.085 A 
ATOM      6  C7  <0> d          -0.013   1.076   0.008  0.00  0.00    -0.047 A 
ATOM      7  N1  <0> d           2.495   1.428  -0.013  0.00  0.00    -0.242 NA
ATOM      8  C8  <0> d           3.245   2.491  -0.014  0.00  0.00     0.067 A 
ATOM      9  N2  <0> d           2.471   3.609  -0.001  0.00  0.00    -0.344 N 
ATOM     10  H4  <0> d          -2.188   3.645   0.041  0.00  0.00     0.084 H 
ATOM     11  H5  <0> d          -0.098   4.938   0.029  0.00  0.00     0.087 H 
ATOM     12  H6  <0> d           0.002  -0.004   0.002  0.00  0.00     0.088 H 
ATOM     13  H7  <0> d           4.325   2.486  -0.024  0.00  0.00     0.143 H 
ENDROOT
BRANCH   1  14
ATOM     14  C1  <0> d          -2.495   0.966   0.019  0.00  0.00    -0.051 C 
ATOM     15  H1  <0> d          -2.801   0.773   1.047  0.00  0.00     0.033 H 
ATOM     16  H2  <0> d          -3.268   1.544  -0.488  0.00  0.00     0.033 H 
ATOM     17  H3  <0> d          -2.350   0.019  -0.501  0.00  0.00     0.033 H 
ENDBRANCH   1  14
BRANCH   9  18
ATOM     18  C9  <0> d           2.947   4.995   0.002  0.00  0.00    -0.013 C 
ATOM     19  H8  <0> d           3.056   5.344  -1.025  0.00  0.00     0.057 H 
ATOM     20  H9  <0> d           2.228   5.625   0.525  0.00  0.00     0.057 H 
ATOM     21  H10 <0> d           3.911   5.047   0.508  0.00  0.00     0.057 H 
ENDBRANCH   9  18
TORSDOF 2
