REMARK  3 active torsions:
REMARK  status: ('A' for Active; 'I' for Inactive)
REMARK    1  A    between atoms: C1_1  and  C2_2 
REMARK    2  A    between atoms: C6_7  and  N2_8 
REMARK       I    between atoms: N2_8  and  C7_9 
REMARK    3  A    between atoms: C7_9  and  C8_11 
ROOT
ATOM      1  C2  <0> d           0.002  -0.004   0.002  0.00  0.00    -0.016 A 
ATOM      2  C3  <0> d          -0.017   1.380   0.010  0.00  0.00    -0.072 A 
ATOM      3  C4  <0> d           1.194   2.058   0.002  0.00  0.00    -0.065 A 
ATOM      4  C5  <0> d           2.373   1.339  -0.013  0.00  0.00     0.004 A 
ATOM      5  N1  <0> d           2.359   0.020  -0.020  0.00  0.00    -0.243 NA
ATOM      6  C6  <0> d           1.226  -0.663  -0.013  0.00  0.00     0.135 A 
ATOM      7  H4  <0> d          -0.952   1.919   0.017  0.00  0.00     0.084 H 
ATOM      8  H5  <0> d           1.214   3.138   0.007  0.00  0.00     0.085 H 
ATOM      9  H6  <0> d           3.317   1.862  -0.020  0.00  0.00     0.114 H 
ENDROOT
BRANCH   6  10
ATOM     10  N2  <0> d           1.259  -2.057  -0.021  0.00  0.00    -0.312 N 
ATOM     11  C7  <0> d           2.442  -2.703  -0.035  0.00  0.00     0.219 C 
ATOM     12  O1  <0> d           3.477  -2.072  -0.042  0.00  0.00    -0.274 OA
ATOM     13  H7  <0> d           0.431  -2.562  -0.015  0.00  0.00     0.170 HD
BRANCH  11  14
ATOM     14  C8  <0> d           2.478  -4.210  -0.043  0.00  0.00    -0.002 C 
ATOM     15  H8  <0> d           1.459  -4.597  -0.035  0.00  0.00     0.040 H 
ATOM     16  H9  <0> d           2.991  -4.556  -0.940  0.00  0.00     0.040 H 
ATOM     17  H10 <0> d           3.009  -4.565   0.840  0.00  0.00     0.040 H 
ENDBRANCH  11  14
ENDBRANCH   6  10
BRANCH   1  18
ATOM     18  C1  <0> d          -1.287  -0.785   0.011  0.00  0.00    -0.048 C 
ATOM     19  H1  <0> d          -1.607  -0.968  -1.015  0.00  0.00     0.033 H 
ATOM     20  H2  <0> d          -1.131  -1.738   0.518  0.00  0.00     0.033 H 
ATOM     21  H3  <0> d          -2.054  -0.215   0.535  0.00  0.00     0.033 H 
ENDBRANCH   1  18
TORSDOF 3
