REMARK  3 active torsions:
REMARK  status: ('A' for Active; 'I' for Inactive)
REMARK    1  A    between atoms: C1_1  and  C2_2 
REMARK    2  A    between atoms: C2_2  and  C3_3 
REMARK    3  A    between atoms: C4_5  and  C6_8 
ROOT
ATOM      1  C3  <0> d          -1.412  -0.526   0.013  0.00  0.00     0.145 A 
ATOM      2  N1  <0> d          -2.125  -0.785  -1.041  0.00  0.00    -0.220 NA
ATOM      3  C4  <0> d          -3.344  -1.236  -0.636  0.00  0.00     0.157 A 
ATOM      4  C5  <0> d          -3.337  -1.239   0.727  0.00  0.00     0.055 A 
ATOM      5  O1  <0> d          -2.129  -0.800   1.112  0.00  0.00    -0.305 OA
ATOM      6  H6  <0> d          -4.148  -1.540   1.374  0.00  0.00     0.127 H 
ENDROOT
BRANCH   1   7
ATOM      7  C2  <0> d           0.002  -0.004   0.002  0.00  0.00    -0.007 C 
ATOM      8  H4  <0> d           0.512  -0.356  -0.895  0.00  0.00     0.044 H 
ATOM      9  H5  <0> d           0.529  -0.365   0.885  0.00  0.00     0.044 H 
BRANCH   7  10
ATOM     10  C1  <0> d          -0.019   1.526   0.010  0.00  0.00    -0.069 C 
ATOM     11  H1  <0> d           1.004   1.903   0.003  0.00  0.00     0.028 H 
ATOM     12  H2  <0> d          -0.546   1.887  -0.873  0.00  0.00     0.028 H 
ATOM     13  H3  <0> d          -0.529   1.877   0.907  0.00  0.00     0.028 H 
ENDBRANCH   7  10
ENDBRANCH   1   7
BRANCH   3  14
ATOM     14  C6  <0> d          -4.458  -1.643  -1.505  0.00  0.00     0.231 C 
ATOM     15  O2  <0> d          -4.335  -1.593  -2.722  0.00  0.00    -0.643 OA
ATOM     16  O3  <0> d          -5.508  -2.032  -1.012  0.00  0.00    -0.643 OA
ENDBRANCH   3  14
TORSDOF 3
