REMARK  5 active torsions:
REMARK  status: ('A' for Active; 'I' for Inactive)
REMARK    1  A    between atoms: C1_1  and  C2_2 
REMARK    2  A    between atoms: C2_2  and  C3_3 
REMARK    3  A    between atoms: C3_3  and  C4_5 
REMARK    4  A    between atoms: C4_5  and  C5_6 
REMARK    5  A    between atoms: C5_6  and  C6_7 
ROOT
ATOM      1  C4  <0> d          -2.182   1.345  -1.162  0.00  0.00    -0.007 C 
ATOM      2  H6  <0> d          -1.701   1.534  -2.018  0.00  0.00     0.044 H 
ATOM      3  H7  <0> d          -2.365   0.274  -1.077  0.00  0.00     0.044 H 
ENDROOT
BRANCH   1   4
ATOM      4  C3  <0> d          -3.498   2.080  -1.152  0.00  0.00     0.126 C 
ATOM      5  O1  <0> d          -3.728   2.894  -0.289  0.00  0.00    -0.298 OA
BRANCH   4   6
ATOM      6  C2  <0> d          -4.526   1.801  -2.217  0.00  0.00    -0.013 C 
ATOM      7  H4  <0> d          -4.139   2.009  -3.116  0.00  0.00     0.043 H 
ATOM      8  H5  <0> d          -4.812   0.750  -2.179  0.00  0.00     0.043 H 
BRANCH   6   9
ATOM      9  C1  <0> d          -5.759   2.674  -1.978  0.00  0.00    -0.070 C 
ATOM     10  H1  <0> d          -6.503   2.472  -2.749  0.00  0.00     0.028 H 
ATOM     11  H2  <0> d          -6.180   2.447  -0.998  0.00  0.00     0.028 H 
ATOM     12  H3  <0> d          -5.473   3.725  -2.016  0.00  0.00     0.028 H 
ENDBRANCH   6   9
ENDBRANCH   4   6
ENDBRANCH   1   4
BRANCH   1  13
ATOM     13  C5  <0> d          -1.328   1.812   0.018  0.00  0.00    -0.044 C 
ATOM     14  H8  <0> d          -1.853   1.605   0.951  0.00  0.00     0.039 H 
ATOM     15  H9  <0> d          -1.145   2.883  -0.066  0.00  0.00     0.039 H 
BRANCH  13  16
ATOM     16  C6  <0> d          -0.013   1.076   0.008  0.00  0.00    -0.112 C 
ATOM     17  C7  <0> d           1.113   1.746   0.001  0.00  0.00    -0.125 C 
ATOM     18  H11 <0> d           1.098   2.826   0.007  0.00  0.00     0.066 H 
ATOM     19  H12 <0> d           2.055   1.219  -0.011  0.00  0.00     0.066 H 
ATOM     20  H10 <0> d           0.002  -0.004   0.002  0.00  0.00     0.075 H 
ENDBRANCH  13  16
ENDBRANCH   1  13
TORSDOF 5
