REMARK  3 active torsions:
REMARK  status: ('A' for Active; 'I' for Inactive)
REMARK    1  A    between atoms: C1_1  and  C2_2 
REMARK    2  A    between atoms: C2_2  and  N1_3 
REMARK    3  A    between atoms: C6_7  and  C7_8 
REMARK       I    between atoms: C7_8  and  N2_10 
ROOT
ATOM      1  N1  <0> d           0.688  -0.470  -1.206  0.00  0.00    -0.353 N 
ATOM      2  C3  <0> d           0.085  -0.915  -2.336  0.00  0.00    -0.020 A 
ATOM      3  C4  <0> d           1.038  -1.279  -3.227  0.00  0.00    -0.066 A 
ATOM      4  C5  <0> d           2.286  -1.054  -2.636  0.00  0.00    -0.050 A 
ATOM      5  C6  <0> d           2.052  -0.543  -1.377  0.00  0.00     0.102 A 
ATOM      6  H6  <0> d          -0.981  -0.971  -2.498  0.00  0.00     0.111 H 
ATOM      7  H7  <0> d           0.865  -1.673  -4.217  0.00  0.00     0.085 H 
ATOM      8  H8  <0> d           3.251  -1.241  -3.084  0.00  0.00     0.087 H 
ENDROOT
BRANCH   1   9
ATOM      9  C2  <0> d           0.002   0.015  -0.006  0.00  0.00    -0.004 C 
ATOM     10  H4  <0> d           0.535  -0.328   0.881  0.00  0.00     0.064 H 
ATOM     11  H5  <0> d          -1.017  -0.371   0.011  0.00  0.00     0.064 H 
BRANCH   9  12
ATOM     12  C1  <0> d          -0.032   1.545  -0.021  0.00  0.00    -0.061 C 
ATOM     13  H1  <0> d           0.987   1.931  -0.038  0.00  0.00     0.029 H 
ATOM     14  H2  <0> d          -0.565   1.887  -0.908  0.00  0.00     0.029 H 
ATOM     15  H3  <0> d          -0.542   1.905   0.872  0.00  0.00     0.029 H 
ENDBRANCH   9  12
ENDBRANCH   1   9
BRANCH   5  16
ATOM     16  C7  <0> d           3.071  -0.153  -0.397  0.00  0.00     0.266 C 
ATOM     17  O1  <0> d           2.738   0.192   0.722  0.00  0.00    -0.266 OA
ATOM     18  N2  <0> d           4.375  -0.177  -0.734  0.00  0.00    -0.365 N 
ATOM     19  H9  <0> d           4.636  -0.381  -1.646  0.00  0.00     0.159 HD
ATOM     20  H10 <0> d           5.053   0.009  -0.066  0.00  0.00     0.159 HD
ENDBRANCH   5  16
TORSDOF 3
