REMARK  3 active torsions:
REMARK  status: ('A' for Active; 'I' for Inactive)
REMARK    1  A    between atoms: C1_1  and  C2_2 
REMARK    2  A    between atoms: C2_2  and  O1_6 
REMARK    3  A    between atoms: O1_6  and  C4_7 
ROOT
ATOM      1  C2  <0> d          -0.016   1.464   0.004  0.00  0.00     0.124 C 
ATOM      2  H1  <0> d          -0.482   1.665  -0.961  0.00  0.00     0.107 H 
ATOM      3  C3  <0> d           0.001   0.012   0.246  0.00  0.00     0.091 C 
ATOM      4  N1  <0> d           0.015  -1.109   0.433  0.00  0.00    -0.195 NA
ENDROOT
BRANCH   1   5
ATOM      5  C1  <0> d          -0.815   2.156   1.110  0.00  0.00    -0.040 C 
ATOM      6  H2  <0> d          -0.829   3.231   0.930  0.00  0.00     0.032 H 
ATOM      7  H3  <0> d          -1.837   1.775   1.113  0.00  0.00     0.032 H 
ATOM      8  H4  <0> d          -0.350   1.954   2.075  0.00  0.00     0.032 H 
ENDBRANCH   1   5
BRANCH   1   9
ATOM      9  O1  <0> d           1.323   1.962  -0.000  0.00  0.00    -0.332 OA
BRANCH   9  10
ATOM     10  C4  <0> d           1.552   3.110  -0.691  0.00  0.00     0.070 A 
ATOM     11  C9  <0> d           2.845   3.591  -0.830  0.00  0.00    -0.051 A 
ATOM     12  C8  <0> d           3.076   4.758  -1.532  0.00  0.00    -0.080 A 
ATOM     13  H9  <0> d           3.672   3.053  -0.390  0.00  0.00     0.087 H 
ATOM     14  C7  <0> d           2.018   5.447  -2.096  0.00  0.00    -0.083 A 
ATOM     15  H8  <0> d           4.083   5.133  -1.641  0.00  0.00     0.083 H 
ATOM     16  C6  <0> d           0.727   4.970  -1.960  0.00  0.00    -0.080 A 
ATOM     17  H7  <0> d           2.200   6.359  -2.645  0.00  0.00     0.083 H 
ATOM     18  C5  <0> d           0.492   3.800  -1.262  0.00  0.00    -0.051 A 
ATOM     19  H6  <0> d          -0.097   5.509  -2.402  0.00  0.00     0.083 H 
ATOM     20  H5  <0> d          -0.515   3.425  -1.159  0.00  0.00     0.087 H 
ENDBRANCH   9  10
ENDBRANCH   1   9
TORSDOF 3
