REMARK  3 active torsions:
REMARK  status: ('A' for Active; 'I' for Inactive)
REMARK    1  A    between atoms: C1_1  and  C2_2 
REMARK    2  A    between atoms: C2_2  and  C3_3 
REMARK    3  A    between atoms: C3_3  and  C4_4 
ROOT
ATOM      1  C3  <0> d           0.742  -0.511   1.242  0.00  0.00    -0.002 C 
ATOM      2  H6  <0> d           1.765  -0.134   1.234  0.00  0.00     0.045 H 
ATOM      3  H7  <0> d           0.232  -0.159   2.138  0.00  0.00     0.045 H 
ENDROOT
BRANCH   1   4
ATOM      4  C2  <0> d           0.002  -0.004   0.002  0.00  0.00    -0.061 C 
ATOM      5  H4  <0> d          -1.020  -0.381   0.010  0.00  0.00     0.033 H 
ATOM      6  H5  <0> d           0.512  -0.356  -0.895  0.00  0.00     0.033 H 
BRANCH   4   7
ATOM      7  C1  <0> d          -0.019   1.526   0.010  0.00  0.00    -0.076 C 
ATOM      8  H1  <0> d           1.004   1.903   0.003  0.00  0.00     0.027 H 
ATOM      9  H2  <0> d          -0.546   1.887  -0.873  0.00  0.00     0.027 H 
ATOM     10  H3  <0> d          -0.529   1.877   0.907  0.00  0.00     0.027 H 
ENDBRANCH   4   7
ENDBRANCH   1   4
BRANCH   1  11
ATOM     11  C4  <0> d           0.762  -2.018   1.233  0.00  0.00     0.171 A 
ATOM     12  N1  <0> d           1.677  -2.771   0.696  0.00  0.00    -0.124 NA
ATOM     13  N2  <0> d           1.375  -4.009   0.878  0.00  0.00    -0.094 NA
ATOM     14  C5  <0> d           0.250  -4.087   1.542  0.00  0.00     0.342 A 
ATOM     15  O1  <0> d          -0.159  -2.829   1.786  0.00  0.00    -0.253 OA
ATOM     16  O2  <0> d          -0.382  -5.224   1.918  0.00  0.00    -0.139 OA
ENDBRANCH   1  11
TORSDOF 3
