REMARK  2 active torsions:
REMARK  status: ('A' for Active; 'I' for Inactive)
REMARK    1  A    between atoms: C1_1  and  C2_2 
REMARK    2  A    between atoms: C6_8  and  N4_12 
ROOT
ATOM      1  C2  <0> d          -0.718   1.572   1.248  0.00  0.00    -0.029 A 
ATOM      2  C3  <0> d          -2.031   1.826   1.375  0.00  0.00    -0.015 A 
ATOM      3  N1  <0> d          -2.301   2.247   2.651  0.00  0.00    -0.349 N 
ATOM      4  H1  <0> d          -3.180   2.487   2.983  0.00  0.00     0.166 HD
ATOM      5  C4  <0> d          -1.149   2.284   3.386  0.00  0.00     0.143 A 
ATOM      6  C5  <0> d          -0.104   1.863   2.542  0.00  0.00     0.063 A 
ATOM      7  C6  <0> d           1.199   1.811   3.058  0.00  0.00     0.137 A 
ATOM      8  N2  <0> d           1.390   2.163   4.327  0.00  0.00    -0.224 NA
ATOM      9  C7  <0> d           0.381   2.553   5.084  0.00  0.00     0.091 A 
ATOM     10  N3  <0> d          -0.857   2.616   4.643  0.00  0.00    -0.223 NA
ATOM     11  H5  <0> d          -2.764   1.713   0.590  0.00  0.00     0.112 H 
ATOM     12  H6  <0> d           0.580   2.830   6.109  0.00  0.00     0.146 H 
ENDROOT
BRANCH   1  13
ATOM     13  C1  <0> d          -0.013   1.086   0.008  0.00  0.00    -0.049 C 
ATOM     14  H2  <0> d           0.002  -0.004   0.002  0.00  0.00     0.033 H 
ATOM     15  H3  <0> d           1.010   1.463   0.000  0.00  0.00     0.033 H 
ATOM     16  H4  <0> d          -0.540   1.447  -0.875  0.00  0.00     0.033 H 
ENDBRANCH   1  13
BRANCH   7  17
ATOM     17  N4  <0> d           2.259   1.404   2.268  0.00  0.00    -0.383 N 
ATOM     18  H7  <0> d           2.106   1.149   1.345  0.00  0.00     0.157 HD
ATOM     19  H8  <0> d           3.155   1.372   2.638  0.00  0.00     0.157 HD
ENDBRANCH   7  17
TORSDOF 2
