REMARK  0 active torsions:
REMARK  status: ('A' for Active; 'I' for Inactive)
ROOT
ATOM      1  C1  <0> d          -0.061   4.651   0.027  0.00  0.00    -0.083 A 
ATOM      2  C2  <0> d           1.145   3.977   0.012  0.00  0.00    -0.082 A 
ATOM      3  C3  <0> d           1.165   2.595   0.005  0.00  0.00    -0.066 A 
ATOM      4  C4  <0> d          -0.024   1.887   0.012  0.00  0.00     0.011 A 
ATOM      5  C5  <0> d          -1.231   2.562   0.022  0.00  0.00    -0.066 A 
ATOM      6  C6  <0> d          -1.249   3.944   0.034  0.00  0.00    -0.082 A 
ATOM      7 Br1  <0> d           0.002  -0.004   0.002  0.00  0.00    -0.051 Br
ATOM      8  H1  <0> d          -0.076   5.731   0.032  0.00  0.00     0.083 H 
ATOM      9  H2  <0> d           2.073   4.530   0.006  0.00  0.00     0.083 H 
ATOM     10  H3  <0> d           2.107   2.068  -0.007  0.00  0.00     0.085 H 
ATOM     11  H4  <0> d          -2.159   2.010   0.024  0.00  0.00     0.085 H 
ATOM     12  H5  <0> d          -2.191   4.472   0.046  0.00  0.00     0.083 H 
ENDROOT
TORSDOF 0
