REMARK  1 active torsions:
REMARK  status: ('A' for Active; 'I' for Inactive)
REMARK    1  A    between atoms: C6_6  and  N1_7 
ROOT
ATOM      1  C1  <0> d           0.002  -0.004   0.002  0.00  0.00    -0.055 A 
ATOM      2  C2  <0> d          -0.017   1.375   0.010  0.00  0.00    -0.046 A 
ATOM      3  C3  <0> d           1.175   2.083   0.002  0.00  0.00     0.105 A 
ATOM      4  C4  <0> d           2.399   1.397  -0.013  0.00  0.00     0.094 A 
ATOM      5  C5  <0> d           2.409   0.002  -0.021  0.00  0.00    -0.027 A 
ATOM      6  C6  <0> d           1.213  -0.693  -0.013  0.00  0.00     0.028 A 
ATOM      7  N2  <0> d           3.375   2.345  -0.017  0.00  0.00    -0.234 NA
ATOM      8  C7  <0> d           2.818   3.519  -0.005  0.00  0.00     0.104 A 
ATOM      9  O1  <0> d           1.481   3.400   0.007  0.00  0.00    -0.302 OA
ATOM     10  H1  <0> d          -0.928  -0.553   0.008  0.00  0.00     0.087 H 
ATOM     11  H2  <0> d          -0.959   1.902   0.017  0.00  0.00     0.087 H 
ATOM     12  H3  <0> d           3.347  -0.534  -0.033  0.00  0.00     0.090 H 
ATOM     13  H6  <0> d           3.355   4.456  -0.004  0.00  0.00     0.155 H 
ENDROOT
BRANCH   6  14
ATOM     14  N1  <0> d           1.219  -2.091  -0.020  0.00  0.00    -0.399 N 
ATOM     15  H4  <0> d           0.381  -2.580  -0.015  0.00  0.00     0.156 HD
ATOM     16  H5  <0> d           2.061  -2.573  -0.031  0.00  0.00     0.156 HD
ENDBRANCH   6  14
TORSDOF 1
