REMARK  5 active torsions:
REMARK  status: ('A' for Active; 'I' for Inactive)
REMARK    1  A    between atoms: C1_1  and  C2_2 
REMARK    2  A    between atoms: C2_2  and  O1_3 
REMARK    3  A    between atoms: O1_3  and  C3_4 
REMARK    4  A    between atoms: C3_4  and  C4_5 
REMARK    5  A    between atoms: C6_10  and  N3_11 
ROOT
ATOM      1  C3  <0> d           2.510   1.444  -0.014  0.00  0.00     0.048 C 
ATOM      2  H7  <0> d           3.022   1.828   0.881  0.00  0.00     0.082 H 
ATOM      3  H8  <0> d           3.004   1.837  -0.915  0.00  0.00     0.082 H 
ENDROOT
BRANCH   1   4
ATOM      4  O1  <0> d           2.570   0.017  -0.022  0.00  0.00    -0.387 OA
BRANCH   4   5
ATOM      5  C2  <0> d           3.898  -0.510  -0.037  0.00  0.00     0.017 C 
ATOM      6  H5  <0> d           4.439  -0.167   0.858  0.00  0.00     0.073 H 
ATOM      7  H6  <0> d           4.421  -0.158  -0.939  0.00  0.00     0.073 H 
BRANCH   5   8
ATOM      8  C1  <0> d           3.841  -2.039  -0.044  0.00  0.00    -0.056 C 
ATOM      9  H2  <0> d           4.864  -2.444  -0.056  0.00  0.00     0.030 H 
ATOM     10  H3  <0> d           3.300  -2.381  -0.939  0.00  0.00     0.030 H 
ATOM     11  H4  <0> d           3.318  -2.390   0.857  0.00  0.00     0.030 H 
ENDBRANCH   5   8
ENDBRANCH   4   5
ENDBRANCH   1   4
BRANCH   1  12
ATOM     12  C4  <0> d           1.070   1.887   0.002  0.00  0.00     0.029 A 
ATOM     13  C6  <0> d           0.613   3.215   0.013  0.00  0.00     0.151 A 
ATOM     14  N2  <0> d          -0.699   3.193   0.025  0.00  0.00    -0.157 NA
ATOM     15  N1  <0> d          -1.114   1.855   0.017  0.00  0.00    -0.287 N 
ATOM     16  C5  <0> d          -0.013   1.076   0.008  0.00  0.00     0.008 A 
ATOM     17  H1  <0> d          -2.113   1.396   0.017  0.00  0.00     0.188 HD
ATOM     18  H9  <0> d           0.002  -0.004   0.002  0.00  0.00     0.114 H 
BRANCH  13  19
ATOM     19  N3  <0> d           1.417   4.361   0.011  0.00  0.00    -0.382 N 
ATOM     20  H10 <0> d           0.953   5.358   0.020  0.00  0.00     0.157 HD
ATOM     21  H11 <0> d           2.512   4.264  -0.000  0.00  0.00     0.157 HD
ENDBRANCH  13  19
ENDBRANCH   1  12
TORSDOF 5
