REMARK  9 active torsions:
REMARK  status: ('A' for Active; 'I' for Inactive)
REMARK    1  A    between atoms: C1_1  and  C2_2 
REMARK    2  A    between atoms: C2_2  and  C3_3 
REMARK    3  A    between atoms: C3_3  and  C4_5 
REMARK    4  A    between atoms: C3_3  and  O2_12 
REMARK    5  A    between atoms: C4_5  and  C5_6 
REMARK    6  A    between atoms: C5_6  and  C6_7 
REMARK    7  A    between atoms: C6_7  and  C7_9 
REMARK    8  A    between atoms: C6_7  and  O1_11 
REMARK    9  A    between atoms: C7_9  and  C8_10 
ROOT
ATOM      1  C4  <0> d           1.377   1.655   2.493  0.00  0.00    -0.039 C 
ATOM      2  H8  <0> d           1.353   2.744   2.453  0.00  0.00     0.036 H 
ATOM      3  H9  <0> d           0.358   1.270   2.545  0.00  0.00     0.036 H 
ENDROOT
BRANCH   1   4
ATOM      4  C3  <0> d           2.154   1.207   3.733  0.00  0.00     0.035 C 
ATOM      5  H1  <0> d           3.195   1.516   3.640  0.00  0.00     0.082 H 
BRANCH   4   6
ATOM      6  C2  <0> d           1.541   1.850   4.979  0.00  0.00    -0.044 C 
ATOM      7  H6  <0> d           1.511   2.932   4.852  0.00  0.00     0.036 H 
ATOM      8  H7  <0> d           0.529   1.472   5.121  0.00  0.00     0.036 H 
BRANCH   6   9
ATOM      9  C1  <0> d           2.392   1.503   6.202  0.00  0.00    -0.074 C 
ATOM     10  H3  <0> d           3.404   1.880   6.060  0.00  0.00     0.027 H 
ATOM     11  H4  <0> d           1.955   1.961   7.090  0.00  0.00     0.027 H 
ATOM     12  H5  <0> d           2.422   0.421   6.329  0.00  0.00     0.027 H 
ENDBRANCH   6   9
ENDBRANCH   4   6
BRANCH   4  13
ATOM     13  O2  <0> d           2.087  -0.215   3.849  0.00  0.00    -0.396 OA
ATOM     14  H18 <0> d           1.188  -0.561   3.935  0.00  0.00     0.210 HD
ENDBRANCH   4  13
ENDBRANCH   1   4
BRANCH   1  15
ATOM     15  C5  <0> d           2.064   1.114   1.238  0.00  0.00    -0.039 C 
ATOM     16  H10 <0> d           2.088   0.025   1.278  0.00  0.00     0.036 H 
ATOM     17  H11 <0> d           3.082   1.498   1.186  0.00  0.00     0.036 H 
BRANCH  15  18
ATOM     18  C6  <0> d           1.286   1.562  -0.002  0.00  0.00     0.035 C 
ATOM     19  H2  <0> d           1.186   2.647   0.005  0.00  0.00     0.082 H 
BRANCH  18  20
ATOM     20  C7  <0> d           2.040   1.127  -1.261  0.00  0.00    -0.044 C 
ATOM     21  H12 <0> d           3.059   1.512  -1.225  0.00  0.00     0.036 H 
ATOM     22  H13 <0> d           2.063   0.039  -1.313  0.00  0.00     0.036 H 
BRANCH  20  23
ATOM     23  C8  <0> d           1.329   1.682  -2.497  0.00  0.00    -0.074 C 
ATOM     24  H14 <0> d           1.866   1.372  -3.394  0.00  0.00     0.027 H 
ATOM     25  H15 <0> d           0.310   1.298  -2.533  0.00  0.00     0.027 H 
ATOM     26  H16 <0> d           1.306   2.770  -2.445  0.00  0.00     0.027 H 
ENDBRANCH  20  23
ENDBRANCH  18  20
BRANCH  18  27
ATOM     27  O1  <0> d          -0.011   0.963   0.007  0.00  0.00    -0.396 OA
ATOM     28  H17 <0> d           0.002  -0.004   0.002  0.00  0.00     0.210 HD
ENDBRANCH  18  27
ENDBRANCH  15  18
ENDBRANCH   1  15
TORSDOF 9
