REMARK  4 active torsions:
REMARK  status: ('A' for Active; 'I' for Inactive)
REMARK    1  A    between atoms: C1_1  and  C2_2 
REMARK    2  A    between atoms: C5_5  and  C6_7 
REMARK    3  A    between atoms: C6_7  and  C7_9 
REMARK    4  A    between atoms: C6_7  and  O1_10 
ROOT
ATOM      1  C2  <0> d          -3.927  -1.370   0.494  0.00  0.00    -0.021 A 
ATOM      2  C3  <0> d          -3.449  -1.420  -0.773  0.00  0.00    -0.070 A 
ATOM      3  C4  <0> d          -2.161  -0.982  -1.020  0.00  0.00    -0.067 A 
ATOM      4  C5  <0> d          -1.412  -0.526   0.013  0.00  0.00     0.011 A 
ATOM      5  S1  <0> d          -2.537  -0.696   1.388  0.00  0.00    -0.097 SA
ATOM      6  H5  <0> d          -4.065  -1.792  -1.577  0.00  0.00     0.085 H 
ATOM      7  H6  <0> d          -1.757  -1.006  -2.022  0.00  0.00     0.085 H 
ENDROOT
BRANCH   4   8
ATOM      8  C6  <0> d           0.002  -0.004   0.002  0.00  0.00     0.063 C 
ATOM      9  H1  <0> d           0.512  -0.356  -0.895  0.00  0.00     0.090 H 
BRANCH   8  10
ATOM     10  C7  <0> d          -0.019   1.526   0.010  0.00  0.00    -0.048 C 
ATOM     11  H7  <0> d           1.004   1.903   0.003  0.00  0.00     0.031 H 
ATOM     12  H8  <0> d          -0.546   1.887  -0.873  0.00  0.00     0.031 H 
ATOM     13  H9  <0> d          -0.529   1.877   0.907  0.00  0.00     0.031 H 
ENDBRANCH   8  10
BRANCH   8  14
ATOM     14  O1  <0> d           0.693  -0.477   1.160  0.00  0.00    -0.391 OA
ATOM     15  H10 <0> d           1.611  -0.180   1.219  0.00  0.00     0.210 HD
ENDBRANCH   8  14
ENDBRANCH   4   8
BRANCH   1  16
ATOM     16  C1  <0> d          -5.282  -1.778   1.014  0.00  0.00    -0.045 C 
ATOM     17  H2  <0> d          -5.327  -1.602   2.088  0.00  0.00     0.034 H 
ATOM     18  H3  <0> d          -6.054  -1.190   0.517  0.00  0.00     0.034 H 
ATOM     19  H4  <0> d          -5.445  -2.837   0.811  0.00  0.00     0.034 H 
ENDBRANCH   1  16
TORSDOF 4
