REMARK  3 active torsions:
REMARK  status: ('A' for Active; 'I' for Inactive)
REMARK    1  A    between atoms: C1_1  and  O1_2 
REMARK    2  A    between atoms: O1_2  and  C2_3 
REMARK    3  A    between atoms: C2_3  and  C3_4 
ROOT
ATOM      1  C3  <0> d           1.397   1.946  -0.001  0.00  0.00     0.057 A 
ATOM      2  C4  <0> d           2.453   1.056  -0.016  0.00  0.00    -0.057 A 
ATOM      3  C5  <0> d           3.750   1.546  -0.026  0.00  0.00    -0.080 A 
ATOM      4  C6  <0> d           3.936   2.920  -0.021  0.00  0.00    -0.066 A 
ATOM      5  C7  <0> d           2.831   3.749  -0.006  0.00  0.00     0.003 A 
ATOM      6  N1  <0> d           1.611   3.247  -0.001  0.00  0.00    -0.263 NA
ATOM      7  H6  <0> d           2.271  -0.009  -0.020  0.00  0.00     0.086 H 
ATOM      8  H7  <0> d           4.595   0.873  -0.037  0.00  0.00     0.083 H 
ATOM      9  H8  <0> d           4.932   3.337  -0.029  0.00  0.00     0.085 H 
ATOM     10  H9  <0> d           2.967   4.820  -0.002  0.00  0.00     0.114 H 
ENDROOT
BRANCH   1  11
ATOM     11  C2  <0> d          -0.017   1.425   0.010  0.00  0.00     0.059 C 
ATOM     12  H4  <0> d          -0.544   1.786  -0.873  0.00  0.00     0.084 H 
ATOM     13  H5  <0> d          -0.527   1.776   0.907  0.00  0.00     0.084 H 
BRANCH  11  14
ATOM     14  O1  <0> d           0.002  -0.004   0.002  0.00  0.00    -0.390 OA
BRANCH  14  15
ATOM     15  C1  <0> d          -1.295  -0.603   0.011  0.00  0.00     0.004 C 
ATOM     16  H1  <0> d          -1.849  -0.284  -0.872  0.00  0.00     0.066 H 
ATOM     17  H2  <0> d          -1.194  -1.688   0.004  0.00  0.00     0.066 H 
ATOM     18  H3  <0> d          -1.832  -0.294   0.908  0.00  0.00     0.066 H 
ENDBRANCH  14  15
ENDBRANCH  11  14
ENDBRANCH   1  11
TORSDOF 3
