REMARK  8 active torsions:
REMARK  status: ('A' for Active; 'I' for Inactive)
REMARK    1  A    between atoms: C1_1  and  C2_2 
REMARK    2  A    between atoms: C2_2  and  C3_3 
REMARK    3  A    between atoms: C3_3  and  C4_4 
REMARK    4  A    between atoms: C4_4  and  C5_5 
REMARK    5  A    between atoms: C5_5  and  N1_6 
REMARK       I    between atoms: N1_6  and  C6_7 
REMARK    6  A    between atoms: C6_7  and  C7_9 
REMARK    7  A    between atoms: C7_9  and  C8_10 
REMARK    8  A    between atoms: C8_10  and  C9_11 
ROOT
ATOM      1  C5  <0> d           2.422   1.183  -0.015  0.00  0.00    -0.005 C 
ATOM      2  H10 <0> d           2.497   0.553   0.871  0.00  0.00     0.064 H 
ATOM      3  H11 <0> d           2.480   0.562  -0.909  0.00  0.00     0.064 H 
ENDROOT
BRANCH   1   4
ATOM      4  C4  <0> d           3.571   2.193  -0.020  0.00  0.00    -0.050 C 
ATOM      5  H8  <0> d           3.497   2.824  -0.906  0.00  0.00     0.035 H 
ATOM      6  H9  <0> d           3.514   2.814   0.874  0.00  0.00     0.035 H 
BRANCH   4   7
ATOM      7  C3  <0> d           4.907   1.446  -0.037  0.00  0.00    -0.064 C 
ATOM      8  H6  <0> d           4.981   0.816   0.849  0.00  0.00     0.033 H 
ATOM      9  H7  <0> d           4.964   0.825  -0.931  0.00  0.00     0.033 H 
BRANCH   7  10
ATOM     10  C2  <0> d           6.056   2.456  -0.043  0.00  0.00    -0.068 C 
ATOM     11  H4  <0> d           5.981   3.087  -0.928  0.00  0.00     0.032 H 
ATOM     12  H5  <0> d           5.998   3.077   0.851  0.00  0.00     0.032 H 
BRANCH  10  13
ATOM     13  C1  <0> d           7.391   1.709  -0.059  0.00  0.00    -0.077 C 
ATOM     14  H1  <0> d           7.466   1.079   0.827  0.00  0.00     0.027 H 
ATOM     15  H2  <0> d           7.449   1.088  -0.953  0.00  0.00     0.027 H 
ATOM     16  H3  <0> d           8.210   2.429  -0.063  0.00  0.00     0.027 H 
ENDBRANCH  10  13
ENDBRANCH   7  10
ENDBRANCH   4   7
ENDBRANCH   1   4
BRANCH   1  17
ATOM     17  N1  <0> d           1.143   1.898   0.001  0.00  0.00    -0.361 N 
ATOM     18  C6  <0> d          -0.014   1.209   0.009  0.00  0.00     0.217 C 
ATOM     19  O1  <0> d           0.002  -0.004   0.002  0.00  0.00    -0.274 OA
ATOM     20  H12 <0> d           1.130   2.868   0.007  0.00  0.00     0.162 HD
BRANCH  18  21
ATOM     21  C7  <0> d          -1.330   1.944   0.019  0.00  0.00     0.009 C 
ATOM     22  H13 <0> d          -1.392   2.565   0.913  0.00  0.00     0.047 H 
ATOM     23  H14 <0> d          -1.400   2.575  -0.867  0.00  0.00     0.047 H 
BRANCH  21  24
ATOM     24  C8  <0> d          -2.479   0.934   0.019  0.00  0.00    -0.061 C 
ATOM     25  H15 <0> d          -2.417   0.313  -0.875  0.00  0.00     0.033 H 
ATOM     26  H16 <0> d          -2.408   0.304   0.905  0.00  0.00     0.033 H 
BRANCH  24  27
ATOM     27  C9  <0> d          -3.814   1.681   0.029  0.00  0.00    -0.076 C 
ATOM     28  H17 <0> d          -4.633   0.962   0.029  0.00  0.00     0.027 H 
ATOM     29  H18 <0> d          -3.876   2.302   0.923  0.00  0.00     0.027 H 
ATOM     30  H19 <0> d          -3.885   2.312  -0.857  0.00  0.00     0.027 H 
ENDBRANCH  24  27
ENDBRANCH  21  24
ENDBRANCH  18  21
ENDBRANCH   1  17
TORSDOF 8
