REMARK  6 active torsions:
REMARK  status: ('A' for Active; 'I' for Inactive)
REMARK    1  A    between atoms: C1_1  and  C2_2 
REMARK    2  A    between atoms: C2_2  and  O2_4 
REMARK    3  A    between atoms: O2_4  and  C3_5 
REMARK    4  A    between atoms: C3_5  and  C4_6 
REMARK    5  A    between atoms: C4_6  and  O4_8 
REMARK    6  A    between atoms: O4_8  and  C5_9 
ROOT
ATOM      1  C3  <0> d          -1.329   1.940   0.019  0.00  0.00     0.108 C 
ATOM      2  H4  <0> d          -1.391   2.561   0.913  0.00  0.00     0.090 H 
ATOM      3  H5  <0> d          -1.400   2.570  -0.867  0.00  0.00     0.090 H 
ENDROOT
BRANCH   1   4
ATOM      4  O2  <0> d          -2.420   0.981   0.019  0.00  0.00    -0.312 OA
BRANCH   4   5
ATOM      5  C2  <0> d          -3.667   1.477   0.028  0.00  0.00     0.255 C 
ATOM      6  O1  <0> d          -3.842   2.673   0.035  0.00  0.00    -0.266 OA
BRANCH   5   7
ATOM      7  C1  <0> d          -4.850   0.543   0.028  0.00  0.00     0.004 C 
ATOM      8  H1  <0> d          -4.498  -0.488   0.021  0.00  0.00     0.041 H 
ATOM      9  H2  <0> d          -5.449   0.716   0.922  0.00  0.00     0.041 H 
ATOM     10  H3  <0> d          -5.458   0.726  -0.858  0.00  0.00     0.041 H 
ENDBRANCH   5   7
ENDBRANCH   4   5
ENDBRANCH   1   4
BRANCH   1  11
ATOM     11  C4  <0> d          -0.014   1.204   0.009  0.00  0.00     0.282 C 
ATOM     12  O3  <0> d           0.002  -0.004   0.002  0.00  0.00    -0.263 OA
BRANCH  11  13
ATOM     13  O4  <0> d           1.139   1.891   0.001  0.00  0.00    -0.325 OA
BRANCH  13  14
ATOM     14  C5  <0> d           2.367   1.117  -0.015  0.00  0.00     0.013 C 
ATOM     15  H6  <0> d           3.223   1.792  -0.019  0.00  0.00     0.067 H 
ATOM     16  H7  <0> d           2.409   0.484   0.872  0.00  0.00     0.067 H 
ATOM     17  H8  <0> d           2.392   0.493  -0.908  0.00  0.00     0.067 H 
ENDBRANCH  13  14
ENDBRANCH  11  13
ENDBRANCH   1  11
TORSDOF 6
