REMARK  5 active torsions:
REMARK  status: ('A' for Active; 'I' for Inactive)
REMARK    1  A    between atoms: C1_1  and  O1_2 
REMARK    2  A    between atoms: O1_2  and  C2_3 
REMARK    3  A    between atoms: C2_3  and  C3_4 
REMARK    4  A    between atoms: C2_3  and  O2_10 
REMARK    5  A    between atoms: O2_10  and  C7_11 
ROOT
ATOM      1  C2  <0> d          -2.351   0.713   0.331  0.00  0.00     0.172 C 
ATOM      2  H4  <0> d          -2.674   0.214   1.244  0.00  0.00     0.139 H 
ENDROOT
BRANCH   1   3
ATOM      3  O1  <0> d          -3.244   1.789   0.035  0.00  0.00    -0.360 OA
BRANCH   3   4
ATOM      4  C1  <0> d          -4.602   1.534   0.399  0.00  0.00     0.007 C 
ATOM      5  H1  <0> d          -5.233   2.346   0.039  0.00  0.00     0.066 H 
ATOM      6  H2  <0> d          -4.928   0.595  -0.047  0.00  0.00     0.066 H 
ATOM      7  H3  <0> d          -4.680   1.467   1.484  0.00  0.00     0.066 H 
ENDBRANCH   3   4
ENDBRANCH   1   3
BRANCH   1   8
ATOM      8  C3  <0> d          -0.957   1.254   0.518  0.00  0.00     0.091 A 
ATOM      9  N2  <0> d          -0.770   2.475   0.991  0.00  0.00    -0.241 NA
ATOM     10  C6  <0> d           0.446   2.958   1.152  0.00  0.00     0.086 A 
ATOM     11  N1  <0> d           1.518   2.250   0.859  0.00  0.00    -0.254 NA
ATOM     12  H7  <0> d           0.567   3.960   1.536  0.00  0.00     0.146 H 
ATOM     13  C5  <0> d           1.409   1.018   0.388  0.00  0.00     0.005 A 
ATOM     14  C4  <0> d           0.146   0.476   0.204  0.00  0.00    -0.037 A 
ATOM     15  H6  <0> d           2.291   0.443   0.149  0.00  0.00     0.114 H 
ATOM     16  H5  <0> d           0.025  -0.527  -0.179  0.00  0.00     0.089 H 
ENDBRANCH   1   8
BRANCH   1  17
ATOM     17  O2  <0> d          -2.358  -0.222  -0.750  0.00  0.00    -0.360 OA
BRANCH  17  18
ATOM     18  C7  <0> d          -3.538  -1.024  -0.818  0.00  0.00     0.007 C 
ATOM     19  H8  <0> d          -3.356  -1.886  -1.460  0.00  0.00     0.066 H 
ATOM     20  H9  <0> d          -3.803  -1.367   0.183  0.00  0.00     0.066 H 
ATOM     21  H10 <0> d          -4.357  -0.432  -1.227  0.00  0.00     0.066 H 
ENDBRANCH  17  18
ENDBRANCH   1  17
TORSDOF 5
