REMARK  2 active torsions:
REMARK  status: ('A' for Active; 'I' for Inactive)
REMARK    1  A    between atoms: C3_3  and  S1_7 
REMARK    2  A    between atoms: S1_7  and  N2_10 
ROOT
ATOM      1  C1  <0> d          -0.013   1.076   0.008  0.00  0.00    -0.065 A 
ATOM      2  C2  <0> d           1.174   1.794   0.001  0.00  0.00    -0.058 A 
ATOM      3  C3  <0> d           1.107   3.179   0.009  0.00  0.00     0.096 A 
ATOM      4  C4  <0> d          -0.132   3.793   0.024  0.00  0.00     0.024 A 
ATOM      5  N1  <0> d          -1.239   3.078   0.030  0.00  0.00    -0.272 NA
ATOM      6  C5  <0> d          -1.214   1.759   0.017  0.00  0.00     0.002 A 
ATOM      7  H1  <0> d           0.002  -0.004   0.002  0.00  0.00     0.085 H 
ATOM      8  H2  <0> d           2.127   1.287  -0.012  0.00  0.00     0.086 H 
ATOM      9  H3  <0> d          -0.193   4.871   0.030  0.00  0.00     0.117 H 
ATOM     10  H4  <0> d          -2.142   1.207   0.018  0.00  0.00     0.114 H 
ENDROOT
BRANCH   3  11
ATOM     11  S1  <0> d           2.581   4.144   0.000  0.00  0.00     0.258 S 
ATOM     12  O1  <0> d           2.244   5.405   0.561  0.00  0.00    -0.201 OA
ATOM     13  O2  <0> d           3.608   3.321   0.537  0.00  0.00    -0.201 OA
BRANCH  11  14
ATOM     14  N2  <0> d           2.976   4.420  -1.584  0.00  0.00    -0.324 N 
ATOM     15  H5  <0> d           2.418   4.063  -2.292  0.00  0.00     0.169 HD
ATOM     16  H6  <0> d           3.766   4.939  -1.803  0.00  0.00     0.169 HD
ENDBRANCH  11  14
ENDBRANCH   3  11
TORSDOF 2
