REMARK  2 active torsions:
REMARK  status: ('A' for Active; 'I' for Inactive)
REMARK    1  A    between atoms: C1_1  and  C2_2 
REMARK    2  A    between atoms: C2_2  and  C3_4 
ROOT
ATOM      1  C3  <0> d          -0.017   1.394   0.010  0.00  0.00     0.140 A 
ATOM      2  C4  <0> d           0.002  -0.004   0.002  0.00  0.00     0.148 A 
ATOM      3  C5  <0> d           1.226  -0.660  -0.013  0.00  0.00    -0.042 A 
ATOM      4  C6  <0> d           2.383   0.101  -0.020  0.00  0.00    -0.063 A 
ATOM      5  C7  <0> d           2.289   1.485  -0.012  0.00  0.00     0.003 A 
ATOM      6  N1  <0> d           1.120   2.084   0.003  0.00  0.00    -0.254 NA
ATOM      7  F1  <0> d          -1.152  -0.706   0.009  0.00  0.00    -0.203 F 
ATOM      8  H4  <0> d           1.275  -1.739  -0.020  0.00  0.00     0.088 H 
ATOM      9  H5  <0> d           3.351  -0.379  -0.033  0.00  0.00     0.085 H 
ATOM     10  H6  <0> d           3.191   2.079  -0.017  0.00  0.00     0.114 H 
ENDROOT
BRANCH   1  11
ATOM     11  C2  <0> d          -1.306   2.108   0.020  0.00  0.00     0.177 C 
ATOM     12  O1  <0> d          -2.345   1.484   0.021  0.00  0.00    -0.291 OA
BRANCH  11  13
ATOM     13  C1  <0> d          -1.332   3.615   0.028  0.00  0.00    -0.015 C 
ATOM     14  H1  <0> d          -0.395   3.965   0.025  0.00  0.00     0.038 H 
ATOM     15  H2  <0> d          -1.856   3.974  -0.858  0.00  0.00     0.038 H 
ATOM     16  H3  <0> d          -1.848   3.965   0.922  0.00  0.00     0.038 H 
ENDBRANCH  11  13
ENDBRANCH   1  11
TORSDOF 2
