REMARK  3 active torsions:
REMARK  status: ('A' for Active; 'I' for Inactive)
REMARK    1  A    between atoms: C1_1  and  C2_2 
REMARK    2  A    between atoms: C5_5  and  N2_9 
REMARK    3  A    between atoms: C6_6  and  N1_8 
ROOT
ATOM      1  C2  <0> d           0.002  -0.004   0.002  0.00  0.00    -0.060 A 
ATOM      2  C3  <0> d           0.006  -0.687  -1.200  0.00  0.00    -0.075 A 
ATOM      3  C4  <0> d           0.025  -2.069  -1.215  0.00  0.00    -0.055 A 
ATOM      4  C5  <0> d           0.040  -2.775  -0.021  0.00  0.00     0.052 A 
ATOM      5  C6  <0> d           0.037  -2.086   1.192  0.00  0.00     0.052 A 
ATOM      6  C7  <0> d           0.023  -0.700   1.197  0.00  0.00    -0.050 A 
ATOM      7  H4  <0> d          -0.006  -0.139  -2.131  0.00  0.00     0.084 H 
ATOM      8  H5  <0> d           0.027  -2.599  -2.156  0.00  0.00     0.087 H 
ATOM      9  H6  <0> d           0.025  -0.163   2.134  0.00  0.00     0.087 H 
ENDROOT
BRANCH   1  10
ATOM     10  C1  <0> d          -0.018   1.503   0.010  0.00  0.00    -0.051 C 
ATOM     11  H1  <0> d           1.004   1.880   0.003  0.00  0.00     0.033 H 
ATOM     12  H2  <0> d          -0.545   1.864  -0.873  0.00  0.00     0.033 H 
ATOM     13  H3  <0> d          -0.529   1.854   0.907  0.00  0.00     0.033 H 
ENDBRANCH   1  10
BRANCH   5  14
ATOM     14  N1  <0> d           0.052  -2.793   2.400  0.00  0.00    -0.397 N 
ATOM     15  H7  <0> d           0.065  -3.763   2.395  0.00  0.00     0.156 HD
ATOM     16  H8  <0> d           0.050  -2.313   3.243  0.00  0.00     0.156 HD
ENDBRANCH   5  14
BRANCH   4  17
ATOM     17  N2  <0> d           0.059  -4.175  -0.034  0.00  0.00    -0.397 N 
ATOM     18  H9  <0> d           0.060  -4.652  -0.878  0.00  0.00     0.156 HD
ATOM     19  H10 <0> d           0.070  -4.667   0.802  0.00  0.00     0.156 HD
ENDBRANCH   4  17
TORSDOF 3
