REMARK  6 active torsions:
REMARK  status: ('A' for Active; 'I' for Inactive)
REMARK    1  A    between atoms: C1_1  and  C2_2 
REMARK    2  A    between atoms: C2_2  and  C3_3 
REMARK    3  A    between atoms: C3_3  and  C4_4 
REMARK    4  A    between atoms: C3_3  and  C5_5 
REMARK    5  A    between atoms: C3_3  and  O2_8 
REMARK    6  A    between atoms: C5_5  and  C6_7 
ROOT
ATOM      1  C3  <0> d           0.002  -0.004   0.002  0.00  0.00     0.113 C 
ENDROOT
BRANCH   1   2
ATOM      2  C2  <0> d           0.718  -0.497  -1.257  0.00  0.00    -0.033 C 
ATOM      3  H4  <0> d           1.741  -0.120  -1.264  0.00  0.00     0.037 H 
ATOM      4  H5  <0> d           0.733  -1.587  -1.263  0.00  0.00     0.037 H 
BRANCH   2   5
ATOM      5  C1  <0> d          -0.022   0.009  -2.496  0.00  0.00    -0.073 C 
ATOM      6  H1  <0> d          -1.044  -0.368  -2.489  0.00  0.00     0.027 H 
ATOM      7  H2  <0> d          -0.037   1.099  -2.490  0.00  0.00     0.027 H 
ATOM      8  H3  <0> d           0.488  -0.342  -3.393  0.00  0.00     0.027 H 
ENDBRANCH   2   5
ENDBRANCH   1   2
BRANCH   1   9
ATOM      9  C4  <0> d          -1.433  -0.534   0.013  0.00  0.00    -0.041 C 
ATOM     10  H6  <0> d          -1.960  -0.173  -0.870  0.00  0.00     0.032 H 
ATOM     11  H7  <0> d          -1.419  -1.623   0.007  0.00  0.00     0.032 H 
ATOM     12  H8  <0> d          -1.944  -0.182   0.910  0.00  0.00     0.032 H 
ENDBRANCH   1   9
BRANCH   1  13
ATOM     13  C5  <0> d           0.731  -0.503   1.223  0.00  0.00     0.156 C 
ATOM     14  O1  <0> d           1.405  -1.503   1.157  0.00  0.00    -0.295 OA
BRANCH  13  15
ATOM     15  C6  <0> d           0.618   0.245   2.526  0.00  0.00    -0.018 C 
ATOM     16  H9  <0> d           0.026   1.041   2.403  0.00  0.00     0.037 H 
ATOM     17  H10 <0> d           0.192  -0.411   3.286  0.00  0.00     0.037 H 
ATOM     18  H11 <0> d           1.608   0.574   2.843  0.00  0.00     0.037 H 
ENDBRANCH  13  15
ENDBRANCH   1  13
BRANCH   1  19
ATOM     19  O2  <0> d          -0.017   1.425   0.010  0.00  0.00    -0.383 OA
ATOM     20  H12 <0> d           0.861   1.830   0.004  0.00  0.00     0.211 HD
ENDBRANCH   1  19
TORSDOF 6
