REMARK  3 active torsions:
REMARK  status: ('A' for Active; 'I' for Inactive)
REMARK    1  A    between atoms: C1_1  and  C2_2 
REMARK    2  A    between atoms: C5_5  and  C7_8 
REMARK    3  A    between atoms: N1_6  and  C6_7 
ROOT
ATOM      1  C2  <0> d           2.689   3.642  -0.004  0.00  0.00     0.008 A 
ATOM      2  C3  <0> d           3.412   2.495  -0.017  0.00  0.00    -0.059 A 
ATOM      3  C4  <0> d           2.515   1.423  -0.008  0.00  0.00    -0.048 A 
ATOM      4  C5  <0> d           1.244   1.962   0.001  0.00  0.00     0.111 A 
ATOM      5  N1  <0> d           1.376   3.332   0.007  0.00  0.00    -0.350 N 
ATOM      6  H4  <0> d           4.489   2.423  -0.028  0.00  0.00     0.086 H 
ATOM      7  H5  <0> d           2.768   0.373  -0.010  0.00  0.00     0.087 H 
ENDROOT
BRANCH   1   8
ATOM      8  C1  <0> d           3.260   5.036  -0.002  0.00  0.00    -0.037 C 
ATOM      9  H1  <0> d           3.408   5.367   1.026  0.00  0.00     0.035 H 
ATOM     10  H2  <0> d           4.217   5.038  -0.525  0.00  0.00     0.035 H 
ATOM     11  H3  <0> d           2.570   5.712  -0.506  0.00  0.00     0.035 H 
ENDBRANCH   1   8
BRANCH   5  12
ATOM     12  C6  <0> d           0.272   4.296   0.022  0.00  0.00    -0.014 C 
ATOM     13  H6  <0> d           0.008   4.529   1.054  0.00  0.00     0.057 H 
ATOM     14  H7  <0> d           0.579   5.208  -0.489  0.00  0.00     0.057 H 
ATOM     15  H8  <0> d          -0.592   3.867  -0.486  0.00  0.00     0.057 H 
ENDBRANCH   5  12
BRANCH   4  16
ATOM     16  C7  <0> d          -0.014   1.212   0.009  0.00  0.00     0.227 C 
ATOM     17  O1  <0> d           0.002  -0.004   0.002  0.00  0.00    -0.643 OA
ATOM     18  O2  <0> d          -1.192   1.871   0.018  0.00  0.00    -0.643 OA
ENDBRANCH   4  16
TORSDOF 3
