REMARK  6 active torsions:
REMARK  status: ('A' for Active; 'I' for Inactive)
REMARK    1  A    between atoms: C1_1  and  C2_2 
REMARK    2  A    between atoms: C2_2  and  C3_4 
REMARK    3  A    between atoms: C2_2  and  C5_6 
REMARK    4  A    between atoms: C5_6  and  C6_7 
REMARK    5  A    between atoms: C5_6  and  C7_8 
REMARK    6  A    between atoms: C5_6  and  C8_9 
ROOT
ATOM      1  C5  <0> d           0.718  -0.497  -1.257  0.00  0.00    -0.045 C 
ENDROOT
BRANCH   1   2
ATOM      2  C2  <0> d           0.002  -0.004   0.002  0.00  0.00    -0.036 C 
ATOM      3  H1  <0> d          -1.020  -0.381   0.010  0.00  0.00     0.046 H 
BRANCH   2   4
ATOM      4  C1  <0> d          -0.019   1.526   0.010  0.00  0.00    -0.069 C 
ATOM      5  H2  <0> d           1.004   1.903   0.003  0.00  0.00     0.028 H 
ATOM      6  H3  <0> d          -0.546   1.887  -0.873  0.00  0.00     0.028 H 
ATOM      7  H4  <0> d          -0.529   1.877   0.907  0.00  0.00     0.028 H 
ENDBRANCH   2   4
BRANCH   2   8
ATOM      8  C3  <0> d           0.731  -0.503   1.223  0.00  0.00    -0.108 C 
ATOM      9  C4  <0> d           0.113  -1.270   2.087  0.00  0.00    -0.124 C 
ATOM     10  H6  <0> d           0.635  -1.627   2.962  0.00  0.00     0.066 H 
ATOM     11  H7  <0> d          -0.919  -1.544   1.925  0.00  0.00     0.066 H 
ATOM     12  H5  <0> d           1.763  -0.229   1.385  0.00  0.00     0.076 H 
ENDBRANCH   2   8
ENDBRANCH   1   2
BRANCH   1  13
ATOM     13  C6  <0> d           2.154   0.032  -1.268  0.00  0.00    -0.069 C 
ATOM     14  H8  <0> d           2.681  -0.329  -0.385  0.00  0.00     0.028 H 
ATOM     15  H9  <0> d           2.664  -0.319  -2.164  0.00  0.00     0.028 H 
ATOM     16  H10 <0> d           2.139   1.122  -1.262  0.00  0.00     0.028 H 
ENDBRANCH   1  13
BRANCH   1  17
ATOM     17  C7  <0> d           0.739  -2.027  -1.265  0.00  0.00    -0.069 C 
ATOM     18  H11 <0> d          -0.284  -2.405  -1.258  0.00  0.00     0.028 H 
ATOM     19  H12 <0> d           1.249  -2.379  -2.162  0.00  0.00     0.028 H 
ATOM     20  H13 <0> d           1.266  -2.388  -0.382  0.00  0.00     0.028 H 
ENDBRANCH   1  17
BRANCH   1  21
ATOM     21  C8  <0> d          -0.022   0.009  -2.496  0.00  0.00    -0.069 C 
ATOM     22  H14 <0> d          -0.037   1.099  -2.490  0.00  0.00     0.028 H 
ATOM     23  H15 <0> d           0.488  -0.342  -3.393  0.00  0.00     0.028 H 
ATOM     24  H16 <0> d          -1.044  -0.368  -2.489  0.00  0.00     0.028 H 
ENDBRANCH   1  21
TORSDOF 6
