REMARK  3 active torsions:
REMARK  status: ('A' for Active; 'I' for Inactive)
REMARK    1  A    between atoms: C1_1  and  C2_2 
REMARK    2  A    between atoms: C4_4  and  O2_10 
REMARK    3  A    between atoms: C5_5  and  C7_8 
ROOT
ATOM      1  C2  <0> d           1.263   5.793   0.020  0.00  0.00     0.033 A 
ATOM      2  C3  <0> d           2.470   5.125   0.005  0.00  0.00    -0.026 A 
ATOM      3  C4  <0> d           2.476   3.733  -0.002  0.00  0.00     0.086 A 
ATOM      4  C5  <0> d           1.238   3.064   0.007  0.00  0.00     0.091 A 
ATOM      5  C6  <0> d           0.066   3.821   0.016  0.00  0.00     0.022 A 
ATOM      6  N1  <0> d           0.117   5.136   0.027  0.00  0.00    -0.265 NA
ATOM      7  H4  <0> d           3.399   5.676  -0.001  0.00  0.00     0.090 H 
ATOM      8  H5  <0> d          -0.893   3.323   0.018  0.00  0.00     0.116 H 
ENDROOT
BRANCH   1   9
ATOM      9  C1  <0> d           1.252   7.300   0.028  0.00  0.00    -0.035 C 
ATOM     10  H1  <0> d           1.240   7.669  -0.998  0.00  0.00     0.035 H 
ATOM     11  H2  <0> d           0.364   7.654   0.552  0.00  0.00     0.035 H 
ATOM     12  H3  <0> d           2.144   7.668   0.535  0.00  0.00     0.035 H 
ENDBRANCH   1   9
BRANCH   3  13
ATOM     13  O2  <0> d           3.642   3.042  -0.015  0.00  0.00    -0.359 OA
ATOM     14  H6  <0> d           3.972   2.846  -0.903  0.00  0.00     0.217 HD
ENDBRANCH   3  13
BRANCH   4  15
ATOM     15  C7  <0> d           1.181   1.591  -0.001  0.00  0.00     0.213 C 
ATOM     16  O1  <0> d           2.209   0.943  -0.014  0.00  0.00    -0.644 OA
ATOM     17  O3  <0> d          -0.011   0.963   0.007  0.00  0.00    -0.644 OA
ENDBRANCH   4  15
TORSDOF 3
