REMARK  2 active torsions:
REMARK  status: ('A' for Active; 'I' for Inactive)
REMARK    1  A    between atoms: C1_1  and  C2_2 
REMARK    2  A    between atoms: C2_2  and  C3_4 
ROOT
ATOM      1  C3  <0> d          -1.293  -0.775   0.010  0.00  0.00     0.090 A 
ATOM      2  H1  <0> d          -2.060  -0.245  -0.554  0.00  0.00     0.067 H 
ATOM      3  C4  <0> d          -1.085  -2.198  -0.552  0.00  0.00     0.017 A 
ATOM      4  C5  <0> d          -1.452  -3.087   0.617  0.00  0.00     0.181 A 
ATOM      5  O2  <0> d          -1.425  -4.428   0.606  0.00  0.00    -0.175 OA
ATOM      6  N1  <0> d          -1.796  -2.353   1.633  0.00  0.00    -0.190 NA
ATOM      7  C6  <0> d          -1.754  -1.034   1.430  0.00  0.00     0.257 A 
ATOM      8  O3  <0> d          -2.037  -0.181   2.246  0.00  0.00    -0.270 OA
ATOM      9  H5  <0> d          -1.750  -2.379  -1.397  0.00  0.00     0.047 H 
ATOM     10  H6  <0> d          -0.045  -2.350  -0.840  0.00  0.00     0.047 H 
ENDROOT
BRANCH   1  11
ATOM     11  C2  <0> d           0.002  -0.004   0.002  0.00  0.00     0.136 C 
ATOM     12  O1  <0> d           1.056  -0.594  -0.011  0.00  0.00    -0.297 OA
BRANCH  11  13
ATOM     13  C1  <0> d          -0.018   1.503   0.010  0.00  0.00    -0.020 C 
ATOM     14  H2  <0> d           1.004   1.880   0.003  0.00  0.00     0.037 H 
ATOM     15  H3  <0> d          -0.545   1.864  -0.873  0.00  0.00     0.037 H 
ATOM     16  H4  <0> d          -0.529   1.854   0.907  0.00  0.00     0.037 H 
ENDBRANCH  11  13
ENDBRANCH   1  11
TORSDOF 2
