REMARK  1 active torsions:
REMARK  status: ('A' for Active; 'I' for Inactive)
REMARK    1  A    between atoms: C3_3  and  C5_7 
ROOT
ATOM      1  C1  <0> d          -0.016   1.348   0.009  0.00  0.00    -0.066 A 
ATOM      2  C2  <0> d           1.313   1.793  -0.001  0.00  0.00    -0.052 A 
ATOM      3  C3  <0> d           2.112   0.686  -0.014  0.00  0.00     0.084 A 
ATOM      4  N1  <0> d           1.298  -0.419  -0.013  0.00  0.00    -0.363 N 
ATOM      5  H1  <0> d           1.596  -1.342  -0.020  0.00  0.00     0.165 HD
ATOM      6  C4  <0> d           0.002  -0.004   0.002  0.00  0.00    -0.022 A 
ATOM      7  H2  <0> d          -0.897   1.973   0.025  0.00  0.00     0.085 H 
ATOM      8  H3  <0> d           1.644   2.821   0.001  0.00  0.00     0.087 H 
ATOM      9  H4  <0> d          -0.866  -0.646   0.007  0.00  0.00     0.111 H 
ENDROOT
BRANCH   3  10
ATOM     10  C5  <0> d           3.585   0.679  -0.029  0.00  0.00     0.223 A 
ATOM     11  N5  <0> d           4.380  -0.395  -0.042  0.00  0.00    -0.104 NA
ATOM     12  N4  <0> d           5.599   0.026  -0.055  0.00  0.00    -0.021 NA
ATOM     13  N3  <0> d           5.605   1.313  -0.042  0.00  0.00    -0.021 NA
ATOM     14  N2  <0> d           4.391   1.746  -0.025  0.00  0.00    -0.104 NA
ENDBRANCH   3  10
TORSDOF 1
