REMARK  5 active torsions:
REMARK  status: ('A' for Active; 'I' for Inactive)
REMARK    1  A    between atoms: C1_1  and  N1_2 
REMARK    2  A    between atoms: C2_3  and  C7_9 
REMARK    3  A    between atoms: C5_6  and  C6_7 
REMARK    4  A    between atoms: C6_7  and  O1_8 
REMARK    5  A    between atoms: C7_9  and  O2_10 
ROOT
ATOM      1  N1  <0> d           0.002  -0.004   0.002  0.00  0.00    -0.354 N 
ATOM      2  C2  <0> d           0.008  -0.792  -1.110  0.00  0.00     0.035 A 
ATOM      3  C3  <0> d           0.027  -2.081  -0.714  0.00  0.00    -0.057 A 
ATOM      4  C4  <0> d           0.033  -2.089   0.695  0.00  0.00    -0.057 A 
ATOM      5  C5  <0> d           0.023  -0.804   1.106  0.00  0.00     0.035 A 
ATOM      6  H4  <0> d           0.036  -2.948  -1.358  0.00  0.00     0.086 H 
ATOM      7  H5  <0> d           0.048  -2.963   1.329  0.00  0.00     0.086 H 
ENDROOT
BRANCH   2   8
ATOM      8  C7  <0> d          -0.005  -0.307  -2.537  0.00  0.00     0.054 C 
ATOM      9  H9  <0> d          -0.904   0.284  -2.712  0.00  0.00     0.083 H 
ATOM     10  H10 <0> d           0.875   0.309  -2.720  0.00  0.00     0.083 H 
BRANCH   8  11
ATOM     11  O2  <0> d           0.007  -1.429  -3.422  0.00  0.00    -0.395 OA
ATOM     12  H11 <0> d          -0.001  -1.191  -4.359  0.00  0.00     0.209 HD
ENDBRANCH   8  11
ENDBRANCH   2   8
BRANCH   1  13
ATOM     13  C1  <0> d          -0.018   1.461   0.010  0.00  0.00    -0.014 C 
ATOM     14  H1  <0> d           1.005   1.838   0.002  0.00  0.00     0.057 H 
ATOM     15  H2  <0> d          -0.545   1.822  -0.873  0.00  0.00     0.057 H 
ATOM     16  H3  <0> d          -0.528   1.812   0.907  0.00  0.00     0.057 H 
ENDBRANCH   1  13
BRANCH   5  17
ATOM     17  C6  <0> d           0.031  -0.335   2.538  0.00  0.00     0.054 C 
ATOM     18  H6  <0> d           0.915   0.279   2.714  0.00  0.00     0.083 H 
ATOM     19  H7  <0> d          -0.865   0.255   2.731  0.00  0.00     0.083 H 
BRANCH  17  20
ATOM     20  O1  <0> d           0.055  -1.466   3.410  0.00  0.00    -0.395 OA
ATOM     21  H8  <0> d           0.061  -1.238   4.350  0.00  0.00     0.209 HD
ENDBRANCH  17  20
ENDBRANCH   5  17
TORSDOF 5
