REMARK  2 active torsions:
REMARK  status: ('A' for Active; 'I' for Inactive)
REMARK    1  A    between atoms: C1_1  and  C2_2 
REMARK    2  A    between atoms: C2_2  and  C3_3 
ROOT
ATOM      1  C3  <0> d          -0.745   3.113   0.026  0.00  0.00     0.110 A 
ATOM      2  N1  <0> d          -1.098   1.850   0.017  0.00  0.00    -0.245 NA
ATOM      3  C4  <0> d          -0.013   1.076   0.008  0.00  0.00     0.032 A 
ATOM      4  C5  <0> d           1.087   1.907   0.002  0.00  0.00     0.075 A 
ATOM      5  N2  <0> d           0.595   3.202   0.014  0.00  0.00    -0.306 N 
ATOM      6  C6  <0> d           1.488   4.246   0.011  0.00  0.00     0.004 A 
ATOM      7  C7  <0> d           2.810   3.993  -0.003  0.00  0.00     0.017 A 
ATOM      8  N3  <0> d           3.284   2.741  -0.015  0.00  0.00    -0.269 NA
ATOM      9  C8  <0> d           2.479   1.704  -0.013  0.00  0.00     0.029 A 
ATOM     10  H6  <0> d           0.002  -0.004   0.002  0.00  0.00     0.118 H 
ATOM     11  H7  <0> d           1.131   5.265   0.021  0.00  0.00     0.114 H 
ATOM     12  H8  <0> d           3.505   4.819  -0.006  0.00  0.00     0.116 H 
ATOM     13  H9  <0> d           2.883   0.703  -0.022  0.00  0.00     0.118 H 
ENDROOT
BRANCH   1  14
ATOM     14  C2  <0> d          -1.695   4.282   0.041  0.00  0.00    -0.013 C 
ATOM     15  H4  <0> d          -2.610   4.001   0.562  0.00  0.00     0.044 H 
ATOM     16  H5  <0> d          -1.229   5.123   0.554  0.00  0.00     0.044 H 
BRANCH  14  17
ATOM     17  C1  <0> d          -2.031   4.685  -1.397  0.00  0.00    -0.070 C 
ATOM     18  H1  <0> d          -2.718   5.531  -1.386  0.00  0.00     0.028 H 
ATOM     19  H2  <0> d          -1.116   4.967  -1.918  0.00  0.00     0.028 H 
ATOM     20  H3  <0> d          -2.497   3.844  -1.910  0.00  0.00     0.028 H 
ENDBRANCH  14  17
ENDBRANCH   1  14
TORSDOF 2
