REMARK  0 active torsions:
REMARK  status: ('A' for Active; 'I' for Inactive)
ROOT
ATOM      1  C1  <0> d          -0.017   1.384   0.010  0.00  0.00    -0.058 A 
ATOM      2  C2  <0> d           1.181   2.073   0.002  0.00  0.00     0.002 A 
ATOM      3  N1  <0> d           2.330   1.427  -0.014  0.00  0.00    -0.273 NA
ATOM      4  C3  <0> d           2.384   0.110  -0.023  0.00  0.00     0.008 A 
ATOM      5  C4  <0> d           1.224  -0.646  -0.017  0.00  0.00    -0.031 A 
ATOM      6  C5  <0> d           0.002  -0.004   0.002  0.00  0.00    -0.024 A 
ATOM      7  C6  <0> d          -1.296  -0.762   0.018  0.00  0.00     0.106 C 
ATOM      8  N2  <0> d          -1.087  -2.146  -0.423  0.00  0.00    -0.071 N 
ATOM      9  C7  <0> d          -0.022  -2.754   0.388  0.00  0.00     0.086 C 
ATOM     10  C8  <0> d           1.320  -2.149  -0.032  0.00  0.00    -0.017 C 
ATOM     11  H1  <0> d          -0.955   1.918   0.026  0.00  0.00     0.086 H 
ATOM     12  H2  <0> d           1.176   3.153   0.008  0.00  0.00     0.114 H 
ATOM     13  H3  <0> d           3.344  -0.385  -0.037  0.00  0.00     0.115 H 
ATOM     14  H4  <0> d          -1.700  -0.764   1.030  0.00  0.00     0.083 H 
ATOM     15  H5  <0> d          -2.006  -0.275  -0.650  0.00  0.00     0.083 H 
ATOM     16  H6  <0> d          -1.941  -2.669  -0.306  0.00  0.00     0.277 HD
ATOM     17  H7  <0> d          -0.203  -2.548   1.443  0.00  0.00     0.076 H 
ATOM     18  H8  <0> d          -0.005  -3.831   0.221  0.00  0.00     0.076 H 
ATOM     19  H9  <0> d           1.573  -2.487  -1.037  0.00  0.00     0.042 H 
ATOM     20  H10 <0> d           2.095  -2.470   0.664  0.00  0.00     0.042 H 
ATOM     21  H11 <0> d          -0.817  -2.153  -1.395  0.00  0.00     0.277 HD
ENDROOT
TORSDOF 0
