REMARK  5 active torsions:
REMARK  status: ('A' for Active; 'I' for Inactive)
REMARK    1  A    between atoms: C1_1  and  C2_2 
REMARK    2  A    between atoms: C2_2  and  C3_3 
REMARK    3  A    between atoms: C3_3  and  C4_4 
REMARK    4  A    between atoms: C4_4  and  S1_5 
REMARK    5  A    between atoms: S1_5  and  N1_8 
ROOT
ATOM      1  C3  <0> d          -0.500   1.683   2.689  0.00  0.00    -0.052 C 
ATOM      2  H6  <0> d          -0.385   0.603   2.779  0.00  0.00     0.034 H 
ATOM      3  H7  <0> d           0.475   2.161   2.779  0.00  0.00     0.034 H 
ENDROOT
BRANCH   1   4
ATOM      4  C2  <0> d          -1.421   2.191   3.800  0.00  0.00    -0.068 C 
ATOM      5  H4  <0> d          -1.537   3.272   3.710  0.00  0.00     0.032 H 
ATOM      6  H5  <0> d          -2.397   1.713   3.710  0.00  0.00     0.032 H 
BRANCH   4   7
ATOM      7  C1  <0> d          -0.812   1.855   5.162  0.00  0.00    -0.076 C 
ATOM      8  H1  <0> d          -0.697   0.775   5.252  0.00  0.00     0.027 H 
ATOM      9  H2  <0> d           0.164   2.333   5.252  0.00  0.00     0.027 H 
ATOM     10  H3  <0> d          -1.468   2.217   5.953  0.00  0.00     0.027 H 
ENDBRANCH   4   7
ENDBRANCH   1   4
BRANCH   1  11
ATOM     11  C4  <0> d          -1.110   2.020   1.327  0.00  0.00     0.046 C 
ATOM     12  H8  <0> d          -1.225   3.100   1.237  0.00  0.00     0.058 H 
ATOM     13  H9  <0> d          -2.085   1.541   1.237  0.00  0.00     0.058 H 
BRANCH  11  14
ATOM     14  S1  <0> d          -0.017   1.417   0.010  0.00  0.00     0.224 S 
ATOM     15  O1  <0> d           0.002  -0.004   0.002  0.00  0.00    -0.206 OA
ATOM     16  O2  <0> d           1.195   2.158   0.002  0.00  0.00    -0.206 OA
BRANCH  14  17
ATOM     17  N1  <0> d          -0.778   1.837  -1.400  0.00  0.00    -0.328 N 
ATOM     18  H10 <0> d          -1.627   2.305  -1.372  0.00  0.00     0.168 HD
ATOM     19  H11 <0> d          -0.375   1.614  -2.253  0.00  0.00     0.168 HD
ENDBRANCH  14  17
ENDBRANCH  11  14
ENDBRANCH   1  11
TORSDOF 5
