REMARK  1 active torsions:
REMARK  status: ('A' for Active; 'I' for Inactive)
REMARK    1  A    between atoms: C4_5  and  C6_7 
ROOT
ATOM      1  C1  <0> d          -0.017   1.380   0.010  0.00  0.00    -0.079 A 
ATOM      2  C2  <0> d           1.194   2.059   0.002  0.00  0.00    -0.066 A 
ATOM      3  C3  <0> d           2.374   1.340  -0.013  0.00  0.00     0.003 A 
ATOM      4  N1  <0> d           2.364   0.022  -0.020  0.00  0.00    -0.259 NA
ATOM      5  C4  <0> d           1.229  -0.664  -0.013  0.00  0.00     0.086 A 
ATOM      6  C5  <0> d           0.002  -0.004   0.002  0.00  0.00    -0.053 A 
ATOM      7  H2  <0> d          -0.952   1.919   0.026  0.00  0.00     0.083 H 
ATOM      8  H3  <0> d           1.213   3.139   0.007  0.00  0.00     0.085 H 
ATOM      9  H4  <0> d           3.318   1.865  -0.020  0.00  0.00     0.114 H 
ATOM     10  H5  <0> d          -0.921  -0.564   0.008  0.00  0.00     0.087 H 
ENDROOT
BRANCH   5  11
ATOM     11  C6  <0> d           1.266  -2.147  -0.022  0.00  0.00     0.106 A 
ATOM     12  N3  <0> d           0.222  -2.949  -0.016  0.00  0.00    -0.173 NA
ATOM     13  N2  <0> d           0.686  -4.270  -0.030  0.00  0.00    -0.289 N 
ATOM     14  C8  <0> d           2.036  -4.241  -0.037  0.00  0.00    -0.002 A 
ATOM     15  H1  <0> d           0.134  -5.067  -0.032  0.00  0.00     0.188 HD
ATOM     16  C7  <0> d           2.426  -2.947  -0.032  0.00  0.00    -0.035 A 
ATOM     17  H7  <0> d           2.690  -5.100  -0.045  0.00  0.00     0.113 H 
ATOM     18  H6  <0> d           3.445  -2.590  -0.036  0.00  0.00     0.089 H 
ENDBRANCH   5  11
TORSDOF 1
