REMARK  0 active torsions:
REMARK  status: ('A' for Active; 'I' for Inactive)
ROOT
ATOM      1  C1  <0> d          -1.193   3.424   0.032  0.00  0.00    -0.026 A 
ATOM      2  C2  <0> d           0.029   4.069   0.024  0.00  0.00     0.005 A 
ATOM      3  N1  <0> d           1.155   3.383   0.009  0.00  0.00    -0.270 NA
ATOM      4  C3  <0> d           1.166   2.064   0.002  0.00  0.00     0.042 A 
ATOM      5  C4  <0> d          -0.016   1.347   0.009  0.00  0.00     0.172 A 
ATOM      6  C5  <0> d          -1.225   2.036   0.019  0.00  0.00     0.157 A 
ATOM      7  F1  <0> d          -2.401   1.371   0.020  0.00  0.00    -0.203 F 
ATOM      8  F2  <0> d           0.002  -0.004   0.002  0.00  0.00    -0.201 F 
ATOM      9  H1  <0> d          -2.111   3.992   0.044  0.00  0.00     0.090 H 
ATOM     10  H2  <0> d           0.062   5.148   0.029  0.00  0.00     0.114 H 
ATOM     11  H3  <0> d           2.109   1.538  -0.009  0.00  0.00     0.119 H 
ENDROOT
TORSDOF 0
