REMARK  1 active torsions:
REMARK  status: ('A' for Active; 'I' for Inactive)
REMARK    1  A    between atoms: C4_7  and  N5_10 
ROOT
ATOM      1  C1  <0> d          -0.016   1.350   0.009  0.00  0.00    -0.049 A 
ATOM      2  C2  <0> d           1.197   2.057   0.002  0.00  0.00     0.022 A 
ATOM      3  N1  <0> d           2.342   1.417  -0.013  0.00  0.00    -0.073 NA
ATOM      4  C3  <0> d           2.379   0.077  -0.020  0.00  0.00     0.766 A 
ATOM      5  N2  <0> d           3.367  -0.799  -0.034  0.00  0.00     0.061 NA
ATOM      6  N3  <0> d           2.890  -1.993  -0.036  0.00  0.00     0.059 NA
ATOM      7  C4  <0> d           1.578  -1.960  -0.024  0.00  0.00     0.738 A 
ATOM      8  N4  <0> d           1.207  -0.649  -0.013  0.00  0.00     0.020 N 
ATOM      9  C5  <0> d           0.002  -0.004   0.002  0.00  0.00     0.022 A 
ATOM     10  H1  <0> d          -0.956   1.882   0.026  0.00  0.00     0.087 H 
ATOM     11  H2  <0> d           1.188   3.137   0.007  0.00  0.00     0.115 H 
ATOM     12  H3  <0> d          -0.921  -0.565   0.008  0.00  0.00     0.114 H 
ENDROOT
BRANCH   7  13
ATOM     13  N5  <0> d           0.725  -3.060  -0.022  0.00  0.00    -0.230 N 
ATOM     14  H4  <0> d           1.091  -3.958  -0.030  0.00  0.00     0.174 HD
ATOM     15  H5  <0> d          -0.236  -2.928  -0.012  0.00  0.00     0.174 HD
ENDBRANCH   7  13
TORSDOF 1
