REMARK  4 active torsions:
REMARK  status: ('A' for Active; 'I' for Inactive)
REMARK    1  A    between atoms: C3_3  and  C5_7 
REMARK    2  A    between atoms: C5_7  and  O2_8 
REMARK    3  A    between atoms: O2_8  and  C6_9 
REMARK    4  A    between atoms: C6_9  and  C7_10 
ROOT
ATOM      1  C7  <0> d          -3.071   3.431  -5.261  0.00  0.00     0.034 C 
ATOM      2  C8  <0> d          -3.319   4.498  -6.245  0.00  0.00     0.061 C 
ATOM      3  N1  <0> d          -3.511   5.321  -7.004  0.00  0.00    -0.197 NA
ATOM      4  H12 <0> d          -2.250   2.803  -5.606  0.00  0.00     0.058 H 
ATOM      5  H13 <0> d          -3.970   2.824  -5.149  0.00  0.00     0.058 H 
ENDROOT
BRANCH   1   6
ATOM      6  C6  <0> d          -2.706   4.055  -3.913  0.00  0.00     0.031 C 
ATOM      7  H10 <0> d          -3.527   4.683  -3.569  0.00  0.00     0.075 H 
ATOM      8  H11 <0> d          -1.807   4.662  -4.026  0.00  0.00     0.075 H 
BRANCH   6   9
ATOM      9  O2  <0> d          -2.465   3.020  -2.958  0.00  0.00    -0.388 OA
BRANCH   9  10
ATOM     10  C5  <0> d          -2.114   3.498  -1.658  0.00  0.00     0.043 C 
ATOM     11  H8  <0> d          -2.923   4.114  -1.267  0.00  0.00     0.078 H 
ATOM     12  H9  <0> d          -1.203   4.093  -1.724  0.00  0.00     0.078 H 
BRANCH  10  13
ATOM     13  C3  <0> d          -1.880   2.309  -0.724  0.00  0.00     0.059 C 
ATOM     14  C2  <0> d          -1.552   2.804   0.708  0.00  0.00    -0.037 C 
ATOM     15  C1  <0> d          -0.753   1.593   1.264  0.00  0.00    -0.043 C 
ATOM     16  H4  <0> d          -0.935   3.702   0.681  0.00  0.00     0.036 H 
ATOM     17  H5  <0> d          -2.463   2.974   1.283  0.00  0.00     0.036 H 
ATOM     18  C4  <0> d          -0.013   1.086   0.008  0.00  0.00     0.020 C 
ATOM     19  H2  <0> d          -1.427   0.829   1.652  0.00  0.00     0.036 H 
ATOM     20  H3  <0> d          -0.046   1.911   2.030  0.00  0.00     0.036 H 
ATOM     21  O1  <0> d          -0.722   1.569  -1.139  0.00  0.00    -0.384 OA
ATOM     22  H6  <0> d           0.002  -0.004   0.002  0.00  0.00     0.074 H 
ATOM     23  H7  <0> d           1.008   1.469   0.000  0.00  0.00     0.074 H 
ATOM     24  H1  <0> d          -2.758   1.663  -0.709  0.00  0.00     0.086 H 
ENDBRANCH  10  13
ENDBRANCH   9  10
ENDBRANCH   6   9
ENDBRANCH   1   6
TORSDOF 4
