REMARK  0 active torsions:
REMARK  status: ('A' for Active; 'I' for Inactive)
ROOT
ATOM      1  C1  <0> d          -0.013   1.076   0.008  0.00  0.00    -0.082 A 
ATOM      2  C2  <0> d           1.183   1.781   0.000  0.00  0.00    -0.081 A 
ATOM      3  C3  <0> d           1.187   3.159   0.007  0.00  0.00    -0.056 A 
ATOM      4  C4  <0> d          -0.018   3.853   0.022  0.00  0.00     0.043 A 
ATOM      5  C5  <0> d          -1.228   3.134   0.031  0.00  0.00    -0.006 A 
ATOM      6  C6  <0> d          -1.208   1.737   0.017  0.00  0.00    -0.071 A 
ATOM      7  C7  <0> d          -2.295   4.136   0.046  0.00  0.00    -0.034 A 
ATOM      8  C8  <0> d          -1.701   5.342   0.046  0.00  0.00     0.104 A 
ATOM      9  N1  <0> d          -0.341   5.192   0.032  0.00  0.00    -0.346 N 
ATOM     10  H1  <0> d           0.300   5.920   0.030  0.00  0.00     0.167 HD
ATOM     11 Cl1  <0> d          -2.536   6.864   0.062  0.00  0.00    -0.065 Cl
ATOM     12  H2  <0> d           0.002  -0.004   0.002  0.00  0.00     0.083 H 
ATOM     13  H3  <0> d           2.120   1.244  -0.011  0.00  0.00     0.083 H 
ATOM     14  H4  <0> d           2.123   3.698   0.001  0.00  0.00     0.086 H 
ATOM     15  H5  <0> d          -2.135   1.183   0.018  0.00  0.00     0.084 H 
ATOM     16  H6  <0> d          -3.358   3.943   0.055  0.00  0.00     0.089 H 
ENDROOT
TORSDOF 0
