REMARK  4 active torsions:
REMARK  status: ('A' for Active; 'I' for Inactive)
REMARK    1  A    between atoms: C1_1  and  C2_2 
REMARK    2  A    between atoms: C2_2  and  C3_3 
REMARK    3  A    between atoms: C5_5  and  N2_10 
REMARK    4  A    between atoms: C8_8  and  N1_9 
ROOT
ATOM      1  C3  <0> d          -1.412  -0.526   0.013  0.00  0.00    -0.030 A 
ATOM      2  C4  <0> d          -2.014  -0.864   1.209  0.00  0.00    -0.050 A 
ATOM      3  C5  <0> d          -3.317  -1.344   1.219  0.00  0.00     0.026 A 
ATOM      4  C6  <0> d          -4.014  -1.484   0.026  0.00  0.00    -0.056 A 
ATOM      5  C7  <0> d          -3.412  -1.147  -1.170  0.00  0.00    -0.055 A 
ATOM      6  C8  <0> d          -2.111  -0.661  -1.179  0.00  0.00     0.032 A 
ATOM      7  H6  <0> d          -1.472  -0.755   2.136  0.00  0.00     0.087 H 
ATOM      8  H7  <0> d          -5.027  -1.858   0.034  0.00  0.00     0.087 H 
ATOM      9  H8  <0> d          -3.954  -1.257  -2.098  0.00  0.00     0.087 H 
ENDROOT
BRANCH   1  10
ATOM     10  C2  <0> d           0.002  -0.004   0.002  0.00  0.00    -0.042 C 
ATOM     11  H4  <0> d           0.512  -0.356  -0.895  0.00  0.00     0.039 H 
ATOM     12  H5  <0> d           0.529  -0.365   0.885  0.00  0.00     0.039 H 
BRANCH  10  13
ATOM     13  C1  <0> d          -0.019   1.526   0.010  0.00  0.00    -0.073 C 
ATOM     14  H1  <0> d           1.004   1.903   0.003  0.00  0.00     0.028 H 
ATOM     15  H2  <0> d          -0.546   1.887  -0.873  0.00  0.00     0.028 H 
ATOM     16  H3  <0> d          -0.529   1.877   0.907  0.00  0.00     0.028 H 
ENDBRANCH  10  13
ENDBRANCH   1  10
BRANCH   6  17
ATOM     17  N1  <0> d          -1.502  -0.313  -2.391  0.00  0.00    -0.399 N 
ATOM     18  H9  <0> d          -0.592   0.022  -2.398  0.00  0.00     0.156 HD
ATOM     19  H10 <0> d          -1.990  -0.408  -3.224  0.00  0.00     0.156 HD
ENDBRANCH   6  17
BRANCH   3  20
ATOM     20  N2  <0> d          -3.927  -1.687   2.431  0.00  0.00    -0.399 N 
ATOM     21  H11 <0> d          -3.440  -1.589   3.264  0.00  0.00     0.156 HD
ATOM     22  H12 <0> d          -4.837  -2.022   2.438  0.00  0.00     0.156 HD
ENDBRANCH   3  20
TORSDOF 4
