REMARK  1 active torsions:
REMARK  status: ('A' for Active; 'I' for Inactive)
REMARK    1  A    between atoms: C3_5  and  C4_6 
ROOT
ATOM      1  C1  <0> d           1.364  -0.385  -0.013  0.00  0.00    -0.024 A 
ATOM      2  C2  <0> d           0.002  -0.004   0.002  0.00  0.00     0.031 A 
ATOM      3  N1  <0> d          -0.016   1.298   0.009  0.00  0.00    -0.140 NA
ATOM      4  O1  <0> d           1.103   1.758   0.001  0.00  0.00    -0.209 OA
ATOM      5  C3  <0> d           2.033   0.793  -0.013  0.00  0.00     0.186 A 
ATOM      6  H1  <0> d           1.775  -1.383  -0.023  0.00  0.00     0.090 H 
ATOM      7  H2  <0> d          -0.854  -0.663   0.007  0.00  0.00     0.118 H 
ENDROOT
BRANCH   5   8
ATOM      8  C4  <0> d           3.528   0.981  -0.026  0.00  0.00     0.441 C 
ATOM      9  F1  <0> d           3.978   1.046  -1.349  0.00  0.00    -0.164 F 
ATOM     10  F2  <0> d           3.854   2.169   0.637  0.00  0.00    -0.164 F 
ATOM     11  F3  <0> d           4.139  -0.097   0.622  0.00  0.00    -0.164 F 
ENDBRANCH   5   8
TORSDOF 1
