REMARK  3 active torsions:
REMARK  status: ('A' for Active; 'I' for Inactive)
REMARK    1  A    between atoms: C1_1  and  C2_2 
REMARK    2  A    between atoms: C6_6  and  N1_8 
REMARK    3  A    between atoms: N1_8  and  C8_9 
ROOT
ATOM      1  C2  <0> d           1.422   0.104   3.841  0.00  0.00    -0.060 A 
ATOM      2  C3  <0> d           0.775   0.550   4.978  0.00  0.00    -0.074 A 
ATOM      3  C4  <0> d          -0.361   1.331   4.870  0.00  0.00    -0.043 A 
ATOM      4  C5  <0> d          -0.854   1.668   3.622  0.00  0.00     0.142 A 
ATOM      5  C6  <0> d          -0.204   1.220   2.477  0.00  0.00     0.067 A 
ATOM      6  C7  <0> d           0.933   0.432   2.591  0.00  0.00    -0.049 A 
ATOM      7  F1  <0> d          -1.964   2.431   3.516  0.00  0.00    -0.204 F 
ATOM      8  H4  <0> d           1.157   0.288   5.954  0.00  0.00     0.084 H 
ATOM      9  H5  <0> d          -0.865   1.678   5.760  0.00  0.00     0.088 H 
ATOM     10  H6  <0> d           1.437   0.079   1.704  0.00  0.00     0.087 H 
ENDROOT
BRANCH   5  11
ATOM     11  N1  <0> d          -0.698   1.558   1.213  0.00  0.00    -0.392 N 
ATOM     12  H7  <0> d          -1.602   2.179   1.124  0.00  0.00     0.159 HD
BRANCH  11  13
ATOM     13  C8  <0> d          -0.013   1.086   0.008  0.00  0.00    -0.021 C 
ATOM     14  H8  <0> d          -0.545   1.450  -0.883  0.00  0.00     0.056 H 
ATOM     15  H9  <0> d           0.002  -0.014   0.002  0.00  0.00     0.056 H 
ATOM     16  H10 <0> d           1.019   1.466   0.000  0.00  0.00     0.056 H 
ENDBRANCH  11  13
ENDBRANCH   5  11
BRANCH   1  17
ATOM     17  C1  <0> d           2.660  -0.747   3.965  0.00  0.00    -0.051 C 
ATOM     18  H1  <0> d           2.894  -0.901   5.029  0.00  0.00     0.033 H 
ATOM     19  H2  <0> d           3.504  -0.241   3.473  0.00  0.00     0.033 H 
ATOM     20  H3  <0> d           2.485  -1.720   3.483  0.00  0.00     0.033 H 
ENDBRANCH   1  17
TORSDOF 3
