REMARK  3 active torsions:
REMARK  status: ('A' for Active; 'I' for Inactive)
REMARK    1  A    between atoms: C1_1  and  C2_2 
REMARK    2  A    between atoms: C2_2  and  C3_3 
REMARK    3  A    between atoms: C3_3  and  C4_5 
ROOT
ATOM      1  C4  <0> d          -0.018   1.468   0.010  0.00  0.00     0.069 C 
ATOM      2  C5  <0> d           0.002  -0.004   0.002  0.00  0.00     0.066 C 
ATOM      3  N1  <0> d           0.018  -1.140  -0.004  0.00  0.00    -0.197 NA
ATOM      4  H6  <0> d          -0.501   1.799  -0.800  0.00  0.00     0.066 H 
ATOM      5  H7  <0> d          -0.528   1.819   0.907  0.00  0.00     0.066 H 
ENDROOT
BRANCH   1   6
ATOM      6  C3  <0> d           1.396   1.989  -0.001  0.00  0.00     0.139 C 
ATOM      7  O1  <0> d           2.324   1.217  -0.014  0.00  0.00    -0.297 OA
BRANCH   6   8
ATOM      8  C2  <0> d           1.651   3.475   0.005  0.00  0.00    -0.012 C 
ATOM      9  H4  <0> d           1.235   3.887  -0.805  0.00  0.00     0.043 H 
ATOM     10  H5  <0> d           1.215   3.915   0.901  0.00  0.00     0.043 H 
BRANCH   8  11
ATOM     11  C1  <0> d           3.159   3.733  -0.008  0.00  0.00    -0.070 C 
ATOM     12  H1  <0> d           3.612   3.283   0.875  0.00  0.00     0.028 H 
ATOM     13  H2  <0> d           3.595   3.293  -0.905  0.00  0.00     0.028 H 
ATOM     14  H3  <0> d           3.344   4.807  -0.004  0.00  0.00     0.028 H 
ENDBRANCH   8  11
ENDBRANCH   6   8
ENDBRANCH   1   6
TORSDOF 3
