REMARK  4 active torsions:
REMARK  status: ('A' for Active; 'I' for Inactive)
REMARK    1  A    between atoms: C1_1  and  C2_2 
REMARK    2  A    between atoms: C2_2  and  O1_3 
REMARK    3  A    between atoms: O1_3  and  C3_4 
REMARK    4  A    between atoms: C3_4  and  C4_6 
ROOT
ATOM      1  C4  <0> d          -0.013   1.086   0.008  0.00  0.00     0.122 C 
ATOM      2  H1  <0> d           0.049  -0.011  -0.045  0.00  0.00     0.099 H 
ATOM      3  C5  <0> d          -0.692   1.593   1.298  0.00  0.00    -0.030 C 
ATOM      4  C6  <0> d           0.525   1.919   2.206  0.00  0.00    -0.042 C 
ATOM      5  C7  <0> d           1.552   2.412   1.155  0.00  0.00     0.021 C 
ATOM      6  O3  <0> d           1.328   1.590  -0.002  0.00  0.00    -0.376 OA
ATOM      7  H7  <0> d          -1.304   2.478   1.067  0.00  0.00     0.037 H 
ATOM      8  H8  <0> d          -1.335   0.801   1.710  0.00  0.00     0.037 H 
ATOM      9  H9  <0> d           0.241   2.690   2.937  0.00  0.00     0.036 H 
ATOM     10  H10 <0> d           0.841   1.009   2.736  0.00  0.00     0.036 H 
ATOM     11  H11 <0> d           1.373   3.475   0.937  0.00  0.00     0.074 H 
ATOM     12  H12 <0> d           2.571   2.285   1.550  0.00  0.00     0.074 H 
ENDROOT
BRANCH   1  13
ATOM     13  C3  <0> d          -0.759   1.593  -1.199  0.00  0.00     0.288 C 
ATOM     14  O2  <0> d          -0.224   2.365  -1.960  0.00  0.00    -0.262 OA
BRANCH  13  15
ATOM     15  O1  <0> d          -2.018   1.189  -1.429  0.00  0.00    -0.320 OA
BRANCH  15  16
ATOM     16  C2  <0> d          -2.675   1.719  -2.610  0.00  0.00     0.026 C 
ATOM     17  H5  <0> d          -2.105   1.433  -3.506  0.00  0.00     0.074 H 
ATOM     18  H6  <0> d          -2.725   2.815  -2.541  0.00  0.00     0.074 H 
BRANCH  16  19
ATOM     19  C1  <0> d          -4.092   1.149  -2.704  0.00  0.00    -0.056 C 
ATOM     20  H2  <0> d          -4.590   1.550  -3.599  0.00  0.00     0.030 H 
ATOM     21  H3  <0> d          -4.662   1.434  -1.808  0.00  0.00     0.030 H 
ATOM     22  H4  <0> d          -4.042   0.052  -2.773  0.00  0.00     0.030 H 
ENDBRANCH  16  19
ENDBRANCH  15  16
ENDBRANCH  13  15
ENDBRANCH   1  13
TORSDOF 4
