REMARK  3 active torsions:
REMARK  status: ('A' for Active; 'I' for Inactive)
REMARK    1  A    between atoms: C1_1  and  O1_2 
REMARK    2  A    between atoms: O1_2  and  C2_3 
REMARK    3  A    between atoms: C2_3  and  C3_4 
ROOT
ATOM      1  C3  <0> d           1.106   3.179   0.008  0.00  0.00    -0.017 A 
ATOM      2  C4  <0> d           1.173   1.794   0.001  0.00  0.00    -0.072 A 
ATOM      3  C5  <0> d          -0.013   1.076   0.008  0.00  0.00    -0.065 A 
ATOM      4  C6  <0> d          -1.214   1.759   0.017  0.00  0.00     0.002 A 
ATOM      5  N1  <0> d          -1.240   3.078   0.030  0.00  0.00    -0.273 NA
ATOM      6  C7  <0> d          -0.132   3.793   0.023  0.00  0.00     0.010 A 
ATOM      7  H6  <0> d           2.127   1.287  -0.011  0.00  0.00     0.084 H 
ATOM      8  H7  <0> d           0.002  -0.004   0.002  0.00  0.00     0.085 H 
ATOM      9  H8  <0> d          -2.142   1.207   0.019  0.00  0.00     0.114 H 
ATOM     10  H9  <0> d          -0.193   4.871   0.029  0.00  0.00     0.115 H 
ENDROOT
BRANCH   1  11
ATOM     11  C2  <0> d           2.367   4.004   0.001  0.00  0.00     0.044 C 
ATOM     12  H4  <0> d           2.188   4.945   0.521  0.00  0.00     0.081 H 
ATOM     13  H5  <0> d           3.163   3.456   0.505  0.00  0.00     0.081 H 
BRANCH  11  14
ATOM     14  O1  <0> d           2.754   4.272  -1.349  0.00  0.00    -0.391 OA
BRANCH  14  15
ATOM     15  C1  <0> d           3.945   5.052  -1.468  0.00  0.00     0.004 C 
ATOM     16  H1  <0> d           3.799   6.015  -0.978  0.00  0.00     0.066 H 
ATOM     17  H2  <0> d           4.773   4.526  -0.995  0.00  0.00     0.066 H 
ATOM     18  H3  <0> d           4.170   5.211  -2.522  0.00  0.00     0.066 H 
ENDBRANCH  14  15
ENDBRANCH  11  14
ENDBRANCH   1  11
TORSDOF 3
