REMARK  5 active torsions:
REMARK  status: ('A' for Active; 'I' for Inactive)
REMARK    1  A    between atoms: C1_1  and  C2_2 
REMARK    2  A    between atoms: C4_4  and  O2_11 
REMARK    3  A    between atoms: C5_5  and  C9_10 
REMARK    4  A    between atoms: C6_6  and  O1_9 
REMARK    5  A    between atoms: C7_7  and  C8_8 
ROOT
ATOM      1  C2  <0> d          -2.082   1.789   1.226  0.00  0.00    -0.051 A 
ATOM      2  C3  <0> d          -2.733   2.230   2.362  0.00  0.00    -0.044 A 
ATOM      3  C4  <0> d          -2.015   2.466   3.526  0.00  0.00     0.074 A 
ATOM      4  C5  <0> d          -0.645   2.254   3.550  0.00  0.00     0.005 A 
ATOM      5  C6  <0> d           0.004   1.806   2.410  0.00  0.00     0.080 A 
ATOM      6  C7  <0> d          -0.718   1.572   1.248  0.00  0.00    -0.022 A 
ATOM      7  H4  <0> d          -3.800   2.395   2.344  0.00  0.00     0.088 H 
ENDROOT
BRANCH   1   8
ATOM      8  C1  <0> d          -2.863   1.539  -0.039  0.00  0.00    -0.051 C 
ATOM      9  H1  <0> d          -3.211   0.506  -0.053  0.00  0.00     0.033 H 
ATOM     10  H2  <0> d          -3.720   2.212  -0.075  0.00  0.00     0.033 H 
ATOM     11  H3  <0> d          -2.223   1.718  -0.903  0.00  0.00     0.033 H 
ENDBRANCH   1   8
BRANCH   6  12
ATOM     12  C8  <0> d          -0.013   1.086   0.008  0.00  0.00    -0.048 C 
ATOM     13  H5  <0> d           0.002  -0.004   0.002  0.00  0.00     0.033 H 
ATOM     14  H6  <0> d           1.010   1.463   0.000  0.00  0.00     0.033 H 
ATOM     15  H7  <0> d          -0.540   1.447  -0.875  0.00  0.00     0.033 H 
ENDBRANCH   6  12
BRANCH   5  16
ATOM     16  O1  <0> d           1.347   1.597   2.430  0.00  0.00    -0.360 OA
ATOM     17  H8  <0> d           1.869   2.373   2.183  0.00  0.00     0.217 HD
ENDBRANCH   5  16
BRANCH   3  18
ATOM     18  O2  <0> d          -2.655   2.905   4.642  0.00  0.00    -0.360 OA
ATOM     19  H12 <0> d          -2.706   3.868   4.713  0.00  0.00     0.217 HD
ENDBRANCH   3  18
BRANCH   4  20
ATOM     20  C9  <0> d           0.137   2.509   4.812  0.00  0.00    -0.046 C 
ATOM     21  H9  <0> d           0.481   3.543   4.824  0.00  0.00     0.033 H 
ATOM     22  H10 <0> d          -0.502   2.329   5.678  0.00  0.00     0.033 H 
ATOM     23  H11 <0> d           0.996   1.839   4.849  0.00  0.00     0.033 H 
ENDBRANCH   4  20
TORSDOF 5
