REMARK  4 active torsions:
REMARK  status: ('A' for Active; 'I' for Inactive)
REMARK    1  A    between atoms: C1_1  and  C2_2 
REMARK    2  A    between atoms: C2_2  and  C3_3 
REMARK    3  A    between atoms: C4_4  and  C7_12 
REMARK    4  A    between atoms: C5_6  and  N3_11 
ROOT
ATOM      1  C3  <0> d           0.707  -0.490  -1.238  0.00  0.00     0.035 A 
ATOM      2  C4  <0> d           2.035  -0.805  -1.202  0.00  0.00     0.061 A 
ATOM      3  N1  <0> d           2.649  -1.234  -2.303  0.00  0.00    -0.069 NA
ATOM      4  C5  <0> d           2.001  -1.365  -3.443  0.00  0.00     0.701 A 
ATOM      5  N2  <0> d           0.677  -1.065  -3.539  0.00  0.00    -0.154 N 
ATOM      6  H1  <0> d           0.215  -1.167  -4.386  0.00  0.00     0.187 HD
ATOM      7  C6  <0> d           0.008  -0.632  -2.449  0.00  0.00     0.267 A 
ATOM      8  O1  <0> d          -1.181  -0.363  -2.516  0.00  0.00    -0.267 OA
ENDROOT
BRANCH   1   9
ATOM      9  C2  <0> d           0.002  -0.004   0.002  0.00  0.00    -0.037 C 
ATOM     10  H5  <0> d           0.529  -0.365   0.885  0.00  0.00     0.039 H 
ATOM     11  H6  <0> d          -1.020  -0.381   0.010  0.00  0.00     0.039 H 
BRANCH   9  12
ATOM     12  C1  <0> d          -0.019   1.526   0.010  0.00  0.00    -0.072 C 
ATOM     13  H2  <0> d           1.004   1.903   0.003  0.00  0.00     0.028 H 
ATOM     14  H3  <0> d          -0.546   1.887  -0.873  0.00  0.00     0.028 H 
ATOM     15  H4  <0> d          -0.529   1.877   0.907  0.00  0.00     0.028 H 
ENDBRANCH   9  12
ENDBRANCH   1   9
BRANCH   2  16
ATOM     16  C7  <0> d           2.806  -0.667   0.085  0.00  0.00    -0.034 C 
ATOM     17  H9  <0> d           2.756  -1.603   0.641  0.00  0.00     0.035 H 
ATOM     18  H10 <0> d           3.847  -0.434  -0.139  0.00  0.00     0.035 H 
ATOM     19  H11 <0> d           2.375   0.135   0.683  0.00  0.00     0.035 H 
ENDBRANCH   2  16
BRANCH   4  20
ATOM     20  N3  <0> d           2.671  -1.810  -4.551  0.00  0.00    -0.233 N 
ATOM     21  H7  <0> d           3.615  -2.025  -4.492  0.00  0.00     0.174 HD
ATOM     22  H8  <0> d           2.203  -1.909  -5.394  0.00  0.00     0.174 HD
ENDBRANCH   4  20
TORSDOF 4
