REMARK  1 active torsions:
REMARK  status: ('A' for Active; 'I' for Inactive)
REMARK    1  A    between atoms: C1_1  and  C2_2 
ROOT
ATOM      1  C2  <0> d          -1.221   1.754   0.017  0.00  0.00    -0.041 A 
ATOM      2  C3  <0> d          -1.189   3.143   0.030  0.00  0.00    -0.057 A 
ATOM      3  C4  <0> d           0.050   3.764   0.022  0.00  0.00     0.024 A 
ATOM      4  N1  <0> d           1.150   3.036   0.007  0.00  0.00    -0.163 NA
ATOM      5  N2  <0> d           1.120   1.753   0.001  0.00  0.00    -0.163 NA
ATOM      6  C5  <0> d          -0.013   1.076   0.008  0.00  0.00     0.029 A 
ATOM      7  H4  <0> d          -2.101   3.720   0.042  0.00  0.00     0.086 H 
ATOM      8  H5  <0> d           0.114   4.842   0.027  0.00  0.00     0.117 H 
ATOM      9  H6  <0> d           0.002  -0.004   0.002  0.00  0.00     0.118 H 
ENDROOT
BRANCH   1  10
ATOM     10  C1  <0> d          -2.530   1.008   0.019  0.00  0.00    -0.050 C 
ATOM     11  H1  <0> d          -2.841   0.822   1.047  0.00  0.00     0.033 H 
ATOM     12  H2  <0> d          -3.289   1.604  -0.488  0.00  0.00     0.033 H 
ATOM     13  H3  <0> d          -2.407   0.057  -0.501  0.00  0.00     0.033 H 
ENDBRANCH   1  10
TORSDOF 1
