REMARK  2 active torsions:
REMARK  status: ('A' for Active; 'I' for Inactive)
REMARK    1  A    between atoms: C1_1  and  C2_2 
REMARK    2  A    between atoms: C4_4  and  C7_9 
ROOT
ATOM      1  C2  <0> d           0.002  -0.004   0.002  0.00  0.00    -0.037 A 
ATOM      2  C3  <0> d           0.006  -0.707  -1.193  0.00  0.00    -0.052 A 
ATOM      3  C4  <0> d           0.026  -2.089  -1.161  0.00  0.00     0.031 A 
ATOM      4  N1  <0> d           0.040  -2.738  -0.014  0.00  0.00    -0.264 NA
ATOM      5  C5  <0> d           0.036  -2.103   1.142  0.00  0.00     0.024 A 
ATOM      6  C6  <0> d           0.023  -0.721   1.190  0.00  0.00     0.057 A 
ATOM      7 Cl1  <0> d           0.026   0.107   2.716  0.00  0.00    -0.082 Cl
ATOM      8  H4  <0> d          -0.006  -0.182  -2.136  0.00  0.00     0.087 H 
ATOM      9  H5  <0> d           0.048  -2.669   2.062  0.00  0.00     0.117 H 
ENDROOT
BRANCH   1  10
ATOM     10  C1  <0> d          -0.018   1.503   0.010  0.00  0.00    -0.050 C 
ATOM     11  H1  <0> d           1.004   1.880   0.003  0.00  0.00     0.033 H 
ATOM     12  H2  <0> d          -0.545   1.864  -0.873  0.00  0.00     0.033 H 
ATOM     13  H3  <0> d          -0.529   1.854   0.907  0.00  0.00     0.033 H 
ENDBRANCH   1  10
BRANCH   3  14
ATOM     14  C7  <0> d           0.030  -2.863  -2.454  0.00  0.00    -0.035 C 
ATOM     15  H6  <0> d           1.059  -3.035  -2.771  0.00  0.00     0.035 H 
ATOM     16  H7  <0> d          -0.470  -3.820  -2.307  0.00  0.00     0.035 H 
ATOM     17  H8  <0> d          -0.495  -2.293  -3.221  0.00  0.00     0.035 H 
ENDBRANCH   3  14
TORSDOF 2
