REMARK  7 active torsions:
REMARK  status: ('A' for Active; 'I' for Inactive)
REMARK    1  A    between atoms: C1_1  and  C2_2 
REMARK    2  A    between atoms: C2_2  and  C3_3 
REMARK    3  A    between atoms: C2_2  and  C4_4 
REMARK    4  A    between atoms: C2_2  and  C5_6 
REMARK    5  A    between atoms: C5_6  and  C6_7 
REMARK    6  A    between atoms: C5_6  and  C7_8 
REMARK    7  A    between atoms: C5_6  and  O2_9 
ROOT
ATOM      1  C2  <0> d          -1.331   2.074   0.020  0.00  0.00     0.071 C 
ENDROOT
BRANCH   1   2
ATOM      2  C1  <0> d          -2.134   1.700  -1.228  0.00  0.00    -0.057 C 
ATOM      3  H1  <0> d          -2.319   0.626  -1.233  0.00  0.00     0.029 H 
ATOM      4  H2  <0> d          -3.086   2.232  -1.220  0.00  0.00     0.029 H 
ATOM      5  H3  <0> d          -1.571   1.976  -2.119  0.00  0.00     0.029 H 
ENDBRANCH   1   2
BRANCH   1   6
ATOM      6  C3  <0> d          -2.123   1.687   1.271  0.00  0.00    -0.057 C 
ATOM      7  H4  <0> d          -1.550   1.953   2.159  0.00  0.00     0.029 H 
ATOM      8  H5  <0> d          -3.074   2.219   1.278  0.00  0.00     0.029 H 
ATOM      9  H6  <0> d          -2.307   0.612   1.266  0.00  0.00     0.029 H 
ENDBRANCH   1   6
BRANCH   1  10
ATOM     10  C4  <0> d          -0.016   1.338   0.009  0.00  0.00     0.184 C 
ATOM     11  O1  <0> d           1.022   1.956   0.003  0.00  0.00    -0.647 OA
ATOM     12  O3  <0> d           0.002  -0.004   0.002  0.00  0.00    -0.647 OA
ENDBRANCH   1  10
BRANCH   1  13
ATOM     13  C5  <0> d          -1.072   3.582   0.027  0.00  0.00     0.067 C 
BRANCH  13  14
ATOM     14  C6  <0> d          -0.269   3.955   1.274  0.00  0.00    -0.047 C 
ATOM     15  H7  <0> d           0.682   3.423   1.267  0.00  0.00     0.031 H 
ATOM     16  H8  <0> d          -0.084   5.030   1.279  0.00  0.00     0.031 H 
ATOM     17  H9  <0> d          -0.833   3.679   2.165  0.00  0.00     0.031 H 
ENDBRANCH  13  14
BRANCH  13  18
ATOM     18  C7  <0> d          -0.281   3.969  -1.224  0.00  0.00    -0.047 C 
ATOM     19  H10 <0> d          -0.853   3.703  -2.113  0.00  0.00     0.031 H 
ATOM     20  H11 <0> d          -0.096   5.043  -1.219  0.00  0.00     0.031 H 
ATOM     21  H12 <0> d           0.670   3.437  -1.232  0.00  0.00     0.031 H 
ENDBRANCH  13  18
BRANCH  13  22
ATOM     22  O2  <0> d          -2.319   4.279   0.036  0.00  0.00    -0.389 OA
ATOM     23  H13 <0> d          -2.231   5.242   0.041  0.00  0.00     0.210 HD
ENDBRANCH  13  22
ENDBRANCH   1  13
TORSDOF 7
