REMARK  1 active torsions:
REMARK  status: ('A' for Active; 'I' for Inactive)
REMARK    1  A    between atoms: C2_2  and  C3_3 
ROOT
ATOM      1  C1  <0> d           0.018  -1.178  -0.004  0.00  0.00    -0.150 C 
ATOM      2  C2  <0> d           0.002  -0.004   0.002  0.00  0.00    -0.089 C 
ATOM      3  H1  <0> d           0.032  -2.228  -0.010  0.00  0.00     0.166 H 
ENDROOT
BRANCH   2   4
ATOM      4  C3  <0> d          -0.017   1.428   0.010  0.00  0.00    -0.032 C 
ATOM      5  C4  <0> d           1.124   2.108   0.003  0.00  0.00    -0.072 C 
ATOM      6  C9  <0> d           1.126   3.620   0.011  0.00  0.00    -0.044 C 
ATOM      7  C5  <0> d           2.455   1.389  -0.020  0.00  0.00    -0.044 C 
ATOM      8  C8  <0> d           2.020   4.117  -1.125  0.00  0.00    -0.062 C 
ATOM      9  H11 <0> d           0.111   3.989  -0.137  0.00  0.00     0.039 H 
ATOM     10  H12 <0> d           1.515   3.981   0.963  0.00  0.00     0.039 H 
ATOM     11  C7  <0> d           3.407   3.483  -0.996  0.00  0.00    -0.065 C 
ATOM     12  H9  <0> d           2.110   5.202  -1.070  0.00  0.00     0.033 H 
ATOM     13  H10 <0> d           1.579   3.836  -2.081  0.00  0.00     0.033 H 
ATOM     14  C6  <0> d           3.301   1.966  -1.160  0.00  0.00    -0.062 C 
ATOM     15  H7  <0> d           3.821   3.714  -0.015  0.00  0.00     0.033 H 
ATOM     16  H8  <0> d           4.062   3.887  -1.768  0.00  0.00     0.033 H 
ATOM     17  H5  <0> d           4.298   1.527  -1.131  0.00  0.00     0.033 H 
ATOM     18  H6  <0> d           2.829   1.736  -2.115  0.00  0.00     0.033 H 
ATOM     19  H3  <0> d           2.969   1.539   0.929  0.00  0.00     0.039 H 
ATOM     20  H4  <0> d           2.293   0.324  -0.188  0.00  0.00     0.039 H 
ATOM     21  H2  <0> d          -0.960   1.955   0.017  0.00  0.00     0.098 H 
ENDBRANCH   2   4
TORSDOF 1
