REMARK  3 active torsions:
REMARK  status: ('A' for Active; 'I' for Inactive)
REMARK    1  A    between atoms: C1_1  and  C2_2 
REMARK    2  A    between atoms: C2_2  and  N1_3 
REMARK    3  A    between atoms: C5_6  and  C6_8 
ROOT
ATOM      1  C6  <0> d           2.546   1.466  -0.014  0.00  0.00     0.056 C 
ATOM      2  C7  <0> d           3.240   2.087  -1.155  0.00  0.00     0.065 C 
ATOM      3  N3  <0> d           3.776   2.566  -2.034  0.00  0.00    -0.197 NA
ATOM      4  H8  <0> d           3.031   1.768   0.914  0.00  0.00     0.064 H 
ATOM      5  H9  <0> d           2.588   0.381  -0.110  0.00  0.00     0.064 H 
ENDROOT
BRANCH   1   6
ATOM      6  C5  <0> d           1.107   1.914   0.002  0.00  0.00     0.069 A 
ATOM      7  C4  <0> d          -0.013   1.076   0.008  0.00  0.00    -0.040 A 
ATOM      8  C3  <0> d          -1.117   1.857   0.017  0.00  0.00     0.000 A 
ATOM      9  H7  <0> d           0.002  -0.004   0.002  0.00  0.00     0.088 H 
ATOM     10  N1  <0> d          -0.711   3.144   0.025  0.00  0.00    -0.281 N 
ATOM     11  H6  <0> d          -2.141   1.512   0.019  0.00  0.00     0.114 H 
ATOM     12  N2  <0> d           0.690   3.154   0.012  0.00  0.00    -0.177 NA
BRANCH  10  13
ATOM     13  C2  <0> d          -1.581   4.322   0.039  0.00  0.00     0.013 C 
ATOM     14  H4  <0> d          -1.456   4.878  -0.891  0.00  0.00     0.066 H 
ATOM     15  H5  <0> d          -2.620   4.006   0.136  0.00  0.00     0.066 H 
BRANCH  13  16
ATOM     16  C1  <0> d          -1.208   5.218   1.222  0.00  0.00    -0.059 C 
ATOM     17  H1  <0> d          -1.333   4.662   2.152  0.00  0.00     0.029 H 
ATOM     18  H2  <0> d          -0.170   5.534   1.125  0.00  0.00     0.029 H 
ATOM     19  H3  <0> d          -1.856   6.095   1.233  0.00  0.00     0.029 H 
ENDBRANCH  13  16
ENDBRANCH  10  13
ENDBRANCH   1   6
TORSDOF 3
