REMARK  1 active torsions:
REMARK  status: ('A' for Active; 'I' for Inactive)
REMARK    1  A    between atoms: C4_7  and  N2_10 
ROOT
ATOM      1  C1  <0> d          -0.017   1.404   0.010  0.00  0.00    -0.030 A 
ATOM      2  C2  <0> d           1.144   2.093   0.002  0.00  0.00    -0.017 A 
ATOM      3  N1  <0> d           2.341   1.446  -0.013  0.00  0.00    -0.332 N 
ATOM      4  H1  <0> d           3.162   1.963  -0.018  0.00  0.00     0.168 HD
ATOM      5  C3  <0> d           2.405   0.102  -0.021  0.00  0.00     0.274 A 
ATOM      6  O1  <0> d           3.490  -0.458  -0.035  0.00  0.00    -0.266 OA
ATOM      7  C4  <0> d           1.223  -0.658  -0.013  0.00  0.00     0.131 A 
ATOM      8  C5  <0> d           0.002  -0.004   0.002  0.00  0.00     0.140 A 
ATOM      9  O2  <0> d          -1.157  -0.709   0.010  0.00  0.00    -0.189 OA
ATOM     10  H2  <0> d          -0.959   1.932   0.026  0.00  0.00     0.090 H 
ATOM     11  H3  <0> d           1.123   3.172   0.008  0.00  0.00     0.111 H 
ENDROOT
BRANCH   7  12
ATOM     12  N2  <0> d           1.279  -2.063  -0.021  0.00  0.00    -0.392 N 
ATOM     13  H4  <0> d           2.137  -2.514  -0.032  0.00  0.00     0.156 HD
ATOM     14  H5  <0> d           0.459  -2.581  -0.015  0.00  0.00     0.156 HD
ENDBRANCH   7  12
TORSDOF 1
