REMARK  0 active torsions:
REMARK  status: ('A' for Active; 'I' for Inactive)
ROOT
ATOM      1  C1  <0> d           2.565   0.107  -1.304  0.00  0.00    -0.032 C 
ATOM      2  C2  <0> d           1.327   0.178  -2.208  0.00  0.00    -0.002 C 
ATOM      3  C3  <0> d           0.158  -0.427  -1.454  0.00  0.00     0.181 C 
ATOM      4  O1  <0> d          -0.606  -1.201  -1.978  0.00  0.00    -0.293 OA
ATOM      5  C4  <0> d           0.002  -0.004   0.002  0.00  0.00     0.189 C 
ATOM      6  H1  <0> d          -0.817  -0.430   0.387  0.00  0.00     0.141 H 
ATOM      7  O2  <0> d          -0.018   1.439   0.010  0.00  0.00    -0.352 OA
ATOM      8  C5  <0> d           1.356   1.870  -0.001  0.00  0.00     0.047 C 
ATOM      9  C6  <0> d           2.187   0.573   0.107  0.00  0.00     0.063 C 
ATOM     10  H2  <0> d           3.063   0.692   0.744  0.00  0.00     0.086 H 
ATOM     11  O3  <0> d           1.240  -0.373   0.658  0.00  0.00    -0.347 OA
ATOM     12  H3  <0> d           2.927  -0.920  -1.263  0.00  0.00     0.037 H 
ATOM     13  H4  <0> d           3.346   0.753  -1.704  0.00  0.00     0.037 H 
ATOM     14  H5  <0> d           1.500  -0.333  -3.050  0.00  0.00     0.044 H 
ATOM     15  H6  <0> d           1.109   1.218  -2.453  0.00  0.00     0.044 H 
ATOM     16  H7  <0> d           1.582   2.388  -0.933  0.00  0.00     0.078 H 
ATOM     17  H8  <0> d           1.555   2.519   0.852  0.00  0.00     0.078 H 
ENDROOT
TORSDOF 0
