REMARK  1 active torsions:
REMARK  status: ('A' for Active; 'I' for Inactive)
REMARK    1  A    between atoms: C3_3  and  C6_7 
ROOT
ATOM      1  C1  <0> d           4.824   1.988  -0.033  0.00  0.00    -0.065 A 
ATOM      2  C2  <0> d           3.512   2.431  -0.018  0.00  0.00    -0.068 A 
ATOM      3  C3  <0> d           2.490   1.476  -0.014  0.00  0.00     0.017 A 
ATOM      4  C4  <0> d           2.831   0.123  -0.018  0.00  0.00     0.014 A 
ATOM      5  N1  <0> d           4.094  -0.249  -0.038  0.00  0.00    -0.272 NA
ATOM      6  C5  <0> d           5.079   0.629  -0.043  0.00  0.00     0.002 A 
ATOM      7  H1  <0> d           5.639   2.697  -0.037  0.00  0.00     0.085 H 
ATOM      8  H2  <0> d           3.284   3.487  -0.011  0.00  0.00     0.085 H 
ATOM      9  H3  <0> d           2.053  -0.626  -0.011  0.00  0.00     0.116 H 
ATOM     10  H4  <0> d           6.101   0.281  -0.055  0.00  0.00     0.114 H 
ENDROOT
BRANCH   3  11
ATOM     11  C6  <0> d           1.071   1.893   0.002  0.00  0.00     0.106 A 
ATOM     12  O1  <0> d           0.605   3.161   0.013  0.00  0.00    -0.302 OA
ATOM     13  C8  <0> d          -0.734   3.103   0.026  0.00  0.00     0.103 A 
ATOM     14  N2  <0> d          -1.105   1.854   0.017  0.00  0.00    -0.246 NA
ATOM     15  H6  <0> d          -1.398   3.955   0.037  0.00  0.00     0.155 H 
ATOM     16  C7  <0> d          -0.013   1.076   0.008  0.00  0.00     0.037 A 
ATOM     17  H5  <0> d           0.002  -0.004   0.002  0.00  0.00     0.119 H 
ENDBRANCH   3  11
TORSDOF 1
