REMARK  4 active torsions:
REMARK  status: ('A' for Active; 'I' for Inactive)
REMARK    1  A    between atoms: C1_1  and  O1_2 
REMARK    2  A    between atoms: O1_2  and  C2_3 
REMARK    3  A    between atoms: C2_3  and  C3_5 
REMARK    4  A    between atoms: C4_6  and  N1_10 
ROOT
ATOM      1  C3  <0> d          -1.285   3.039   0.030  0.00  0.00     0.106 A 
ATOM      2  C4  <0> d          -1.226   1.645   0.017  0.00  0.00     0.049 A 
ATOM      3  C5  <0> d          -2.431   0.974   0.019  0.00  0.00    -0.050 A 
ATOM      4  C6  <0> d          -3.585   1.685   0.029  0.00  0.00    -0.042 A 
ATOM      5  S1  <0> d          -3.044   3.331   0.034  0.00  0.00    -0.094 SA
ATOM      6  H4  <0> d          -2.454  -0.106   0.014  0.00  0.00     0.087 H 
ATOM      7  H5  <0> d          -4.600   1.314   0.032  0.00  0.00     0.095 H 
ENDROOT
BRANCH   1   8
ATOM      8  C2  <0> d          -0.227   3.975   0.036  0.00  0.00     0.302 C 
ATOM      9  O2  <0> d           0.928   3.589   0.030  0.00  0.00    -0.259 OA
BRANCH   8  10
ATOM     10  O1  <0> d          -0.496   5.298   0.049  0.00  0.00    -0.322 OA
BRANCH  10  11
ATOM     11  C1  <0> d           0.623   6.188   0.055  0.00  0.00     0.013 C 
ATOM     12  H1  <0> d           0.267   7.218   0.065  0.00  0.00     0.067 H 
ATOM     13  H2  <0> d           1.229   6.004   0.941  0.00  0.00     0.067 H 
ATOM     14  H3  <0> d           1.224   6.020  -0.839  0.00  0.00     0.067 H 
ENDBRANCH  10  11
ENDBRANCH   8  10
ENDBRANCH   1   8
BRANCH   2  15
ATOM     15  N1  <0> d          -0.011   0.966   0.007  0.00  0.00    -0.398 N 
ATOM     16  H6  <0> d           0.002  -0.004   0.002  0.00  0.00     0.156 HD
ATOM     17  H7  <0> d           0.822   1.462   0.002  0.00  0.00     0.156 HD
ENDBRANCH   2  15
TORSDOF 4
