REMARK  2 active torsions:
REMARK  status: ('A' for Active; 'I' for Inactive)
REMARK    1  A    between atoms: C3_3  and  C6_7 
REMARK    2  A    between atoms: C6_7  and  C7_9 
ROOT
ATOM      1  C7  <0> d          -0.013   1.086   0.008  0.00  0.00     0.074 C 
ATOM      2  C8  <0> d          -0.725   1.573  -1.185  0.00  0.00     0.067 C 
ATOM      3  N2  <0> d          -1.274   1.950  -2.105  0.00  0.00    -0.197 NA
ATOM      4  H5  <0> d           0.001   0.086   0.003  0.00  0.00     0.067 H 
ATOM      5  H6  <0> d           1.010   1.463   0.000  0.00  0.00     0.067 H 
ENDROOT
BRANCH   1   6
ATOM      6  C6  <0> d          -0.718   1.572   1.248  0.00  0.00     0.173 C 
ATOM      7  O1  <0> d          -1.714   2.256   1.150  0.00  0.00    -0.291 OA
BRANCH   6   8
ATOM      8  C3  <0> d          -0.198   1.216   2.578  0.00  0.00     0.028 A 
ATOM      9  C2  <0> d          -0.841   1.667   3.740  0.00  0.00    -0.067 A 
ATOM     10  C1  <0> d          -0.313   1.300   4.965  0.00  0.00    -0.065 A 
ATOM     11  H2  <0> d          -1.727   2.281   3.680  0.00  0.00     0.085 H 
ATOM     12  C5  <0> d           0.826   0.516   5.005  0.00  0.00     0.002 A 
ATOM     13  H1  <0> d          -0.784   1.625   5.881  0.00  0.00     0.085 H 
ATOM     14  N1  <0> d           1.414   0.110   3.895  0.00  0.00    -0.272 NA
ATOM     15  H4  <0> d           1.242   0.232   5.960  0.00  0.00     0.114 H 
ATOM     16  C4  <0> d           0.950   0.428   2.705  0.00  0.00     0.015 A 
ATOM     17  H3  <0> d           1.460   0.076   1.820  0.00  0.00     0.116 H 
ENDBRANCH   6   8
ENDBRANCH   1   6
TORSDOF 2
