REMARK  6 active torsions:
REMARK  status: ('A' for Active; 'I' for Inactive)
REMARK    1  A    between atoms: C1_1  and  C2_2 
REMARK    2  A    between atoms: C2_2  and  C3_3 
REMARK    3  A    between atoms: C2_2  and  C4_4 
REMARK    4  A    between atoms: C4_4  and  O1_5 
REMARK    5  A    between atoms: O1_5  and  C5_6 
REMARK    6  A    between atoms: C5_6  and  C6_8 
ROOT
ATOM      1  C6  <0> d          -1.329   1.940   0.019  0.00  0.00     0.095 C 
ATOM      2  C7  <0> d          -2.435   0.968   0.019  0.00  0.00     0.069 C 
ATOM      3  N1  <0> d          -3.289   0.218   0.019  0.00  0.00    -0.197 NA
ATOM      4  H10 <0> d          -1.391   2.561   0.913  0.00  0.00     0.070 H 
ATOM      5  H11 <0> d          -1.400   2.570  -0.867  0.00  0.00     0.070 H 
ENDROOT
BRANCH   1   6
ATOM      6  C5  <0> d          -0.014   1.204   0.009  0.00  0.00     0.271 C 
ATOM      7  O2  <0> d           0.002  -0.004   0.002  0.00  0.00    -0.264 OA
BRANCH   6   8
ATOM      8  O1  <0> d           1.139   1.891   0.001  0.00  0.00    -0.320 OA
BRANCH   8   9
ATOM      9  C4  <0> d           2.367   1.117  -0.015  0.00  0.00     0.032 C 
ATOM     10  H8  <0> d           2.409   0.484   0.872  0.00  0.00     0.075 H 
ATOM     11  H9  <0> d           2.392   0.493  -0.908  0.00  0.00     0.075 H 
BRANCH   9  12
ATOM     12  C2  <0> d           3.568   2.065  -0.021  0.00  0.00    -0.040 C 
ATOM     13  H4  <0> d           3.479   2.757  -0.858  0.00  0.00     0.042 H 
BRANCH  12  14
ATOM     14  C1  <0> d           3.603   2.853   1.290  0.00  0.00    -0.071 C 
ATOM     15  H1  <0> d           4.458   3.528   1.286  0.00  0.00     0.028 H 
ATOM     16  H2  <0> d           2.684   3.430   1.392  0.00  0.00     0.028 H 
ATOM     17  H3  <0> d           3.691   2.160   2.128  0.00  0.00     0.028 H 
ENDBRANCH  12  14
BRANCH  12  18
ATOM     18  C3  <0> d           4.857   1.254  -0.163  0.00  0.00    -0.071 C 
ATOM     19  H5  <0> d           4.833   0.694  -1.097  0.00  0.00     0.028 H 
ATOM     20  H6  <0> d           5.713   1.930  -0.168  0.00  0.00     0.028 H 
ATOM     21  H7  <0> d           4.946   0.562   0.674  0.00  0.00     0.028 H 
ENDBRANCH  12  18
ENDBRANCH   9  12
ENDBRANCH   8   9
ENDBRANCH   6   8
ENDBRANCH   1   6
TORSDOF 6
