REMARK  2 active torsions:
REMARK  status: ('A' for Active; 'I' for Inactive)
REMARK    1  A    between atoms: C3_3  and  C6_9 
REMARK    2  A    between atoms: C4_5  and  C5_7 
ROOT
ATOM      1  C1  <0> d           0.989   3.727  -1.373  0.00  0.00    -0.051 C 
ATOM      2  C2  <0> d           2.102   4.729  -1.024  0.00  0.00    -0.051 C 
ATOM      3  C3  <0> d           2.664   3.656  -0.077  0.00  0.00     0.043 C 
ATOM      4  H1  <0> d           3.372   2.979  -0.556  0.00  0.00     0.058 H 
ATOM      5  C4  <0> d           1.235   3.094   0.007  0.00  0.00     0.043 C 
ATOM      6  H2  <0> d           0.637   3.537   0.803  0.00  0.00     0.058 H 
ATOM      7  H3  <0> d           1.239   3.070  -2.206  0.00  0.00     0.034 H 
ATOM      8  H4  <0> d           0.005   4.185  -1.474  0.00  0.00     0.034 H 
ATOM      9  H5  <0> d           2.760   4.960  -1.862  0.00  0.00     0.034 H 
ATOM     10  H6  <0> d           1.742   5.621  -0.511  0.00  0.00     0.034 H 
ENDROOT
BRANCH   3  11
ATOM     11  C6  <0> d           3.173   4.209   1.228  0.00  0.00     0.177 C 
ATOM     12  O2  <0> d           2.471   4.182   2.211  0.00  0.00    -0.648 OA
ATOM     13  O4  <0> d           4.407   4.732   1.300  0.00  0.00    -0.648 OA
ENDBRANCH   3  11
BRANCH   5  14
ATOM     14  C5  <0> d           1.177   1.588  -0.001  0.00  0.00     0.177 C 
ATOM     15  O1  <0> d           2.199   0.944  -0.014  0.00  0.00    -0.648 OA
ATOM     16  O3  <0> d          -0.011   0.963   0.007  0.00  0.00    -0.648 OA
ENDBRANCH   5  14
TORSDOF 2
