REMARK  2 active torsions:
REMARK  status: ('A' for Active; 'I' for Inactive)
REMARK    1  A    between atoms: C1_1  and  C2_2 
REMARK    2  A    between atoms: C2_2  and  C3_3 
ROOT
ATOM      1  C3  <0> d          -0.046   3.750   0.022  0.00  0.00    -0.000 A 
ATOM      2  C4  <0> d           1.152   3.056   0.007  0.00  0.00     0.013 A 
ATOM      3  N1  <0> d           1.130   1.733   0.001  0.00  0.00    -0.253 NA
ATOM      4  C5  <0> d          -0.013   1.076   0.008  0.00  0.00     0.087 A 
ATOM      5  N2  <0> d          -1.172   1.701   0.017  0.00  0.00    -0.229 NA
ATOM      6  C6  <0> d          -1.229   3.025   0.029  0.00  0.00     0.135 A 
ATOM      7 Cl1  <0> d          -2.762   3.840   0.047  0.00  0.00    -0.062 Cl
ATOM      8  H6  <0> d           2.092   3.588   0.001  0.00  0.00     0.115 H 
ATOM      9  H7  <0> d           0.002  -0.004   0.002  0.00  0.00     0.146 H 
ENDROOT
BRANCH   1  10
ATOM     10  C2  <0> d          -0.065   5.257   0.030  0.00  0.00    -0.040 C 
ATOM     11  H4  <0> d           0.908   5.634   0.378  0.00  0.00     0.039 H 
ATOM     12  H5  <0> d          -0.858   5.610   0.706  0.00  0.00     0.039 H 
BRANCH  10  13
ATOM     13  C1  <0> d          -0.335   5.772  -1.385  0.00  0.00    -0.072 C 
ATOM     14  H1  <0> d          -0.349   6.872  -1.379  0.00  0.00     0.028 H 
ATOM     15  H2  <0> d          -1.308   5.395  -1.733  0.00  0.00     0.028 H 
ATOM     16  H3  <0> d           0.458   5.419  -2.061  0.00  0.00     0.028 H 
ENDBRANCH  10  13
ENDBRANCH   1  10
TORSDOF 2
