REMARK  0 active torsions:
REMARK  status: ('A' for Active; 'I' for Inactive)
ROOT
ATOM      1  C1  <0> d           1.107   3.195   0.008  0.00  0.00    -0.043 A 
ATOM      2  C2  <0> d          -0.152   3.770   0.023  0.00  0.00     0.025 A 
ATOM      3  N1  <0> d          -1.227   3.004   0.029  0.00  0.00    -0.163 NA
ATOM      4  N2  <0> d          -1.161   1.723   0.017  0.00  0.00    -0.162 NA
ATOM      5  C3  <0> d          -0.013   1.076   0.008  0.00  0.00     0.044 A 
ATOM      6  C4  <0> d           1.187   1.796   0.000  0.00  0.00     0.065 A 
ATOM      7  C5  <0> d           2.453   1.126  -0.015  0.00  0.00     0.101 C 
ATOM      8  N3  <0> d           3.457   0.595  -0.028  0.00  0.00    -0.191 NA
ATOM      9  H1  <0> d           1.998   3.805   0.003  0.00  0.00     0.088 H 
ATOM     10  H2  <0> d          -0.256   4.845   0.029  0.00  0.00     0.117 H 
ATOM     11  H3  <0> d           0.002  -0.004   0.002  0.00  0.00     0.119 H 
ENDROOT
TORSDOF 0
