REMARK  3 active torsions:
REMARK  status: ('A' for Active; 'I' for Inactive)
REMARK    1  A    between atoms: C1_1  and  C2_2 
REMARK    2  A    between atoms: C6_9  and  C7_10 
REMARK    3  A    between atoms: C6_9  and  C8_11 
ROOT
ATOM      1  C2  <0> d          -0.051   1.006   2.533  0.00  0.00    -0.041 C 
ATOM      2  H1  <0> d          -0.769   0.439   3.125  0.00  0.00     0.041 H 
ATOM      3  C3  <0> d           0.435   2.262   3.320  0.00  0.00     0.008 C 
ATOM      4  H2  <0> d           0.613   2.010   4.271  0.00  0.00     0.052 H 
ATOM      5  C4  <0> d          -0.700   3.285   2.966  0.00  0.00    -0.051 C 
ATOM      6  C5  <0> d          -0.577   3.125   1.409  0.00  0.00    -0.040 C 
ATOM      7  H3  <0> d          -1.252   3.731   0.805  0.00  0.00     0.041 H 
ATOM      8  C6  <0> d          -0.729   1.579   1.267  0.00  0.00    -0.040 C 
ATOM      9  C9  <0> d           0.950   3.381   1.224  0.00  0.00    -0.005 C 
ATOM     10  C10 <0> d           1.596   2.817   2.481  0.00  0.00     0.131 C 
ATOM     11  O1  <0> d           2.771   2.808   2.760  0.00  0.00    -0.298 OA
ATOM     12  H7  <0> d          -1.673   2.962   3.336  0.00  0.00     0.034 H 
ATOM     13  H8  <0> d          -0.458   4.296   3.295  0.00  0.00     0.034 H 
ATOM     14  H15 <0> d           1.268   2.918   0.397  0.00  0.00     0.044 H 
ATOM     15  H16 <0> d           1.148   4.450   1.141  0.00  0.00     0.044 H 
ENDROOT
BRANCH   8  16
ATOM     16  C7  <0> d          -0.013   1.086   0.008  0.00  0.00    -0.069 C 
ATOM     17  H9  <0> d          -0.178   0.015  -0.108  0.00  0.00     0.028 H 
ATOM     18  H10 <0> d           1.056   1.281   0.098  0.00  0.00     0.028 H 
ATOM     19  H11 <0> d          -0.406   1.610  -0.863  0.00  0.00     0.028 H 
ENDBRANCH   8  16
BRANCH   8  20
ATOM     20  C8  <0> d          -2.207   1.186   1.228  0.00  0.00    -0.069 C 
ATOM     21  H12 <0> d          -2.293   0.102   1.160  0.00  0.00     0.028 H 
ATOM     22  H13 <0> d          -2.699   1.534   2.136  0.00  0.00     0.028 H 
ATOM     23  H14 <0> d          -2.682   1.643   0.360  0.00  0.00     0.028 H 
ENDBRANCH   8  20
BRANCH   1  24
ATOM     24  C1  <0> d           1.138   0.123   2.149  0.00  0.00    -0.071 C 
ATOM     25  H4  <0> d           1.865   0.715   1.594  0.00  0.00     0.028 H 
ATOM     26  H5  <0> d           1.603  -0.272   3.052  0.00  0.00     0.028 H 
ATOM     27  H6  <0> d           0.791  -0.702   1.528  0.00  0.00     0.028 H 
ENDBRANCH   1  24
TORSDOF 3
