REMARK  0 active torsions:
REMARK  status: ('A' for Active; 'I' for Inactive)
ROOT
ATOM      1  C1  <0> d           2.102   5.327  -1.439  0.00  0.00    -0.082 A 
ATOM      2  C2  <0> d           0.868   5.950  -1.420  0.00  0.00    -0.082 A 
ATOM      3  C3  <0> d          -0.236   5.275  -0.938  0.00  0.00    -0.075 A 
ATOM      4  C4  <0> d          -0.114   3.973  -0.473  0.00  0.00    -0.034 A 
ATOM      5  C5  <0> d           1.117   3.353  -0.493  0.00  0.00    -0.042 A 
ATOM      6  C6  <0> d           2.225   4.032  -0.977  0.00  0.00    -0.076 A 
ATOM      7  C7  <0> d           1.291   1.943   0.000  0.00  0.00     0.034 C 
ATOM      8  C8  <0> d          -0.014   1.209   0.009  0.00  0.00     0.222 C 
ATOM      9  O1  <0> d           0.002  -0.004   0.002  0.00  0.00    -0.273 OA
ATOM     10  N1  <0> d          -1.195   1.831   0.018  0.00  0.00    -0.357 N 
ATOM     11  C9  <0> d          -1.340   3.276   0.045  0.00  0.00     0.019 C 
ATOM     12  H1  <0> d           2.968   5.852  -1.814  0.00  0.00     0.083 H 
ATOM     13  H2  <0> d           0.767   6.963  -1.781  0.00  0.00     0.083 H 
ATOM     14  H3  <0> d          -1.199   5.762  -0.924  0.00  0.00     0.084 H 
ATOM     15  H4  <0> d           3.189   3.546  -0.991  0.00  0.00     0.084 H 
ATOM     16  H5  <0> d           1.695   1.966   1.012  0.00  0.00     0.054 H 
ATOM     17  H6  <0> d           1.991   1.421  -0.652  0.00  0.00     0.054 H 
ATOM     18  H7  <0> d          -1.999   1.289   0.010  0.00  0.00     0.162 HD
ATOM     19  H8  <0> d          -1.525   3.599   1.070  0.00  0.00     0.071 H 
ATOM     20  H9  <0> d          -2.194   3.556  -0.572  0.00  0.00     0.071 H 
ENDROOT
TORSDOF 0
