REMARK  4 active torsions:
REMARK  status: ('A' for Active; 'I' for Inactive)
REMARK    1  A    between atoms: C1_1  and  C2_2 
REMARK    2  A    between atoms: C3_3  and  C4_4 
REMARK    3  A    between atoms: C4_4  and  C5_5 
REMARK    4  A    between atoms: C5_5  and  C6_6 
ROOT
ATOM      1  C4  <0> d           0.589  -2.153  -0.998  0.00  0.00    -0.045 C 
ATOM      2  H6  <0> d           1.619  -2.503  -0.920  0.00  0.00     0.039 H 
ATOM      3  H7  <0> d           0.013  -2.529  -0.152  0.00  0.00     0.039 H 
ENDROOT
BRANCH   1   4
ATOM      4  C3  <0> d           0.569  -0.646  -0.989  0.00  0.00    -0.107 C 
ATOM      5  C2  <0> d           0.002  -0.004   0.002  0.00  0.00    -0.110 C 
ATOM      6  H4  <0> d          -0.451  -0.555   0.813  0.00  0.00     0.075 H 
ATOM      7  H5  <0> d           1.021  -0.095  -1.801  0.00  0.00     0.076 H 
BRANCH   5   8
ATOM      8  C1  <0> d          -0.018   1.503   0.010  0.00  0.00    -0.060 C 
ATOM      9  H1  <0> d           1.004   1.880   0.003  0.00  0.00     0.032 H 
ATOM     10  H2  <0> d          -0.545   1.864  -0.873  0.00  0.00     0.032 H 
ATOM     11  H3  <0> d          -0.529   1.854   0.907  0.00  0.00     0.032 H 
ENDBRANCH   5   8
ENDBRANCH   1   4
BRANCH   1  12
ATOM     12  C5  <0> d          -0.026  -2.664  -2.302  0.00  0.00    -0.018 C 
ATOM     13  H8  <0> d          -1.055  -2.314  -2.380  0.00  0.00     0.043 H 
ATOM     14  H9  <0> d           0.550  -2.288  -3.147  0.00  0.00     0.043 H 
BRANCH  12  15
ATOM     15  C6  <0> d          -0.005  -4.171  -2.310  0.00  0.00     0.052 A 
ATOM     16  O1  <0> d           0.988  -4.940  -2.785  0.00  0.00    -0.327 OA
ATOM     17  C9  <0> d           0.667  -6.235  -2.626  0.00  0.00     0.019 A 
ATOM     18  C8  <0> d          -0.548  -6.304  -2.052  0.00  0.00    -0.059 A 
ATOM     19  H12 <0> d           1.278  -7.077  -2.913  0.00  0.00     0.123 H 
ATOM     20  C7  <0> d          -0.982  -4.973  -1.849  0.00  0.00    -0.052 A 
ATOM     21  H11 <0> d          -1.089  -7.203  -1.796  0.00  0.00     0.086 H 
ATOM     22  H10 <0> d          -1.916  -4.661  -1.407  0.00  0.00     0.087 H 
ENDBRANCH  12  15
ENDBRANCH   1  12
TORSDOF 4
