REMARK  4 active torsions:
REMARK  status: ('A' for Active; 'I' for Inactive)
REMARK    1  A    between atoms: C1_1  and  C2_2 
REMARK    2  A    between atoms: C4_4  and  C8_10 
REMARK    3  A    between atoms: C5_6  and  C7_9 
REMARK    4  A    between atoms: C6_7  and  O1_8 
ROOT
ATOM      1  C2  <0> d          -0.653   2.253   3.543  0.00  0.00    -0.025 A 
ATOM      2  C3  <0> d          -2.023   2.450   3.471  0.00  0.00    -0.051 A 
ATOM      3  C4  <0> d          -2.680   2.197   2.281  0.00  0.00     0.031 A 
ATOM      4  N1  <0> d          -2.020   1.777   1.220  0.00  0.00    -0.256 NA
ATOM      5  C5  <0> d          -0.718   1.572   1.248  0.00  0.00     0.064 A 
ATOM      6  C6  <0> d           0.010   1.804   2.406  0.00  0.00     0.096 A 
ATOM      7  H4  <0> d          -2.571   2.799   4.334  0.00  0.00     0.087 H 
ENDROOT
BRANCH   1   8
ATOM      8  C1  <0> d           0.099   2.519   4.821  0.00  0.00    -0.049 C 
ATOM      9  H1  <0> d           0.435   3.555   4.836  0.00  0.00     0.033 H 
ATOM     10  H2  <0> d          -0.557   2.337   5.673  0.00  0.00     0.033 H 
ATOM     11  H3  <0> d           0.962   1.855   4.880  0.00  0.00     0.033 H 
ENDBRANCH   1   8
BRANCH   6  12
ATOM     12  O1  <0> d           1.353   1.597   2.428  0.00  0.00    -0.358 OA
ATOM     13  H5  <0> d           1.875   2.373   2.183  0.00  0.00     0.217 HD
ENDBRANCH   6  12
BRANCH   5  14
ATOM     14  C7  <0> d          -0.013   1.086   0.008  0.00  0.00    -0.033 C 
ATOM     15  H6  <0> d           0.002  -0.004   0.002  0.00  0.00     0.035 H 
ATOM     16  H7  <0> d           1.010   1.463   0.000  0.00  0.00     0.035 H 
ATOM     17  H8  <0> d          -0.540   1.447  -0.875  0.00  0.00     0.035 H 
ENDBRANCH   5  14
BRANCH   3  18
ATOM     18  C8  <0> d          -4.169   2.409   2.195  0.00  0.00    -0.035 C 
ATOM     19  H9  <0> d          -4.373   3.433   1.881  0.00  0.00     0.035 H 
ATOM     20  H10 <0> d          -4.593   1.715   1.469  0.00  0.00     0.035 H 
ATOM     21  H11 <0> d          -4.619   2.232   3.172  0.00  0.00     0.035 H 
ENDBRANCH   3  18
TORSDOF 4
