REMARK  2 active torsions:
REMARK  status: ('A' for Active; 'I' for Inactive)
REMARK    1  A    between atoms: C3_3  and  C5_6 
REMARK    2  A    between atoms: C5_6  and  C6_7 
REMARK       I    between atoms: C6_7  and  N1_9 
ROOT
ATOM      1  C1  <0> d          -4.121  -0.517   0.831  0.00  0.00    -0.076 A 
ATOM      2  C2  <0> d          -3.094   0.376   1.072  0.00  0.00    -0.069 A 
ATOM      3  C3  <0> d          -2.462   0.950   0.019  0.00  0.00    -0.009 A 
ATOM      4  S1  <0> d          -3.312   0.214  -1.368  0.00  0.00    -0.106 SA
ATOM      5  C4  <0> d          -4.458  -0.802  -0.451  0.00  0.00    -0.045 A 
ATOM      6  H1  <0> d          -4.644  -0.985   1.652  0.00  0.00     0.084 H 
ATOM      7  H2  <0> d          -2.802   0.616   2.083  0.00  0.00     0.085 H 
ATOM      8  H3  <0> d          -5.222  -1.470  -0.821  0.00  0.00     0.095 H 
ENDROOT
BRANCH   3   9
ATOM      9  C5  <0> d          -1.330   1.944   0.019  0.00  0.00     0.039 C 
ATOM     10  H4  <0> d          -1.392   2.565   0.913  0.00  0.00     0.055 H 
ATOM     11  H5  <0> d          -1.400   2.575  -0.867  0.00  0.00     0.055 H 
BRANCH   9  12
ATOM     12  C6  <0> d          -0.014   1.209   0.009  0.00  0.00     0.220 C 
ATOM     13  O1  <0> d           0.002  -0.004   0.002  0.00  0.00    -0.273 OA
ATOM     14  N1  <0> d           1.143   1.898   0.001  0.00  0.00    -0.370 N 
ATOM     15  H6  <0> d           1.990   1.425  -0.009  0.00  0.00     0.159 HD
ATOM     16  H7  <0> d           1.130   2.868   0.007  0.00  0.00     0.159 HD
ENDBRANCH   9  12
ENDBRANCH   3   9
TORSDOF 2
