REMARK  6 active torsions:
REMARK  status: ('A' for Active; 'I' for Inactive)
REMARK    1  A    between atoms: C1_1  and  C2_2 
REMARK    2  A    between atoms: C2_2  and  C3_3 
REMARK    3  A    between atoms: C3_3  and  C4_4 
REMARK    4  A    between atoms: C4_4  and  C5_6 
REMARK    5  A    between atoms: C4_4  and  N1_7 
REMARK    6  A    between atoms: C6_8  and  N3_12 
ROOT
ATOM      1  C4  <0> d          -0.320   3.988   0.037  0.00  0.00     0.033 C 
ATOM      2  H1  <0> d           0.647   3.485   0.029  0.00  0.00     0.075 H 
ENDROOT
BRANCH   1   3
ATOM      3  C3  <0> d          -0.436   4.851   1.295  0.00  0.00    -0.045 C 
ATOM      4  H7  <0> d          -1.363   5.422   1.260  0.00  0.00     0.036 H 
ATOM      5  H8  <0> d          -0.437   4.210   2.176  0.00  0.00     0.036 H 
BRANCH   3   6
ATOM      6  C2  <0> d           0.753   5.812   1.365  0.00  0.00    -0.067 C 
ATOM      7  H5  <0> d           1.680   5.241   1.401  0.00  0.00     0.032 H 
ATOM      8  H6  <0> d           0.754   6.453   0.484  0.00  0.00     0.032 H 
BRANCH   6   9
ATOM      9  C1  <0> d           0.637   6.675   2.623  0.00  0.00    -0.076 C 
ATOM     10  H2  <0> d           1.483   7.360   2.673  0.00  0.00     0.027 H 
ATOM     11  H3  <0> d          -0.291   7.246   2.588  0.00  0.00     0.027 H 
ATOM     12  H4  <0> d           0.635   6.034   3.505  0.00  0.00     0.027 H 
ENDBRANCH   6   9
ENDBRANCH   3   6
ENDBRANCH   1   3
BRANCH   1  13
ATOM     13  C5  <0> d          -0.443   4.875  -1.203  0.00  0.00    -0.055 C 
ATOM     14  H9  <0> d          -1.410   5.378  -1.196  0.00  0.00     0.030 H 
ATOM     15  H10 <0> d           0.353   5.619  -1.199  0.00  0.00     0.030 H 
ATOM     16  H11 <0> d          -0.361   4.260  -2.100  0.00  0.00     0.030 H 
ENDBRANCH   1  13
BRANCH   1  17
ATOM     17  N1  <0> d          -1.391   2.988   0.030  0.00  0.00    -0.250 N 
ATOM     18  N2  <0> d          -2.766   3.253   0.034  0.00  0.00    -0.183 NA
ATOM     19  C8  <0> d          -3.406   2.112   0.031  0.00  0.00     0.025 A 
ATOM     20  C7  <0> d          -2.465   1.079   0.020  0.00  0.00    -0.021 A 
ATOM     21  H13 <0> d          -4.479   1.989   0.036  0.00  0.00     0.117 H 
ATOM     22  C6  <0> d          -1.226   1.645   0.017  0.00  0.00     0.119 A 
ATOM     23  H12 <0> d          -2.680   0.021   0.016  0.00  0.00     0.091 H 
BRANCH  22  24
ATOM     24  N3  <0> d          -0.011   0.966   0.007  0.00  0.00    -0.384 N 
ATOM     25  H14 <0> d           0.002  -0.004   0.002  0.00  0.00     0.157 HD
ATOM     26  H15 <0> d           0.822   1.462   0.002  0.00  0.00     0.157 HD
ENDBRANCH  22  24
ENDBRANCH   1  17
TORSDOF 6
