REMARK  3 active torsions:
REMARK  status: ('A' for Active; 'I' for Inactive)
REMARK    1  A    between atoms: C1_1  and  C2_2 
REMARK    2  A    between atoms: C2_2  and  C3_3 
REMARK    3  A    between atoms: C2_2  and  C4_4 
ROOT
ATOM      1  C2  <0> d           0.002  -0.004   0.002  0.00  0.00     0.026 C 
ATOM      2 Cl1  <0> d           0.846  -0.586  -1.481  0.00  0.00    -0.120 Cl
ENDROOT
BRANCH   1   3
ATOM      3  C1  <0> d          -0.019   1.526   0.010  0.00  0.00    -0.057 C 
ATOM      4  H1  <0> d           1.004   1.903   0.003  0.00  0.00     0.029 H 
ATOM      5  H2  <0> d          -0.546   1.887  -0.873  0.00  0.00     0.029 H 
ATOM      6  H3  <0> d          -0.529   1.877   0.907  0.00  0.00     0.029 H 
ENDBRANCH   1   3
BRANCH   1   7
ATOM      7  C3  <0> d           0.742  -0.511   1.242  0.00  0.00    -0.057 C 
ATOM      8  H4  <0> d           0.232  -0.159   2.138  0.00  0.00     0.029 H 
ATOM      9  H5  <0> d           0.757  -1.601   1.236  0.00  0.00     0.029 H 
ATOM     10  H6  <0> d           1.765  -0.134   1.234  0.00  0.00     0.029 H 
ENDBRANCH   1   7
BRANCH   1  11
ATOM     11  C4  <0> d          -1.433  -0.534   0.013  0.00  0.00    -0.057 C 
ATOM     12  H7  <0> d          -1.960  -0.173  -0.870  0.00  0.00     0.029 H 
ATOM     13  H8  <0> d          -1.419  -1.623   0.007  0.00  0.00     0.029 H 
ATOM     14  H9  <0> d          -1.944  -0.182   0.910  0.00  0.00     0.029 H 
ENDBRANCH   1  11
TORSDOF 3
