REMARK  5 active torsions:
REMARK  status: ('A' for Active; 'I' for Inactive)
REMARK    1  A    between atoms: C1_1  and  C2_2 
REMARK    2  A    between atoms: C2_2  and  C3_3 
REMARK    3  A    between atoms: C2_2  and  C4_4 
REMARK    4  A    between atoms: C5_6  and  N4_10 
REMARK    5  A    between atoms: N2_7  and  C6_9 
ROOT
ATOM      1  C4  <0> d          -1.412  -0.526   0.013  0.00  0.00     0.169 A 
ATOM      2  N1  <0> d          -2.318  -0.284   0.961  0.00  0.00    -0.046 NA
ATOM      3  C5  <0> d          -3.447  -0.889   0.660  0.00  0.00     0.718 A 
ATOM      4  N2  <0> d          -3.269  -1.539  -0.510  0.00  0.00    -0.102 N 
ATOM      5  N3  <0> d          -1.947  -1.282  -0.908  0.00  0.00    -0.141 NA
ENDROOT
BRANCH   1   6
ATOM      6  C2  <0> d           0.002  -0.004   0.002  0.00  0.00     0.001 C 
ATOM      7  H4  <0> d           0.512  -0.356  -0.895  0.00  0.00     0.051 H 
BRANCH   6   8
ATOM      8  C1  <0> d          -0.019   1.526   0.010  0.00  0.00    -0.066 C 
ATOM      9  H1  <0> d           1.004   1.903   0.003  0.00  0.00     0.028 H 
ATOM     10  H2  <0> d          -0.546   1.887  -0.873  0.00  0.00     0.028 H 
ATOM     11  H3  <0> d          -0.529   1.877   0.907  0.00  0.00     0.028 H 
ENDBRANCH   6   8
BRANCH   6  12
ATOM     12  C3  <0> d           0.742  -0.511   1.242  0.00  0.00    -0.066 C 
ATOM     13  H5  <0> d           0.232  -0.159   2.138  0.00  0.00     0.028 H 
ATOM     14  H6  <0> d           0.757  -1.601   1.236  0.00  0.00     0.028 H 
ATOM     15  H7  <0> d           1.765  -0.134   1.234  0.00  0.00     0.028 H 
ENDBRANCH   6  12
ENDBRANCH   1   6
BRANCH   4  16
ATOM     16  C6  <0> d          -4.260  -2.347  -1.226  0.00  0.00     0.020 C 
ATOM     17  H8  <0> d          -4.818  -1.712  -1.914  0.00  0.00     0.060 H 
ATOM     18  H9  <0> d          -3.752  -3.132  -1.786  0.00  0.00     0.060 H 
ATOM     19  H10 <0> d          -4.947  -2.798  -0.509  0.00  0.00     0.060 H 
ENDBRANCH   4  16
BRANCH   3  20
ATOM     20  N4  <0> d          -4.609  -0.865   1.409  0.00  0.00    -0.231 N 
ATOM     21  H11 <0> d          -4.639  -0.367   2.241  0.00  0.00     0.174 HD
ATOM     22  H12 <0> d          -5.394  -1.346   1.103  0.00  0.00     0.174 HD
ENDBRANCH   3  20
TORSDOF 5
