REMARK  3 active torsions:
REMARK  status: ('A' for Active; 'I' for Inactive)
REMARK    1  A    between atoms: C1_1  and  C2_2 
REMARK    2  A    between atoms: C2_2  and  C3_3 
REMARK    3  A    between atoms: C2_2  and  N2_6 
ROOT
ATOM      1  C2  <0> d           3.519   1.922   1.210  0.00  0.00     0.239 C 
ATOM      2  C4  <0> d           4.264   1.482   0.019  0.00  0.00     0.101 C 
ATOM      3  N1  <0> d           4.838   1.142  -0.900  0.00  0.00    -0.195 NA
ENDROOT
BRANCH   1   4
ATOM      4  C1  <0> d           3.479   3.451   1.250  0.00  0.00    -0.030 C 
ATOM      5  H1  <0> d           2.980   3.829   0.346  0.00  0.00     0.032 H 
ATOM      6  H2  <0> d           4.505   3.843   1.294  0.00  0.00     0.032 H 
ATOM      7  H3  <0> d           2.922   3.779   2.140  0.00  0.00     0.032 H 
ENDBRANCH   1   4
BRANCH   1   8
ATOM      8  C3  <0> d           4.212   1.396   2.468  0.00  0.00    -0.030 C 
ATOM      9  H4  <0> d           4.241   0.297   2.439  0.00  0.00     0.032 H 
ATOM     10  H5  <0> d           3.655   1.725   3.358  0.00  0.00     0.032 H 
ATOM     11  H6  <0> d           5.239   1.788   2.512  0.00  0.00     0.032 H 
ENDBRANCH   1   8
BRANCH   1  12
ATOM     12  N2  <0> d           2.148   1.397   1.151  0.00  0.00     0.115 N 
ATOM     13  C8  <0> d           2.147  -0.072   1.111  0.00  0.00     0.135 C 
ATOM     14  C7  <0> d           0.701  -0.577   1.111  0.00  0.00     0.044 C 
ATOM     15  H13 <0> d           2.656  -0.414   0.198  0.00  0.00     0.083 H 
ATOM     16  H14 <0> d           2.674  -0.464   1.994  0.00  0.00     0.083 H 
ATOM     17  O1  <0> d           0.002  -0.004   0.002  0.00  0.00    -0.388 OA
ATOM     18  H11 <0> d           0.207  -0.280   2.048  0.00  0.00     0.077 H 
ATOM     19  H12 <0> d           0.693  -1.673   1.022  0.00  0.00     0.077 H 
ATOM     20  C6  <0> d          -0.017   1.426   0.010  0.00  0.00     0.044 C 
ATOM     21  C5  <0> d           1.421   1.950  -0.001  0.00  0.00     0.135 C 
ATOM     22  H9  <0> d          -0.531   1.783   0.915  0.00  0.00     0.077 H 
ATOM     23  H10 <0> d          -0.548   1.792  -0.881  0.00  0.00     0.077 H 
ATOM     24  H7  <0> d           1.413   3.049   0.063  0.00  0.00     0.083 H 
ATOM     25  H8  <0> d           1.919   1.641  -0.932  0.00  0.00     0.083 H 
ENDBRANCH   1  12
TORSDOF 3
