REMARK  1 active torsions:
REMARK  status: ('A' for Active; 'I' for Inactive)
REMARK    1  A    between atoms: C1_1  and  C2_2 
ROOT
ATOM      1  C2  <0> d           1.173   1.794   0.001  0.00  0.00    -0.019 A 
ATOM      2  C3  <0> d          -0.013   1.076   0.008  0.00  0.00    -0.035 A 
ATOM      3  C4  <0> d          -1.215   1.760   0.017  0.00  0.00     0.126 A 
ATOM      4  N1  <0> d          -1.242   3.079   0.030  0.00  0.00    -0.246 NA
ATOM      5  C5  <0> d          -0.134   3.795   0.024  0.00  0.00     0.041 A 
ATOM      6  C6  <0> d           1.106   3.180   0.009  0.00  0.00     0.139 A 
ATOM      7  F1  <0> d           2.236   3.920   0.001  0.00  0.00    -0.204 F 
ATOM      8 Cl1  <0> d          -2.707   0.872   0.019  0.00  0.00    -0.062 Cl
ATOM      9  H4  <0> d           0.002  -0.004   0.002  0.00  0.00     0.089 H 
ATOM     10  H5  <0> d          -0.196   4.873   0.030  0.00  0.00     0.119 H 
ENDROOT
BRANCH   1  11
ATOM     11  C1  <0> d           2.503   1.086  -0.016  0.00  0.00    -0.048 C 
ATOM     12  H1  <0> d           2.814   0.920  -1.047  0.00  0.00     0.033 H 
ATOM     13  H2  <0> d           3.247   1.698   0.494  0.00  0.00     0.033 H 
ATOM     14  H3  <0> d           2.411   0.127   0.494  0.00  0.00     0.033 H 
ENDBRANCH   1  11
TORSDOF 1
