REMARK  4 active torsions:
REMARK  status: ('A' for Active; 'I' for Inactive)
REMARK    1  A    between atoms: C1_1  and  C2_2 
REMARK    2  A    between atoms: C4_5  and  O4_14 
REMARK    3  A    between atoms: C5_7  and  O3_13 
REMARK    4  A    between atoms: C6_9  and  O2_12 
ROOT
ATOM      1  C2  <0> d           0.002  -0.004   0.002  0.00  0.00     0.040 C 
ATOM      2  H1  <0> d           0.512  -0.356  -0.895  0.00  0.00     0.083 H 
ATOM      3  C3  <0> d          -1.434  -0.534   0.013  0.00  0.00    -0.015 C 
ATOM      4  C4  <0> d          -1.405  -2.065   0.066  0.00  0.00     0.067 C 
ATOM      5  H2  <0> d          -0.925  -2.451  -0.834  0.00  0.00     0.087 H 
ATOM      6  C5  <0> d          -0.612  -2.507   1.299  0.00  0.00     0.107 C 
ATOM      7  H3  <0> d          -1.118  -2.163   2.201  0.00  0.00     0.094 H 
ATOM      8  C6  <0> d           0.793  -1.901   1.238  0.00  0.00     0.155 C 
ATOM      9  H4  <0> d           1.313  -2.278   0.358  0.00  0.00     0.133 H 
ATOM     10  O1  <0> d           0.693  -0.478   1.160  0.00  0.00    -0.354 OA
ATOM     11  H8  <0> d          -1.957  -0.150   0.889  0.00  0.00     0.040 H 
ATOM     12  H9  <0> d          -1.949  -0.210  -0.891  0.00  0.00     0.040 H 
ENDROOT
BRANCH   1  13
ATOM     13  C1  <0> d          -0.019   1.526   0.010  0.00  0.00    -0.052 C 
ATOM     14  H5  <0> d           1.004   1.903   0.003  0.00  0.00     0.030 H 
ATOM     15  H6  <0> d          -0.546   1.887  -0.873  0.00  0.00     0.030 H 
ATOM     16  H7  <0> d          -0.529   1.877   0.907  0.00  0.00     0.030 H 
ENDBRANCH   1  13
BRANCH   8  17
ATOM     17  O2  <0> d           1.520  -2.264   2.413  0.00  0.00    -0.369 OA
ATOM     18  H10 <0> d           2.421  -1.913   2.443  0.00  0.00     0.212 HD
ENDBRANCH   8  17
BRANCH   4  19
ATOM     19  O4  <0> d          -2.740  -2.566   0.149  0.00  0.00    -0.393 OA
ATOM     20  H12 <0> d          -2.797  -3.531   0.185  0.00  0.00     0.210 HD
ENDBRANCH   4  19
BRANCH   6  21
ATOM     21  O3  <0> d          -0.517  -3.933   1.320  0.00  0.00    -0.388 OA
ATOM     22  H11 <0> d          -0.027  -4.284   2.076  0.00  0.00     0.210 HD
ENDBRANCH   6  21
TORSDOF 4
