REMARK  1 active torsions:
REMARK  status: ('A' for Active; 'I' for Inactive)
REMARK    1  A    between atoms: C1_1  and  C2_2 
ROOT
ATOM      1  C2  <0> d           0.002  -0.004   0.002  0.00  0.00     0.013 C 
ATOM      2  H1  <0> d          -1.016  -0.394   0.022  0.00  0.00     0.072 H 
ATOM      3  C3  <0> d           0.746  -0.520  -1.247  0.00  0.00    -0.041 C 
ATOM      4  C4  <0> d           1.443  -1.788  -0.704  0.00  0.00    -0.025 C 
ATOM      5  C5  <0> d           1.589  -1.526   0.781  0.00  0.00     0.011 A 
ATOM      6  N1  <0> d           0.763  -0.509   1.157  0.00  0.00    -0.356 N 
ATOM      7  C6  <0> d           0.921  -0.294   2.500  0.00  0.00    -0.020 A 
ATOM      8  C7  <0> d           1.832  -1.171   2.965  0.00  0.00    -0.066 A 
ATOM      9  C8  <0> d           2.259  -1.956   1.872  0.00  0.00    -0.060 A 
ATOM     10  H5  <0> d           0.044  -0.772  -2.042  0.00  0.00     0.036 H 
ATOM     11  H6  <0> d           1.479   0.209  -1.593  0.00  0.00     0.036 H 
ATOM     12  H7  <0> d           0.823  -2.668  -0.877  0.00  0.00     0.042 H 
ATOM     13  H8  <0> d           2.422  -1.913  -1.167  0.00  0.00     0.042 H 
ATOM     14  H9  <0> d           0.404   0.451   3.086  0.00  0.00     0.111 H 
ATOM     15  H10 <0> d           2.174  -1.256   3.985  0.00  0.00     0.085 H 
ATOM     16  H11 <0> d           2.985  -2.755   1.903  0.00  0.00     0.086 H 
ENDROOT
BRANCH   1  17
ATOM     17  C1  <0> d          -0.019   1.526   0.010  0.00  0.00    -0.057 C 
ATOM     18  H2  <0> d           1.004   1.903   0.003  0.00  0.00     0.030 H 
ATOM     19  H3  <0> d          -0.546   1.887  -0.873  0.00  0.00     0.030 H 
ATOM     20  H4  <0> d          -0.529   1.877   0.907  0.00  0.00     0.030 H 
ENDBRANCH   1  17
TORSDOF 1
