REMARK  2 active torsions:
REMARK  status: ('A' for Active; 'I' for Inactive)
REMARK    1  A    between atoms: C1_1  and  C2_2 
REMARK    2  A    between atoms: C3_3  and  N2_12 
ROOT
ATOM      1  C2  <0> d          -1.254   3.048   0.030  0.00  0.00     0.057 A 
ATOM      2  C3  <0> d          -1.230   1.648   0.017  0.00  0.00     0.051 A 
ATOM      3  C4  <0> d          -2.420   0.945   0.019  0.00  0.00    -0.044 A 
ATOM      4  C5  <0> d          -3.620   1.677   0.028  0.00  0.00    -0.005 A 
ATOM      5  C6  <0> d          -4.868   1.032   0.031  0.00  0.00    -0.071 A 
ATOM      6  C7  <0> d          -6.009   1.775   0.041  0.00  0.00    -0.082 A 
ATOM      7  C8  <0> d          -5.956   3.167   0.048  0.00  0.00    -0.081 A 
ATOM      8  C9  <0> d          -4.764   3.825   0.046  0.00  0.00    -0.054 A 
ATOM      9  C10 <0> d          -3.563   3.093   0.036  0.00  0.00     0.067 A 
ATOM     10  N1  <0> d          -2.380   3.716   0.033  0.00  0.00    -0.251 NA
ATOM     11  H4  <0> d          -2.427  -0.135   0.013  0.00  0.00     0.088 H 
ATOM     12  H5  <0> d          -4.922  -0.046   0.025  0.00  0.00     0.084 H 
ATOM     13  H6  <0> d          -6.968   1.278   0.044  0.00  0.00     0.083 H 
ATOM     14  H7  <0> d          -6.875   3.734   0.056  0.00  0.00     0.083 H 
ATOM     15  H8  <0> d          -4.741   4.904   0.051  0.00  0.00     0.087 H 
ENDROOT
BRANCH   1  16
ATOM     16  C1  <0> d           0.049   3.805   0.035  0.00  0.00    -0.033 C 
ATOM     17  H1  <0> d           0.361   3.997  -0.992  0.00  0.00     0.035 H 
ATOM     18  H2  <0> d          -0.082   4.752   0.558  0.00  0.00     0.035 H 
ATOM     19  H3  <0> d           0.812   3.213   0.541  0.00  0.00     0.035 H 
ENDBRANCH   1  16
BRANCH   2  20
ATOM     20  N2  <0> d          -0.011   0.966   0.007  0.00  0.00    -0.397 N 
ATOM     21  H9  <0> d           0.002  -0.004   0.002  0.00  0.00     0.156 HD
ATOM     22  H10 <0> d           0.822   1.462   0.002  0.00  0.00     0.156 HD
ENDBRANCH   2  20
TORSDOF 2
