REMARK  1 active torsions:
REMARK  status: ('A' for Active; 'I' for Inactive)
REMARK    1  A    between atoms: C1_1  and  C2_2 
ROOT
ATOM      1  C2  <0> d          -0.718   1.572   1.248  0.00  0.00    -0.038 A 
ATOM      2  C3  <0> d          -2.084   1.795   1.246  0.00  0.00    -0.059 A 
ATOM      3  C4  <0> d          -2.699   2.236   2.404  0.00  0.00     0.002 A 
ATOM      4  N1  <0> d          -2.005   2.456   3.503  0.00  0.00    -0.272 NA
ATOM      5  C5  <0> d          -0.703   2.264   3.554  0.00  0.00     0.022 A 
ATOM      6  C6  <0> d          -0.008   1.814   2.430  0.00  0.00     0.068 A 
ATOM      7  C7  <0> d           1.408   1.605   2.485  0.00  0.00     0.101 C 
ATOM      8  N2  <0> d           2.531   1.440   2.528  0.00  0.00    -0.191 NA
ATOM      9  H4  <0> d          -2.663   1.624   0.351  0.00  0.00     0.086 H 
ATOM     10  H5  <0> d          -3.766   2.407   2.406  0.00  0.00     0.114 H 
ATOM     11  H6  <0> d          -0.169   2.455   4.473  0.00  0.00     0.117 H 
ENDROOT
BRANCH   1  12
ATOM     12  C1  <0> d          -0.013   1.086   0.008  0.00  0.00    -0.050 C 
ATOM     13  H1  <0> d           0.002  -0.004   0.002  0.00  0.00     0.033 H 
ATOM     14  H2  <0> d           1.010   1.463   0.000  0.00  0.00     0.033 H 
ATOM     15  H3  <0> d          -0.540   1.447  -0.875  0.00  0.00     0.033 H 
ENDBRANCH   1  12
TORSDOF 1
