REMARK  2 active torsions:
REMARK  status: ('A' for Active; 'I' for Inactive)
REMARK    1  A    between atoms: C4_5  and  O2_13 
REMARK    2  A    between atoms: C7_10  and  O1_12 
ROOT
ATOM      1  C1  <0> d           2.521   3.475  -0.786  0.00  0.00    -0.054 C 
ATOM      2  C2  <0> d           1.168   3.115  -0.077  0.00  0.00    -0.026 C 
ATOM      3  H1  <0> d           0.954   3.622   0.863  0.00  0.00     0.044 H 
ATOM      4  C3  <0> d           0.143   3.361  -1.265  0.00  0.00    -0.035 C 
ATOM      5  C4  <0> d           0.928   2.967  -2.537  0.00  0.00     0.039 C 
ATOM      6  H2  <0> d           1.030   3.825  -3.202  0.00  0.00     0.083 H 
ATOM      7  C5  <0> d           2.326   2.517  -2.013  0.00  0.00    -0.026 C 
ATOM      8  H3  <0> d           3.130   2.507  -2.749  0.00  0.00     0.044 H 
ATOM      9  C6  <0> d           2.054   1.166  -1.284  0.00  0.00    -0.035 C 
ATOM     10  C7  <0> d           1.286   1.562  -0.002  0.00  0.00     0.039 C 
ATOM     11  H4  <0> d           1.848   1.264   0.884  0.00  0.00     0.083 H 
ATOM     12  H5  <0> d           3.385   3.196  -0.182  0.00  0.00     0.034 H 
ATOM     13  H6  <0> d           2.559   4.522  -1.086  0.00  0.00     0.034 H 
ATOM     14  H7  <0> d          -0.142   4.412  -1.305  0.00  0.00     0.037 H 
ATOM     15  H8  <0> d          -0.741   2.732  -1.155  0.00  0.00     0.037 H 
ATOM     16  H9  <0> d           2.993   0.676  -1.029  0.00  0.00     0.037 H 
ATOM     17  H10 <0> d           1.442   0.513  -1.907  0.00  0.00     0.037 H 
ENDROOT
BRANCH   5  18
ATOM     18  O2  <0> d           0.277   1.887  -3.210  0.00  0.00    -0.395 OA
ATOM     19  H12 <0> d          -0.597   2.110  -3.557  0.00  0.00     0.210 HD
ENDBRANCH   5  18
BRANCH  10  20
ATOM     20  O1  <0> d          -0.011   0.963   0.007  0.00  0.00    -0.395 OA
ATOM     21  H11 <0> d           0.002  -0.004   0.002  0.00  0.00     0.210 HD
ENDBRANCH  10  20
TORSDOF 2
