REMARK  3 active torsions:
REMARK  status: ('A' for Active; 'I' for Inactive)
REMARK    1  A    between atoms: C4_4  and  C7_8 
REMARK    2  A    between atoms: C6_6  and  N1_7 
REMARK    3  A    between atoms: C7_8  and  O1_9 
ROOT
ATOM      1  C1  <0> d          -1.251   3.037   0.030  0.00  0.00    -0.055 A 
ATOM      2  C2  <0> d          -2.458   3.709   0.035  0.00  0.00    -0.043 A 
ATOM      3  C3  <0> d          -3.647   3.000   0.037  0.00  0.00     0.124 A 
ATOM      4  C4  <0> d          -3.629   1.615   0.029  0.00  0.00     0.006 A 
ATOM      5  C5  <0> d          -2.425   0.939   0.019  0.00  0.00    -0.047 A 
ATOM      6  C6  <0> d          -1.231   1.648   0.017  0.00  0.00     0.026 A 
ATOM      7  F1  <0> d          -4.826   3.659   0.046  0.00  0.00    -0.205 F 
ATOM      8  H1  <0> d          -0.324   3.591   0.033  0.00  0.00     0.087 H 
ATOM      9  H2  <0> d          -2.474   4.789   0.042  0.00  0.00     0.088 H 
ATOM     10  H3  <0> d          -2.412  -0.141   0.013  0.00  0.00     0.088 H 
ENDROOT
BRANCH   4  11
ATOM     11  C7  <0> d          -4.925   0.845   0.030  0.00  0.00     0.043 C 
ATOM     12  H6  <0> d          -5.496   1.096   0.924  0.00  0.00     0.081 H 
ATOM     13  H7  <0> d          -5.504   1.107  -0.856  0.00  0.00     0.081 H 
BRANCH  11  14
ATOM     14  O1  <0> d          -4.647  -0.556   0.020  0.00  0.00    -0.396 OA
ATOM     15  H8  <0> d          -5.437  -1.114   0.020  0.00  0.00     0.209 HD
ENDBRANCH  11  14
ENDBRANCH   4  11
BRANCH   6  16
ATOM     16  N1  <0> d          -0.011   0.966   0.007  0.00  0.00    -0.399 N 
ATOM     17  H4  <0> d           0.002  -0.004   0.002  0.00  0.00     0.156 HD
ATOM     18  H5  <0> d           0.822   1.462   0.002  0.00  0.00     0.156 HD
ENDBRANCH   6  16
TORSDOF 3
