REMARK  0 active torsions:
REMARK  status: ('A' for Active; 'I' for Inactive)
ROOT
ATOM      1  C1  <0> d          -0.017   1.385   0.010  0.00  0.00    -0.064 A 
ATOM      2  C2  <0> d           1.175   2.083   0.002  0.00  0.00    -0.052 A 
ATOM      3  C3  <0> d           2.364   1.356  -0.013  0.00  0.00     0.080 A 
ATOM      4  C4  <0> d           2.311  -0.051  -0.020  0.00  0.00     0.103 A 
ATOM      5  C5  <0> d           3.651  -0.509  -0.036  0.00  0.00     0.051 A 
ATOM      6  N1  <0> d           4.445   0.522  -0.039  0.00  0.00    -0.184 NA
ATOM      7  N2  <0> d           3.691   1.702  -0.025  0.00  0.00    -0.276 N 
ATOM      8  H1  <0> d           4.045   2.605  -0.024  0.00  0.00     0.189 HD
ATOM      9  N3  <0> d           1.132  -0.674  -0.012  0.00  0.00    -0.257 NA
ATOM     10  C6  <0> d           0.002  -0.004   0.002  0.00  0.00     0.003 A 
ATOM     11  H2  <0> d          -0.957   1.915   0.026  0.00  0.00     0.085 H 
ATOM     12  H3  <0> d           1.185   3.163   0.007  0.00  0.00     0.087 H 
ATOM     13  H4  <0> d           3.962  -1.543  -0.045  0.00  0.00     0.121 H 
ATOM     14  H5  <0> d          -0.933  -0.545   0.008  0.00  0.00     0.114 H 
ENDROOT
TORSDOF 0
