REMARK  3 active torsions:
REMARK  status: ('A' for Active; 'I' for Inactive)
REMARK    1  A    between atoms: C1_1  and  O1_2 
REMARK    2  A    between atoms: O1_2  and  C2_3 
REMARK    3  A    between atoms: C2_3  and  C3_5 
ROOT
ATOM      1  C3  <0> d          -1.248  -2.103   0.003  0.00  0.00     0.112 A 
ATOM      2  N1  <0> d          -0.239  -2.924  -0.006  0.00  0.00    -0.259 NA
ATOM      3  C4  <0> d          -0.598  -4.212  -0.010  0.00  0.00    -0.001 A 
ATOM      4  C5  <0> d          -1.925  -4.374  -0.005  0.00  0.00    -0.080 A 
ATOM      5  C6  <0> d          -2.494  -2.967   0.010  0.00  0.00    -0.002 A 
ATOM      6  H4  <0> d           0.106  -5.031  -0.017  0.00  0.00     0.114 H 
ATOM      7  H5  <0> d          -2.473  -5.304  -0.007  0.00  0.00     0.079 H 
ATOM      8  H6  <0> d          -3.079  -2.794   0.914  0.00  0.00     0.048 H 
ATOM      9  H7  <0> d          -3.096  -2.785  -0.881  0.00  0.00     0.048 H 
ENDROOT
BRANCH   1  10
ATOM     10  C2  <0> d          -1.191  -0.632   0.010  0.00  0.00     0.307 C 
ATOM     11  O2  <0> d          -2.219   0.015   0.023  0.00  0.00    -0.258 OA
BRANCH  10  12
ATOM     12  O1  <0> d           0.002  -0.004   0.002  0.00  0.00    -0.322 OA
BRANCH  12  13
ATOM     13  C1  <0> d          -0.017   1.425   0.010  0.00  0.00     0.013 C 
ATOM     14  H1  <0> d           1.005   1.802   0.002  0.00  0.00     0.067 H 
ATOM     15  H2  <0> d          -0.544   1.786  -0.873  0.00  0.00     0.067 H 
ATOM     16  H3  <0> d          -0.527   1.776   0.907  0.00  0.00     0.067 H 
ENDBRANCH  12  13
ENDBRANCH  10  12
ENDBRANCH   1  10
TORSDOF 3
