REMARK  1 active torsions:
REMARK  status: ('A' for Active; 'I' for Inactive)
REMARK    1  A    between atoms: C1_1  and  N1_2 
REMARK       I    between atoms: N1_2  and  C2_3 
REMARK       I    between atoms: C2_3  and  N2_5 
ROOT
ATOM      1  N1  <0> d           0.002  -0.004   0.002  0.00  0.00    -0.347 N 
ATOM      2  C2  <0> d           0.604  -0.675   1.004  0.00  0.00     0.327 C 
ATOM      3  O1  <0> d           1.131  -0.066   1.913  0.00  0.00    -0.246 OA
ATOM      4  N2  <0> d           0.623  -2.023   0.996  0.00  0.00    -0.268 N 
ATOM      5  C3  <0> d           1.200  -2.839   1.940  0.00  0.00     0.007 A 
ATOM      6  C4  <0> d           0.982  -4.106   1.545  0.00  0.00     0.019 A 
ATOM      7  N3  <0> d           0.300  -4.075   0.389  0.00  0.00    -0.254 NA
ATOM      8  C5  <0> d           0.077  -2.837   0.048  0.00  0.00     0.074 A 
ATOM      9  H4  <0> d          -0.474  -0.556  -0.822  0.00  0.00     0.163 HD
ATOM     10  H5  <0> d           1.726  -2.523   2.829  0.00  0.00     0.114 H 
ATOM     11  H6  <0> d           1.304  -4.995   2.065  0.00  0.00     0.117 H 
ATOM     12  H7  <0> d          -0.450  -2.510  -0.836  0.00  0.00     0.144 H 
ENDROOT
BRANCH   1  13
ATOM     13  C1  <0> d          -0.018   1.461   0.010  0.00  0.00    -0.017 C 
ATOM     14  H1  <0> d          -0.550   1.825  -0.881  0.00  0.00     0.056 H 
ATOM     15  H2  <0> d           1.014   1.841   0.002  0.00  0.00     0.056 H 
ATOM     16  H3  <0> d          -0.533   1.815   0.915  0.00  0.00     0.056 H 
ENDBRANCH   1  13
TORSDOF 1
