REMARK  6 active torsions:
REMARK  status: ('A' for Active; 'I' for Inactive)
REMARK    1  A    between atoms: C1_1  and  C2_2 
REMARK    2  A    between atoms: C2_2  and  C3_4 
REMARK    3  A    between atoms: C2_2  and  N1_7 
REMARK    4  A    between atoms: C3_4  and  O1_5 
REMARK    5  A    between atoms: O1_5  and  C4_6 
REMARK       I    between atoms: N1_7  and  C5_8 
REMARK    6  A    between atoms: C5_8  and  C6_10 
ROOT
ATOM      1  C6  <0> d          -2.479  -4.274  -1.635  0.00  0.00     0.088 C 
ATOM      2  C7  <0> d          -2.511  -5.657  -2.136  0.00  0.00     0.068 C 
ATOM      3  N2  <0> d          -2.536  -6.725  -2.523  0.00  0.00    -0.197 NA
ATOM      4  H11 <0> d          -2.930  -4.236  -0.643  0.00  0.00     0.069 H 
ATOM      5  H12 <0> d          -3.038  -3.628  -2.312  0.00  0.00     0.069 H 
ENDROOT
BRANCH   1   6
ATOM      6  C5  <0> d          -1.050  -3.801  -1.554  0.00  0.00     0.231 C 
ATOM      7  N1  <0> d          -0.776  -2.556  -1.119  0.00  0.00    -0.354 N 
ATOM      8  H10 <0> d          -1.498  -1.964  -0.857  0.00  0.00     0.162 HD
ATOM      9  O2  <0> d          -0.148  -4.542  -1.882  0.00  0.00    -0.273 OA
BRANCH   7  10
ATOM     10  C2  <0> d           0.613  -2.097  -1.041  0.00  0.00     0.029 C 
ATOM     11  H1  <0> d           1.185  -2.527  -1.863  0.00  0.00     0.075 H 
BRANCH  10  12
ATOM     12  C1  <0> d           1.223  -2.539   0.291  0.00  0.00    -0.055 C 
ATOM     13  H2  <0> d           1.195  -3.626   0.360  0.00  0.00     0.030 H 
ATOM     14  H3  <0> d           2.256  -2.197   0.349  0.00  0.00     0.030 H 
ATOM     15  H4  <0> d           0.651  -2.108   1.113  0.00  0.00     0.030 H 
ENDBRANCH  10  12
BRANCH  10  16
ATOM     16  C3  <0> d           0.652  -0.570  -1.138  0.00  0.00     0.037 C 
ATOM     17  H5  <0> d           0.139  -0.251  -2.045  0.00  0.00     0.077 H 
ATOM     18  H6  <0> d           1.688  -0.234  -1.169  0.00  0.00     0.077 H 
BRANCH  16  19
ATOM     19  O1  <0> d           0.002  -0.004   0.002  0.00  0.00    -0.394 OA
BRANCH  19  20
ATOM     20  C4  <0> d          -0.017   1.425   0.010  0.00  0.00     0.004 C 
ATOM     21  H7  <0> d           1.005   1.802   0.002  0.00  0.00     0.066 H 
ATOM     22  H8  <0> d          -0.544   1.786  -0.873  0.00  0.00     0.066 H 
ATOM     23  H9  <0> d          -0.527   1.776   0.907  0.00  0.00     0.066 H 
ENDBRANCH  19  20
ENDBRANCH  16  19
ENDBRANCH  10  16
ENDBRANCH   7  10
ENDBRANCH   1   6
TORSDOF 6
