REMARK  7 active torsions:
REMARK  status: ('A' for Active; 'I' for Inactive)
REMARK    1  A    between atoms: C1_1  and  C2_2 
REMARK    2  A    between atoms: C2_2  and  C3_3 
REMARK    3  A    between atoms: C2_2  and  C4_4 
REMARK    4  A    between atoms: C2_2  and  C5_5 
REMARK    5  A    between atoms: C5_5  and  C6_7 
REMARK    6  A    between atoms: C5_5  and  O2_9 
REMARK    7  A    between atoms: C6_7  and  O1_8 
ROOT
ATOM      1  C2  <0> d           0.079   1.179   2.503  0.00  0.00    -0.023 C 
ENDROOT
BRANCH   1   2
ATOM      2  C1  <0> d           1.471   1.808   2.429  0.00  0.00    -0.067 C 
ATOM      3  H2  <0> d           1.378   2.893   2.392  0.00  0.00     0.028 H 
ATOM      4  H3  <0> d           2.046   1.523   3.309  0.00  0.00     0.028 H 
ATOM      5  H4  <0> d           1.981   1.456   1.532  0.00  0.00     0.028 H 
ENDBRANCH   1   2
BRANCH   1   6
ATOM      6  C3  <0> d          -0.637   1.672   3.762  0.00  0.00    -0.067 C 
ATOM      7  H5  <0> d          -1.630   1.224   3.815  0.00  0.00     0.028 H 
ATOM      8  H6  <0> d          -0.062   1.387   4.643  0.00  0.00     0.028 H 
ATOM      9  H7  <0> d          -0.731   2.757   3.725  0.00  0.00     0.028 H 
ENDBRANCH   1   6
BRANCH   1  10
ATOM     10  C4  <0> d           0.210  -0.345   2.555  0.00  0.00    -0.067 C 
ATOM     11  H8  <0> d           0.720  -0.696   1.658  0.00  0.00     0.028 H 
ATOM     12  H9  <0> d           0.785  -0.630   3.436  0.00  0.00     0.028 H 
ATOM     13  H10 <0> d          -0.782  -0.793   2.608  0.00  0.00     0.028 H 
ENDBRANCH   1  10
BRANCH   1  14
ATOM     14  C5  <0> d          -0.729   1.579   1.267  0.00  0.00     0.062 C 
ATOM     15  H1  <0> d          -0.822   2.665   1.230  0.00  0.00     0.087 H 
BRANCH  14  16
ATOM     16  C6  <0> d          -0.013   1.086   0.008  0.00  0.00     0.041 C 
ATOM     17  H11 <0> d           0.002  -0.004   0.002  0.00  0.00     0.077 H 
ATOM     18  H12 <0> d           1.010   1.463   0.000  0.00  0.00     0.077 H 
BRANCH  16  19
ATOM     19  O1  <0> d          -0.704   1.559  -1.150  0.00  0.00    -0.398 OA
ATOM     20  H13 <0> d          -0.304   1.284  -1.986  0.00  0.00     0.209 HD
ENDBRANCH  16  19
ENDBRANCH  14  16
BRANCH  14  21
ATOM     21  O2  <0> d          -2.030   0.991   1.336  0.00  0.00    -0.393 OA
ATOM     22  H14 <0> d          -2.023   0.025   1.372  0.00  0.00     0.210 HD
ENDBRANCH  14  21
ENDBRANCH   1  14
TORSDOF 7
