REMARK  2 active torsions:
REMARK  status: ('A' for Active; 'I' for Inactive)
REMARK    1  A    between atoms: C3_3  and  N2_12 
REMARK    2  A    between atoms: C8_8  and  N1_11 
ROOT
ATOM      1  C1  <0> d           2.441   0.059  -0.021  0.00  0.00    -0.070 A 
ATOM      2  C2  <0> d           2.396   1.417  -0.014  0.00  0.00    -0.057 A 
ATOM      3  C3  <0> d           1.172   2.096   0.002  0.00  0.00     0.026 A 
ATOM      4  C4  <0> d          -0.017   1.401   0.010  0.00  0.00    -0.047 A 
ATOM      5  C5  <0> d           0.002  -0.004   0.002  0.00  0.00    -0.024 A 
ATOM      6  C6  <0> d           1.247  -0.683  -0.013  0.00  0.00    -0.024 A 
ATOM      7  C7  <0> d           1.266  -2.087  -0.021  0.00  0.00    -0.047 A 
ATOM      8  C8  <0> d           0.076  -2.783  -0.014  0.00  0.00     0.026 A 
ATOM      9  C9  <0> d          -1.148  -2.104   0.002  0.00  0.00    -0.057 A 
ATOM     10  C10 <0> d          -1.193  -0.745   0.009  0.00  0.00    -0.070 A 
ATOM     11  H1  <0> d           3.394  -0.451  -0.034  0.00  0.00     0.084 H 
ATOM     12  H2  <0> d           3.317   1.981  -0.020  0.00  0.00     0.086 H 
ATOM     13  H3  <0> d          -0.957   1.932   0.017  0.00  0.00     0.088 H 
ATOM     14  H4  <0> d           2.206  -2.619  -0.033  0.00  0.00     0.088 H 
ATOM     15  H5  <0> d          -2.069  -2.667   0.007  0.00  0.00     0.086 H 
ATOM     16  H6  <0> d          -2.145  -0.236   0.020  0.00  0.00     0.084 H 
ENDROOT
BRANCH   3  17
ATOM     17  N2  <0> d           1.156   3.493   0.009  0.00  0.00    -0.399 N 
ATOM     18  H9  <0> d           0.310   3.968   0.020  0.00  0.00     0.156 HD
ATOM     19  H10 <0> d           1.990   3.987   0.004  0.00  0.00     0.156 HD
ENDBRANCH   3  17
BRANCH   8  20
ATOM     20  N1  <0> d           0.092  -4.180  -0.021  0.00  0.00    -0.399 N 
ATOM     21  H7  <0> d           0.938  -4.655  -0.031  0.00  0.00     0.156 HD
ATOM     22  H8  <0> d          -0.742  -4.674  -0.016  0.00  0.00     0.156 HD
ENDBRANCH   8  20
TORSDOF 2
