REMARK  2 active torsions:
REMARK  status: ('A' for Active; 'I' for Inactive)
REMARK    1  A    between atoms: C1_1  and  C2_2 
REMARK    2  A    between atoms: C4_5  and  C6_8 
ROOT
ATOM      1  C2  <0> d           0.002  -0.004   0.002  0.00  0.00     0.048 A 
ATOM      2  C3  <0> d           0.006  -0.687  -1.202  0.00  0.00     0.026 A 
ATOM      3  N1  <0> d           0.024  -2.007  -1.216  0.00  0.00    -0.258 NA
ATOM      4  C4  <0> d           0.039  -2.682  -0.069  0.00  0.00     0.073 A 
ATOM      5  C5  <0> d           0.035  -1.988   1.143  0.00  0.00     0.030 A 
ATOM      6  N2  <0> d           0.022  -0.669   1.145  0.00  0.00    -0.262 NA
ATOM      7  H4  <0> d          -0.007  -0.139  -2.133  0.00  0.00     0.117 H 
ATOM      8  H5  <0> d           0.047  -2.531   2.077  0.00  0.00     0.118 H 
ENDROOT
BRANCH   4   9
ATOM      9  C6  <0> d           0.059  -4.159  -0.078  0.00  0.00    -0.063 C 
ATOM     10  C7  <0> d           0.062  -4.815  -1.231  0.00  0.00    -0.119 C 
ATOM     11  H7  <0> d           0.050  -4.269  -2.163  0.00  0.00     0.066 H 
ATOM     12  H8  <0> d           0.077  -5.895  -1.237  0.00  0.00     0.066 H 
ATOM     13  H6  <0> d           0.071  -4.705   0.854  0.00  0.00     0.085 H 
ENDBRANCH   4   9
BRANCH   1  14
ATOM     14  C1  <0> d          -0.018   1.503   0.010  0.00  0.00    -0.034 C 
ATOM     15  H1  <0> d           1.004   1.880   0.003  0.00  0.00     0.035 H 
ATOM     16  H2  <0> d          -0.545   1.864  -0.873  0.00  0.00     0.035 H 
ATOM     17  H3  <0> d          -0.529   1.854   0.907  0.00  0.00     0.035 H 
ENDBRANCH   1  14
TORSDOF 2
