REMARK  5 active torsions:
REMARK  status: ('A' for Active; 'I' for Inactive)
REMARK    1  A    between atoms: C1_1  and  C2_2 
REMARK    2  A    between atoms: C2_2  and  C3_3 
REMARK    3  A    between atoms: C3_3  and  C4_5 
REMARK    4  A    between atoms: C3_3  and  C5_6 
REMARK    5  A    between atoms: C8_9  and  O1_12 
ROOT
ATOM      1  C3  <0> d           0.742  -0.511   1.242  0.00  0.00    -0.032 C 
ATOM      2  H1  <0> d           1.735  -0.063   1.280  0.00  0.00     0.046 H 
ENDROOT
BRANCH   1   3
ATOM      3  C2  <0> d           0.002  -0.004   0.002  0.00  0.00    -0.062 C 
ATOM      4  H5  <0> d          -1.020  -0.381   0.010  0.00  0.00     0.033 H 
ATOM      5  H6  <0> d           0.512  -0.356  -0.895  0.00  0.00     0.033 H 
BRANCH   3   6
ATOM      6  C1  <0> d          -0.019   1.526   0.010  0.00  0.00    -0.076 C 
ATOM      7  H2  <0> d           1.004   1.903   0.003  0.00  0.00     0.027 H 
ATOM      8  H3  <0> d          -0.546   1.887  -0.873  0.00  0.00     0.027 H 
ATOM      9  H4  <0> d          -0.529   1.877   0.907  0.00  0.00     0.027 H 
ENDBRANCH   3   6
ENDBRANCH   1   3
BRANCH   1  10
ATOM     10  C4  <0> d          -0.042  -0.124   2.497  0.00  0.00    -0.069 C 
ATOM     11  H7  <0> d          -1.034  -0.572   2.458  0.00  0.00     0.028 H 
ATOM     12  H8  <0> d           0.486  -0.485   3.380  0.00  0.00     0.028 H 
ATOM     13  H9  <0> d          -0.134   0.961   2.548  0.00  0.00     0.028 H 
ENDBRANCH   1  10
BRANCH   1  14
ATOM     14  C5  <0> d           0.870  -2.011   1.172  0.00  0.00    -0.054 A 
ATOM     15  C10 <0> d           2.122  -2.597   1.166  0.00  0.00    -0.074 A 
ATOM     16  C9  <0> d           2.242  -3.972   1.108  0.00  0.00    -0.051 A 
ATOM     17  H13 <0> d           3.007  -1.980   1.210  0.00  0.00     0.084 H 
ATOM     18  C8  <0> d           1.105  -4.764   1.044  0.00  0.00     0.065 A 
ATOM     19  H12 <0> d           3.220  -4.430   1.107  0.00  0.00     0.087 H 
ATOM     20  C7  <0> d          -0.150  -4.173   1.045  0.00  0.00    -0.051 A 
ATOM     21  C6  <0> d          -0.265  -2.798   1.109  0.00  0.00    -0.074 A 
ATOM     22  H11 <0> d          -1.037  -4.788   0.997  0.00  0.00     0.087 H 
ATOM     23  H10 <0> d          -1.242  -2.337   1.109  0.00  0.00     0.084 H 
BRANCH  18  24
ATOM     24  O1  <0> d           1.220  -6.117   0.983  0.00  0.00    -0.361 OA
ATOM     25  H14 <0> d           1.273  -6.466   0.083  0.00  0.00     0.217 HD
ENDBRANCH  18  24
ENDBRANCH   1  14
TORSDOF 5
