REMARK  0 active torsions:
REMARK  status: ('A' for Active; 'I' for Inactive)
ROOT
ATOM      1  C1  <0> d          -0.180   5.208   0.032  0.00  0.00    -0.067 A 
ATOM      2  C2  <0> d           0.998   5.900   0.025  0.00  0.00    -0.044 A 
ATOM      3  C3  <0> d           2.217   5.205   0.010  0.00  0.00     0.137 A 
ATOM      4  N1  <0> d           2.260   3.885   0.002  0.00  0.00    -0.237 NA
ATOM      5  C4  <0> d           1.144   3.161   0.008  0.00  0.00     0.071 A 
ATOM      6  C5  <0> d          -0.123   3.803   0.024  0.00  0.00     0.010 A 
ATOM      7  C6  <0> d          -1.282   3.012   0.030  0.00  0.00     0.014 A 
ATOM      8  N2  <0> d          -1.181   1.703   0.017  0.00  0.00    -0.272 NA
ATOM      9  C7  <0> d          -0.013   1.076   0.008  0.00  0.00     0.004 A 
ATOM     10  C8  <0> d           1.169   1.752   0.000  0.00  0.00    -0.037 A 
ATOM     11  C9  <0> d           3.443   5.945   0.002  0.00  0.00     0.119 C 
ATOM     12  N3  <0> d           4.416   6.532  -0.003  0.00  0.00    -0.190 NA
ATOM     13  H1  <0> d          -1.127   5.726   0.043  0.00  0.00     0.085 H 
ATOM     14  H2  <0> d           0.991   6.980   0.030  0.00  0.00     0.088 H 
ATOM     15  H3  <0> d          -2.256   3.479   0.043  0.00  0.00     0.116 H 
ATOM     16  H4  <0> d           0.002  -0.004   0.002  0.00  0.00     0.114 H 
ATOM     17  H5  <0> d           2.108   1.219  -0.011  0.00  0.00     0.089 H 
ENDROOT
TORSDOF 0
