REMARK  4 active torsions:
REMARK  status: ('A' for Active; 'I' for Inactive)
REMARK    1  A    between atoms: C1_1  and  C2_2 
REMARK    2  A    between atoms: C5_6  and  N3_8 
REMARK    3  A    between atoms: N3_8  and  C6_9 
REMARK    4  A    between atoms: N3_8  and  C7_10 
ROOT
ATOM      1  C2  <0> d           3.104   2.412  -1.169  0.00  0.00     0.054 A 
ATOM      2  C3  <0> d           1.855   1.822  -1.207  0.00  0.00    -0.006 A 
ATOM      3  C4  <0> d           1.225   1.519  -0.002  0.00  0.00     0.195 A 
ATOM      4  N1  <0> d           1.841   1.807   1.139  0.00  0.00    -0.166 N 
ATOM      5  C5  <0> d           3.044   2.362   1.134  0.00  0.00     0.704 A 
ATOM      6  N2  <0> d           3.667   2.661   0.004  0.00  0.00    -0.070 NA
ATOM      7  O1  <0> d          -0.003   0.946   0.007  0.00  0.00    -0.172 OA
ATOM      8  H4  <0> d           1.421   1.625  -2.087  0.00  0.00     0.093 H 
ATOM      9  H11 <0> d           1.344   1.579   2.093  0.00  0.00     0.186 HD
ENDROOT
BRANCH   5  10
ATOM     10  N3  <0> d           3.664   2.638   2.340  0.00  0.00    -0.225 N 
BRANCH  10  11
ATOM     11  C6  <0> d           4.994   3.252   2.356  0.00  0.00    -0.003 C 
ATOM     12  H5  <0> d           5.334   3.418   1.323  0.00  0.00     0.057 H 
ATOM     13  H6  <0> d           5.700   2.584   2.871  0.00  0.00     0.057 H 
ATOM     14  H7  <0> d           4.947   4.215   2.886  0.00  0.00     0.057 H 
ENDBRANCH  10  11
BRANCH  10  15
ATOM     15  C7  <0> d           2.991   2.315   3.601  0.00  0.00    -0.003 C 
ATOM     16  H8  <0> d           2.011   1.864   3.388  0.00  0.00     0.057 H 
ATOM     17  H9  <0> d           2.852   3.235   4.188  0.00  0.00     0.057 H 
ATOM     18  H10 <0> d           3.606   1.604   4.173  0.00  0.00     0.057 H 
ENDBRANCH  10  15
ENDBRANCH   5  10
BRANCH   1  19
ATOM     19  C1  <0> d           3.824   2.756  -2.447  0.00  0.00    -0.035 C 
ATOM     20  H1  <0> d           4.795   3.215  -2.209  0.00  0.00     0.035 H 
ATOM     21  H2  <0> d           3.217   3.465  -3.030  0.00  0.00     0.035 H 
ATOM     22  H3  <0> d           3.985   1.841  -3.036  0.00  0.00     0.035 H 
ENDBRANCH   1  19
TORSDOF 4
