REMARK  1 active torsions:
REMARK  status: ('A' for Active; 'I' for Inactive)
REMARK    1  A    between atoms: C6_6  and  N1_7 
ROOT
ATOM      1  C1  <0> d          -0.017   1.391   0.010  0.00  0.00    -0.056 A 
ATOM      2  C2  <0> d           1.161   2.089   0.002  0.00  0.00    -0.062 A 
ATOM      3  C3  <0> d           2.359   1.407  -0.013  0.00  0.00     0.035 A 
ATOM      4  C4  <0> d           2.418  -0.006  -0.021  0.00  0.00     0.003 A 
ATOM      5  C5  <0> d           1.189  -0.701  -0.014  0.00  0.00    -0.045 A 
ATOM      6  C6  <0> d           0.002  -0.004   0.002  0.00  0.00     0.026 A 
ATOM      7  C7  <0> d           3.783  -0.496  -0.037  0.00  0.00     0.022 A 
ATOM      8  N2  <0> d           4.769   0.346  -0.042  0.00  0.00    -0.222 NA
ATOM      9  S1  <0> d           4.070   1.867  -0.027  0.00  0.00     0.011 SA
ATOM     10  H1  <0> d          -0.959   1.919   0.026  0.00  0.00     0.086 H 
ATOM     11  H2  <0> d           1.152   3.169   0.008  0.00  0.00     0.085 H 
ATOM     12  H3  <0> d           1.180  -1.781  -0.020  0.00  0.00     0.088 H 
ATOM     13  H6  <0> d           3.977  -1.559  -0.044  0.00  0.00     0.117 H 
ENDROOT
BRANCH   6  14
ATOM     14  N1  <0> d          -1.208  -0.708   0.010  0.00  0.00    -0.399 N 
ATOM     15  H4  <0> d          -2.049  -0.225   0.021  0.00  0.00     0.156 HD
ATOM     16  H5  <0> d          -1.205  -1.677   0.005  0.00  0.00     0.156 HD
ENDBRANCH   6  14
TORSDOF 1
