REMARK  0 active torsions:
REMARK  status: ('A' for Active; 'I' for Inactive)
ROOT
ATOM      1  C1  <0> d          -1.131   3.981   0.842  0.00  0.00    -0.065 C 
ATOM      2  C2  <0> d          -0.390   2.964   1.729  0.00  0.00    -0.064 C 
ATOM      3  C3  <0> d          -0.678   1.551   1.263  0.00  0.00    -0.050 C 
ATOM      4  C4  <0> d          -0.013   1.086   0.008  0.00  0.00    -0.005 C 
ATOM      5  N1  <0> d          -0.687   1.554  -1.204  0.00  0.00    -0.361 N 
ATOM      6  C5  <0> d          -0.354   2.788  -1.650  0.00  0.00     0.217 C 
ATOM      7  O1  <0> d          -0.851   3.241  -2.659  0.00  0.00    -0.274 OA
ATOM      8  C6  <0> d           0.653   3.582  -0.858  0.00  0.00     0.009 C 
ATOM      9  C7  <0> d          -0.078   4.666  -0.068  0.00  0.00    -0.057 C 
ATOM     10  H1  <0> d          -1.621   4.727   1.467  0.00  0.00     0.033 H 
ATOM     11  H2  <0> d          -1.871   3.467   0.229  0.00  0.00     0.033 H 
ATOM     12  H3  <0> d           0.682   3.152   1.674  0.00  0.00     0.033 H 
ATOM     13  H4  <0> d          -0.721   3.077   2.761  0.00  0.00     0.033 H 
ATOM     14  H5  <0> d          -1.755   1.455   1.125  0.00  0.00     0.035 H 
ATOM     15  H6  <0> d          -0.388   0.872   2.065  0.00  0.00     0.035 H 
ATOM     16  H7  <0> d           0.002  -0.004   0.002  0.00  0.00     0.064 H 
ATOM     17  H8  <0> d           1.015   1.450   0.000  0.00  0.00     0.064 H 
ATOM     18  H9  <0> d          -1.342   1.007  -1.665  0.00  0.00     0.162 HD
ATOM     19  H10 <0> d           1.179   2.921  -0.169  0.00  0.00     0.047 H 
ATOM     20  H11 <0> d           1.367   4.046  -1.538  0.00  0.00     0.047 H 
ATOM     21  H12 <0> d           0.634   5.217   0.545  0.00  0.00     0.033 H 
ATOM     22  H13 <0> d          -0.576   5.349  -0.756  0.00  0.00     0.033 H 
ENDROOT
TORSDOF 0
