REMARK  2 active torsions:
REMARK  status: ('A' for Active; 'I' for Inactive)
REMARK    1  A    between atoms: C1_1  and  N1_2 
REMARK    2  A    between atoms: N1_2  and  C2_3 
ROOT
ATOM      1  C2  <0> d          -1.173  -0.704   0.009  0.00  0.00     0.681 A 
ATOM      2  N2  <0> d          -2.327  -0.038   0.018  0.00  0.00    -0.168 N 
ATOM      3  C3  <0> d          -3.502  -0.699   0.026  0.00  0.00     0.197 A 
ATOM      4  O1  <0> d          -4.659  -0.023   0.034  0.00  0.00    -0.172 OA
ATOM      5  C4  <0> d          -3.500  -2.090   0.023  0.00  0.00     0.022 A 
ATOM      6  C5  <0> d          -2.277  -2.754   0.014  0.00  0.00     0.197 A 
ATOM      7  N3  <0> d          -1.137  -2.036   0.002  0.00  0.00    -0.168 N 
ATOM      8  O2  <0> d          -2.234  -4.094   0.012  0.00  0.00    -0.172 OA
ATOM      9  H5  <0> d          -4.428  -2.643   0.029  0.00  0.00     0.097 H 
ATOM     10  H6  <0> d          -0.282  -2.493  -0.009  0.00  0.00     0.186 HD
ATOM     11  H7  <0> d          -2.322   0.932   0.020  0.00  0.00     0.186 HD
ENDROOT
BRANCH   1  12
ATOM     12  N1  <0> d           0.002  -0.004   0.002  0.00  0.00    -0.230 N 
ATOM     13  H4  <0> d           0.849  -0.478  -0.009  0.00  0.00     0.177 HD
BRANCH  12  14
ATOM     14  C1  <0> d          -0.018   1.461   0.010  0.00  0.00    -0.005 C 
ATOM     15  H1  <0> d           1.005   1.838   0.002  0.00  0.00     0.057 H 
ATOM     16  H2  <0> d          -0.545   1.822  -0.873  0.00  0.00     0.057 H 
ATOM     17  H3  <0> d          -0.528   1.812   0.907  0.00  0.00     0.057 H 
ENDBRANCH  12  14
ENDBRANCH   1  12
TORSDOF 2
