REMARK  3 active torsions:
REMARK  status: ('A' for Active; 'I' for Inactive)
REMARK    1  A    between atoms: C1_1  and  C2_2 
REMARK    2  A    between atoms: C4_5  and  N3_10 
REMARK    3  A    between atoms: C5_6  and  C6_8 
ROOT
ATOM      1  C2  <0> d           0.007   1.421  -0.003  0.00  0.00     0.049 A 
ATOM      2  C3  <0> d          -0.021   0.033   0.001  0.00  0.00     0.028 A 
ATOM      3  N1  <0> d           1.104  -0.657  -0.001  0.00  0.00    -0.239 NA
ATOM      4  C4  <0> d           2.272  -0.023  -0.007  0.00  0.00     0.157 A 
ATOM      5  C5  <0> d           2.300   1.382  -0.011  0.00  0.00     0.178 A 
ATOM      6  N2  <0> d           1.157   2.063  -0.009  0.00  0.00    -0.242 NA
ATOM      7  H4  <0> d          -0.969  -0.485   0.006  0.00  0.00     0.117 H 
ENDROOT
BRANCH   1   8
ATOM      8  C1  <0> d          -1.285   2.197  -0.006  0.00  0.00    -0.034 C 
ATOM      9  H1  <0> d          -1.598   2.387   1.020  0.00  0.00     0.035 H 
ATOM     10  H2  <0> d          -1.138   3.145  -0.523  0.00  0.00     0.035 H 
ATOM     11  H3  <0> d          -2.054   1.619  -0.520  0.00  0.00     0.035 H 
ENDBRANCH   1   8
BRANCH   5  12
ATOM     12  C6  <0> d           3.590   2.098  -0.017  0.00  0.00     0.233 C 
ATOM     13  O1  <0> d           4.629   1.477  -0.122  0.00  0.00    -0.643 OA
ATOM     14  O2  <0> d           3.616   3.440   0.094  0.00  0.00    -0.643 OA
ENDBRANCH   5  12
BRANCH   4  15
ATOM     15  N3  <0> d           3.453  -0.741  -0.010  0.00  0.00    -0.382 N 
ATOM     16  H5  <0> d           3.469  -1.645  -0.362  0.00  0.00     0.157 HD
ATOM     17  H6  <0> d           4.264  -0.341   0.339  0.00  0.00     0.157 HD
ENDBRANCH   4  15
TORSDOF 3
