REMARK  1 active torsions:
REMARK  status: ('A' for Active; 'I' for Inactive)
REMARK    1  A    between atoms: C1_1  and  C2_2 
ROOT
ATOM      1  C2  <0> d           0.002  -0.004   0.002  0.00  0.00    -0.019 A 
ATOM      2  C3  <0> d           0.006  -0.706  -1.193  0.00  0.00    -0.057 A 
ATOM      3  C4  <0> d           0.025  -2.091  -1.168  0.00  0.00     0.004 A 
ATOM      4  N1  <0> d           0.039  -2.748  -0.029  0.00  0.00    -0.247 NA
ATOM      5  C5  <0> d           0.036  -2.116   1.140  0.00  0.00     0.175 A 
ATOM      6  C6  <0> d           0.023  -0.720   1.191  0.00  0.00     0.161 A 
ATOM      7  F1  <0> d           0.026  -0.077   2.379  0.00  0.00    -0.202 F 
ATOM      8  C7  <0> d           0.051  -2.872   2.356  0.00  0.00     0.123 C 
ATOM      9  N2  <0> d           0.064  -3.471   3.321  0.00  0.00    -0.190 NA
ATOM     10  H4  <0> d          -0.006  -0.178  -2.135  0.00  0.00     0.086 H 
ATOM     11  H5  <0> d           0.028  -2.640  -2.098  0.00  0.00     0.114 H 
ENDROOT
BRANCH   1  12
ATOM     12  C1  <0> d          -0.018   1.503   0.010  0.00  0.00    -0.048 C 
ATOM     13  H1  <0> d           1.004   1.880   0.003  0.00  0.00     0.033 H 
ATOM     14  H2  <0> d          -0.545   1.864  -0.873  0.00  0.00     0.033 H 
ATOM     15  H3  <0> d          -0.529   1.854   0.907  0.00  0.00     0.033 H 
ENDBRANCH   1  12
TORSDOF 1
