REMARK  2 active torsions:
REMARK  status: ('A' for Active; 'I' for Inactive)
REMARK    1  A    between atoms: C1_1  and  C2_2 
REMARK    2  A    between atoms: C4_4  and  C5_7 
REMARK       I    between atoms: C5_7  and  N2_9 
ROOT
ATOM      1  C2  <0> d           1.042   1.924   0.002  0.00  0.00     0.077 A 
ATOM      2  C3  <0> d          -0.013   1.076   0.008  0.00  0.00    -0.017 A 
ATOM      3  C4  <0> d          -1.145   1.937   0.017  0.00  0.00     0.154 A 
ATOM      4  N1  <0> d          -0.672   3.159   0.025  0.00  0.00    -0.123 NA
ATOM      5  O1  <0> d           0.536   3.165   0.014  0.00  0.00    -0.218 OA
ATOM      6  H4  <0> d           0.002  -0.004   0.002  0.00  0.00     0.091 H 
ENDROOT
BRANCH   3   7
ATOM      7  C5  <0> d          -2.572   1.533   0.021  0.00  0.00     0.270 C 
ATOM      8  O2  <0> d          -2.870   0.355   0.015  0.00  0.00    -0.266 OA
ATOM      9  N2  <0> d          -3.538   2.473   0.029  0.00  0.00    -0.365 N 
ATOM     10  H5  <0> d          -3.300   3.413   0.034  0.00  0.00     0.159 HD
ATOM     11  H6  <0> d          -4.472   2.209   0.032  0.00  0.00     0.159 HD
ENDBRANCH   3   7
BRANCH   1  12
ATOM     12  C1  <0> d           2.501   1.546  -0.013  0.00  0.00    -0.029 C 
ATOM     13  H1  <0> d           2.842   1.461  -1.045  0.00  0.00     0.036 H 
ATOM     14  H2  <0> d           3.080   2.314   0.499  0.00  0.00     0.036 H 
ATOM     15  H3  <0> d           2.634   0.591   0.494  0.00  0.00     0.036 H 
ENDBRANCH   1  12
TORSDOF 2
