REMARK  1 active torsions:
REMARK  status: ('A' for Active; 'I' for Inactive)
REMARK    1  A    between atoms: C1_1  and  C2_2 
ROOT
ATOM      1  C2  <0> d          -0.766   3.552   0.028  0.00  0.00     0.053 A 
ATOM      2  C3  <0> d           0.540   4.056   0.019  0.00  0.00     0.069 A 
ATOM      3  C4  <0> d           1.613   3.161   0.004  0.00  0.00    -0.047 A 
ATOM      4  C5  <0> d           1.326   1.797  -0.001  0.00  0.00     0.013 A 
ATOM      5  C6  <0> d           2.143   0.582  -0.015  0.00  0.00    -0.054 A 
ATOM      6  C7  <0> d           1.294  -0.457  -0.013  0.00  0.00    -0.020 A 
ATOM      7  N1  <0> d           0.002  -0.004   0.002  0.00  0.00    -0.350 N 
ATOM      8  H1  <0> d          -0.785  -0.571   0.007  0.00  0.00     0.166 HD
ATOM      9  C8  <0> d          -0.017   1.368   0.010  0.00  0.00     0.138 A 
ATOM     10  N2  <0> d          -1.001   2.260   0.029  0.00  0.00    -0.234 NA
ATOM     11  C9  <0> d           0.774   5.469   0.025  0.00  0.00     0.101 C 
ATOM     12  N3  <0> d           0.959   6.590   0.029  0.00  0.00    -0.191 NA
ATOM     13  H5  <0> d           2.634   3.515  -0.005  0.00  0.00     0.087 H 
ATOM     14  H6  <0> d           3.222   0.532  -0.025  0.00  0.00     0.087 H 
ATOM     15  H7  <0> d           1.587  -1.497  -0.021  0.00  0.00     0.111 H 
ENDROOT
BRANCH   1  16
ATOM     16  C1  <0> d          -1.928   4.512   0.044  0.00  0.00    -0.034 C 
ATOM     17  H2  <0> d          -2.217   4.749  -0.980  0.00  0.00     0.035 H 
ATOM     18  H3  <0> d          -2.770   4.056   0.564  0.00  0.00     0.035 H 
ATOM     19  H4  <0> d          -1.635   5.427   0.560  0.00  0.00     0.035 H 
ENDBRANCH   1  16
TORSDOF 1
