REMARK  4 active torsions:
REMARK  status: ('A' for Active; 'I' for Inactive)
REMARK    1  A    between atoms: C1_1  and  O1_2 
REMARK    2  A    between atoms: O1_2  and  C2_3 
REMARK    3  A    between atoms: C5_6  and  O2_9 
REMARK    4  A    between atoms: O2_9  and  C6_10 
ROOT
ATOM      1  C2  <0> d           1.130  -0.693  -0.013  0.00  0.00     0.185 A 
ATOM      2  C3  <0> d           2.352  -0.023  -0.021  0.00  0.00    -0.026 A 
ATOM      3  C4  <0> d           2.333   1.362  -0.013  0.00  0.00    -0.026 A 
ATOM      4  C5  <0> d           1.094   1.998   0.002  0.00  0.00     0.185 A 
ATOM      5  N1  <0> d          -0.015   1.279   0.009  0.00  0.00    -0.122 NA
ATOM      6  N2  <0> d           0.002  -0.004   0.002  0.00  0.00    -0.122 NA
ATOM      7  H4  <0> d           3.285  -0.567  -0.032  0.00  0.00     0.090 H 
ATOM      8  H5  <0> d           3.251   1.931  -0.018  0.00  0.00     0.090 H 
ENDROOT
BRANCH   1   9
ATOM      9  O1  <0> d           1.098  -2.050  -0.019  0.00  0.00    -0.338 OA
BRANCH   9  10
ATOM     10  C1  <0> d          -0.190  -2.669  -0.010  0.00  0.00     0.012 C 
ATOM     11  H1  <0> d          -0.731  -2.368   0.887  0.00  0.00     0.067 H 
ATOM     12  H2  <0> d          -0.748  -2.359  -0.893  0.00  0.00     0.067 H 
ATOM     13  H3  <0> d          -0.072  -3.753  -0.016  0.00  0.00     0.067 H 
ENDBRANCH   9  10
ENDBRANCH   1   9
BRANCH   4  14
ATOM     14  O2  <0> d           1.025   3.354   0.010  0.00  0.00    -0.338 OA
BRANCH  14  15
ATOM     15  C6  <0> d          -0.279   3.938   0.025  0.00  0.00     0.012 C 
ATOM     16  H6  <0> d          -0.829   3.622  -0.862  0.00  0.00     0.067 H 
ATOM     17  H7  <0> d          -0.812   3.613   0.918  0.00  0.00     0.067 H 
ATOM     18  H8  <0> d          -0.191   5.025   0.030  0.00  0.00     0.067 H 
ENDBRANCH  14  15
ENDBRANCH   4  14
TORSDOF 4
