REMARK  3 active torsions:
REMARK  status: ('A' for Active; 'I' for Inactive)
REMARK    1  A    between atoms: C1_1  and  C2_2 
REMARK    2  A    between atoms: C8_10  and  C11_13 
REMARK    3  A    between atoms: C9_11  and  C10_12 
ROOT
ATOM      1  C2  <0> d           3.548   0.725  -0.029  0.00  0.00    -0.034 A 
ATOM      2  C3  <0> d           4.137   1.971  -0.029  0.00  0.00    -0.075 A 
ATOM      3  C4  <0> d           3.360   3.121  -0.015  0.00  0.00    -0.082 A 
ATOM      4  C5  <0> d           1.996   3.037  -0.001  0.00  0.00    -0.070 A 
ATOM      5  C6  <0> d           1.379   1.786  -0.002  0.00  0.00    -0.001 A 
ATOM      6  C7  <0> d           2.162   0.616  -0.015  0.00  0.00     0.049 A 
ATOM      7  N1  <0> d           1.294  -0.453  -0.013  0.00  0.00    -0.358 N 
ATOM      8  H1  <0> d           1.560  -1.386  -0.020  0.00  0.00     0.166 HD
ATOM      9  C8  <0> d           0.002  -0.004   0.002  0.00  0.00     0.012 A 
ATOM     10  C9  <0> d          -0.016   1.338   0.009  0.00  0.00    -0.027 A 
ATOM     11  H5  <0> d           5.214   2.053  -0.039  0.00  0.00     0.084 H 
ATOM     12  H6  <0> d           3.838   4.090  -0.015  0.00  0.00     0.083 H 
ATOM     13  H7  <0> d           1.398   3.937   0.010  0.00  0.00     0.084 H 
ENDROOT
BRANCH   1  14
ATOM     14  C1  <0> d           4.404  -0.516  -0.044  0.00  0.00    -0.049 C 
ATOM     15  H2  <0> d           4.599  -0.809  -1.075  0.00  0.00     0.033 H 
ATOM     16  H3  <0> d           5.348  -0.312   0.461  0.00  0.00     0.033 H 
ATOM     17  H4  <0> d           3.882  -1.323   0.471  0.00  0.00     0.033 H 
ENDBRANCH   1  14
BRANCH  10  18
ATOM     18  C10 <0> d          -1.240   2.218   0.020  0.00  0.00    -0.049 C 
ATOM     19  H8  <0> d          -1.529   2.425   1.050  0.00  0.00     0.033 H 
ATOM     20  H9  <0> d          -1.018   3.155  -0.490  0.00  0.00     0.033 H 
ATOM     21  H10 <0> d          -2.057   1.710  -0.492  0.00  0.00     0.033 H 
ENDBRANCH  10  18
BRANCH   9  22
ATOM     22  C11 <0> d          -1.220  -0.886   0.009  0.00  0.00    -0.037 C 
ATOM     23  H11 <0> d          -1.525  -1.093  -1.016  0.00  0.00     0.035 H 
ATOM     24  H12 <0> d          -0.989  -1.823   0.516  0.00  0.00     0.035 H 
ATOM     25  H13 <0> d          -2.030  -0.379   0.534  0.00  0.00     0.035 H 
ENDBRANCH   9  22
TORSDOF 3
