REMARK  2 active torsions:
REMARK  status: ('A' for Active; 'I' for Inactive)
REMARK    1  A    between atoms: C1_1  and  C2_2 
REMARK    2  A    between atoms: N3_8  and  C4_9 
ROOT
ATOM      1  C2  <0> d           2.462   1.195  -0.496  0.00  0.00     0.127 A 
ATOM      2  N1  <0> d           3.421   2.049  -0.338  0.00  0.00    -0.157 NA
ATOM      3  N2  <0> d           2.891   3.191   0.279  0.00  0.00    -0.227 N 
ATOM      4  H1  <0> d           3.380   3.993   0.519  0.00  0.00     0.194 HD
ATOM      5  C3  <0> d           1.574   2.969   0.470  0.00  0.00     0.344 A 
ATOM      6  O1  <0> d           0.779   3.740   0.977  0.00  0.00    -0.245 OA
ATOM      7  N3  <0> d           1.300   1.736  -0.001  0.00  0.00    -0.280 N 
ENDROOT
BRANCH   7   8
ATOM      8  C4  <0> d          -0.013   1.086   0.008  0.00  0.00     0.023 A 
ATOM      9  C6  <0> d          -1.150   1.781  -0.743  0.00  0.00    -0.044 A 
ATOM     10  C5  <0> d          -1.136   1.773   0.788  0.00  0.00    -0.044 A 
ATOM     11  H8  <0> d          -0.922   2.722  -1.243  0.00  0.00     0.036 H 
ATOM     12  H9  <0> d          -1.883   1.149  -1.243  0.00  0.00     0.036 H 
ATOM     13  H6  <0> d          -1.859   1.135   1.295  0.00  0.00     0.036 H 
ATOM     14  H7  <0> d          -0.897   2.708   1.294  0.00  0.00     0.036 H 
ATOM     15  H5  <0> d           0.002  -0.004   0.002  0.00  0.00     0.073 H 
ENDBRANCH   7   8
BRANCH   1  16
ATOM     16  C1  <0> d           2.597  -0.170  -1.121  0.00  0.00    -0.019 C 
ATOM     17  H2  <0> d           2.424  -0.096  -2.195  0.00  0.00     0.037 H 
ATOM     18  H3  <0> d           3.601  -0.554  -0.941  0.00  0.00     0.037 H 
ATOM     19  H4  <0> d           1.864  -0.846  -0.681  0.00  0.00     0.037 H 
ENDBRANCH   1  16
TORSDOF 2
