REMARK  2 active torsions:
REMARK  status: ('A' for Active; 'I' for Inactive)
REMARK    1  A    between atoms: C1_1  and  C2_2 
REMARK    2  A    between atoms: C4_5  and  C8_13 
ROOT
ATOM      1  C2  <0> d          -0.751   1.592  -1.236  0.00  0.00     0.009 C 
ATOM      2  H1  <0> d          -1.808   1.288  -1.221  0.00  0.00     0.071 H 
ATOM      3  C3  <0> d          -0.013   1.086   0.008  0.00  0.00    -0.026 C 
ATOM      4  C4  <0> d          -0.727   1.579   1.272  0.00  0.00     0.035 C 
ATOM      5  H2  <0> d          -1.710   1.097   1.382  0.00  0.00     0.075 H 
ATOM      6  N1  <0> d          -0.953   3.021   1.158  0.00  0.00    -0.250 N 
ATOM      7  C5  <0> d          -0.935   3.697  -0.021  0.00  0.00     0.121 A 
ATOM      8  C6  <0> d          -1.177   5.000   0.243  0.00  0.00    -0.021 A 
ATOM      9  C7  <0> d          -1.351   5.127   1.627  0.00  0.00     0.025 A 
ATOM     10  N2  <0> d          -1.217   3.942   2.171  0.00  0.00    -0.183 NA
ATOM     11  N3  <0> d          -0.698   3.067  -1.245  0.00  0.00    -0.371 N 
ATOM     12  H6  <0> d           0.002  -0.014   0.004  0.00  0.00     0.039 H 
ATOM     13  H7  <0> d           1.020   1.466   0.002  0.00  0.00     0.039 H 
ATOM     14  H8  <0> d          -1.228   5.799  -0.482  0.00  0.00     0.091 H 
ATOM     15  H9  <0> d          -1.560   6.045   2.156  0.00  0.00     0.117 H 
ATOM     16  H10 <0> d          -0.483   3.605  -2.180  0.00  0.00     0.161 HD
ENDROOT
BRANCH   1  17
ATOM     17  C1  <0> d          -0.072   1.046  -2.494  0.00  0.00    -0.057 C 
ATOM     18  H3  <0> d          -0.112  -0.053  -2.485  0.00  0.00     0.030 H 
ATOM     19  H4  <0> d           0.978   1.374  -2.516  0.00  0.00     0.030 H 
ATOM     20  H5  <0> d          -0.593   1.425  -3.386  0.00  0.00     0.030 H 
ENDBRANCH   1  17
BRANCH   4  21
ATOM     21  C8  <0> d           0.144   1.294   2.497  0.00  0.00    -0.055 C 
ATOM     22  H11 <0> d          -0.369   1.648   3.403  0.00  0.00     0.030 H 
ATOM     23  H12 <0> d           1.106   1.817   2.392  0.00  0.00     0.030 H 
ATOM     24  H13 <0> d           0.323   0.211   2.576  0.00  0.00     0.030 H 
ENDBRANCH   4  21
TORSDOF 2
