REMARK  2 active torsions:
REMARK  status: ('A' for Active; 'I' for Inactive)
REMARK    1  A    between atoms: C1_1  and  N1_2 
REMARK    2  A    between atoms: N1_2  and  C2_3 
ROOT
ATOM      1  C2  <0> d          -0.017   1.384   0.010  0.00  0.00     0.049 A 
ATOM      2  C3  <0> d           0.002  -0.004   0.002  0.00  0.00    -0.053 A 
ATOM      3  C4  <0> d           1.208  -0.678  -0.013  0.00  0.00    -0.043 A 
ATOM      4  C5  <0> d           2.398   0.030  -0.021  0.00  0.00     0.118 A 
ATOM      5  C6  <0> d           2.383   1.415  -0.014  0.00  0.00    -0.022 A 
ATOM      6  C7  <0> d           1.178   2.093   0.002  0.00  0.00     0.063 A 
ATOM      7 Cl1  <0> d           1.159   3.829   0.011  0.00  0.00    -0.082 Cl
ATOM      8  F1  <0> d           3.576  -0.631  -0.036  0.00  0.00    -0.206 F 
ATOM      9  H5  <0> d          -0.926  -0.557   0.007  0.00  0.00     0.087 H 
ATOM     10  H6  <0> d           1.223  -1.758  -0.019  0.00  0.00     0.088 H 
ATOM     11  H7  <0> d           3.312   1.965  -0.020  0.00  0.00     0.090 H 
ENDROOT
BRANCH   1  12
ATOM     12  N1  <0> d          -1.237   2.068   0.019  0.00  0.00    -0.393 N 
ATOM     13  H4  <0> d          -1.251   3.168   0.025  0.00  0.00     0.159 HD
BRANCH  12  14
ATOM     14  C1  <0> d          -2.496   1.320   0.021  0.00  0.00    -0.021 C 
ATOM     15  H1  <0> d          -3.341   2.024   0.029  0.00  0.00     0.056 H 
ATOM     16  H2  <0> d          -2.542   0.682   0.916  0.00  0.00     0.056 H 
ATOM     17  H3  <0> d          -2.551   0.692  -0.880  0.00  0.00     0.056 H 
ENDBRANCH  12  14
ENDBRANCH   1  12
TORSDOF 2
