REMARK  3 active torsions:
REMARK  status: ('A' for Active; 'I' for Inactive)
REMARK    1  A    between atoms: C3_3  and  C5_6 
REMARK    2  A    between atoms: C5_6  and  C6_8 
REMARK    3  A    between atoms: C5_6  and  O4_11 
ROOT
ATOM      1  C1  <0> d          -0.016   1.341   0.009  0.00  0.00    -0.059 A 
ATOM      2  C2  <0> d           1.331   1.769  -0.001  0.00  0.00    -0.049 A 
ATOM      3  C3  <0> d           2.092   0.660  -0.014  0.00  0.00     0.091 A 
ATOM      4  O1  <0> d           1.282  -0.411  -0.012  0.00  0.00    -0.324 OA
ATOM      5  C4  <0> d           0.002  -0.004   0.002  0.00  0.00     0.019 A 
ATOM      6  H2  <0> d          -0.892   1.973   0.025  0.00  0.00     0.086 H 
ATOM      7  H3  <0> d           1.682   2.790   0.000  0.00  0.00     0.087 H 
ATOM      8  H4  <0> d          -0.865  -0.647   0.007  0.00  0.00     0.123 H 
ENDROOT
BRANCH   3   9
ATOM      9  C5  <0> d           3.599   0.625  -0.029  0.00  0.00     0.165 C 
ATOM     10  H1  <0> d           3.988   1.545   0.406  0.00  0.00     0.111 H 
BRANCH   9  11
ATOM     11  C6  <0> d           4.084   0.497  -1.450  0.00  0.00     0.209 C 
ATOM     12  O2  <0> d           3.880   1.396  -2.248  0.00  0.00    -0.646 OA
ATOM     13  O3  <0> d           4.682  -0.506  -1.802  0.00  0.00    -0.646 OA
ENDBRANCH   9  11
BRANCH   9  14
ATOM     14  O4  <0> d           4.057  -0.493   0.733  0.00  0.00    -0.378 OA
ATOM     15  H5  <0> d           3.748  -1.348   0.402  0.00  0.00     0.211 HD
ENDBRANCH   9  14
ENDBRANCH   3   9
TORSDOF 3
