REMARK  0 active torsions:
REMARK  status: ('A' for Active; 'I' for Inactive)
ROOT
ATOM      1  C1  <0> d          -0.019   1.571   0.011  0.00  0.00    -0.046 C 
ATOM      2  C2  <0> d           1.555   1.607  -0.004  0.00  0.00    -0.021 C 
ATOM      3  C3  <0> d           1.823   0.707  -1.220  0.00  0.00    -0.098 C 
ATOM      4  C4  <0> d           0.906  -0.244  -1.216  0.00  0.00    -0.098 C 
ATOM      5  C5  <0> d           0.002  -0.004   0.002  0.00  0.00    -0.021 C 
ATOM      6  C6  <0> d           0.929  -0.257   1.200  0.00  0.00    -0.098 C 
ATOM      7  C7  <0> d           1.846   0.694   1.196  0.00  0.00    -0.098 C 
ATOM      8  H1  <0> d          -0.447   1.986   0.923  0.00  0.00     0.035 H 
ATOM      9  H2  <0> d          -0.464   1.996  -0.889  0.00  0.00     0.035 H 
ATOM     10  H3  <0> d           2.027   2.589   0.004  0.00  0.00     0.051 H 
ATOM     11  H4  <0> d           2.615   0.829  -1.943  0.00  0.00     0.077 H 
ATOM     12  H5  <0> d           0.811  -1.043  -1.936  0.00  0.00     0.077 H 
ATOM     13  H6  <0> d          -0.963  -0.511   0.001  0.00  0.00     0.051 H 
ATOM     14  H7  <0> d           0.847  -1.064   1.913  0.00  0.00     0.077 H 
ATOM     15  H8  <0> d           2.652   0.809   1.906  0.00  0.00     0.077 H 
ENDROOT
TORSDOF 0
