REMARK  2 active torsions:
REMARK  status: ('A' for Active; 'I' for Inactive)
REMARK    1  A    between atoms: C1_1  and  C2_2 
REMARK    2  A    between atoms: C3_3  and  C6_8 
ROOT
ATOM      1  C2  <0> d          -0.718   1.572   1.248  0.00  0.00     0.054 A 
ATOM      2  C3  <0> d           0.002   1.806   2.407  0.00  0.00     0.054 A 
ATOM      3  N1  <0> d          -0.617   2.232   3.494  0.00  0.00    -0.262 NA
ATOM      4  C4  <0> d          -1.923   2.436   3.474  0.00  0.00     0.019 A 
ATOM      5  C5  <0> d          -2.642   2.201   2.316  0.00  0.00     0.019 A 
ATOM      6  N2  <0> d          -2.023   1.780   1.227  0.00  0.00    -0.262 NA
ATOM      7  H4  <0> d          -2.428   2.784   4.363  0.00  0.00     0.117 H 
ATOM      8  H5  <0> d          -3.709   2.368   2.300  0.00  0.00     0.117 H 
ENDROOT
BRANCH   1   9
ATOM      9  C1  <0> d          -0.013   1.086   0.008  0.00  0.00    -0.034 C 
ATOM     10  H1  <0> d           0.002  -0.004   0.002  0.00  0.00     0.035 H 
ATOM     11  H2  <0> d           1.010   1.463   0.000  0.00  0.00     0.035 H 
ATOM     12  H3  <0> d          -0.540   1.447  -0.875  0.00  0.00     0.035 H 
ENDBRANCH   1   9
BRANCH   2  13
ATOM     13  C6  <0> d           1.490   1.574   2.429  0.00  0.00    -0.034 C 
ATOM     14  H6  <0> d           2.005   2.490   2.141  0.00  0.00     0.035 H 
ATOM     15  H7  <0> d           1.798   1.285   3.434  0.00  0.00     0.035 H 
ATOM     16  H8  <0> d           1.745   0.779   1.728  0.00  0.00     0.035 H 
ENDBRANCH   2  13
TORSDOF 2
