REMARK  1 active torsions:
REMARK  status: ('A' for Active; 'I' for Inactive)
REMARK    1  A    between atoms: C4_5  and  N2_7 
ROOT
ATOM      1  C1  <0> d           4.738   2.109  -0.030  0.00  0.00    -0.078 A 
ATOM      2  C2  <0> d           5.032   0.752  -0.039  0.00  0.00    -0.066 A 
ATOM      3  C3  <0> d           3.997  -0.163  -0.034  0.00  0.00     0.004 A 
ATOM      4  N1  <0> d           2.740   0.238  -0.015  0.00  0.00    -0.243 NA
ATOM      5  C4  <0> d           2.421   1.521  -0.012  0.00  0.00     0.135 A 
ATOM      6  C5  <0> d           3.409   2.497  -0.016  0.00  0.00    -0.038 A 
ATOM      7  H1  <0> d           5.528   2.845  -0.034  0.00  0.00     0.083 H 
ATOM      8  H2  <0> d           6.058   0.416  -0.050  0.00  0.00     0.085 H 
ATOM      9  H3  <0> d           4.220  -1.219  -0.040  0.00  0.00     0.114 H 
ATOM     10  H4  <0> d           3.145   3.544  -0.009  0.00  0.00     0.089 H 
ENDROOT
BRANCH   5  11
ATOM     11  N2  <0> d           1.074   1.900   0.002  0.00  0.00    -0.281 N 
ATOM     12  C7  <0> d           0.576   3.169   0.013  0.00  0.00     0.094 A 
ATOM     13  N4  <0> d          -0.725   3.073   0.025  0.00  0.00    -0.144 NA
ATOM     14  H6  <0> d           1.151   4.083   0.012  0.00  0.00     0.147 H 
ATOM     15  N3  <0> d          -1.073   1.836   0.016  0.00  0.00    -0.144 NA
ATOM     16  C6  <0> d          -0.013   1.076   0.008  0.00  0.00     0.094 A 
ATOM     17  H5  <0> d           0.002  -0.004   0.002  0.00  0.00     0.147 H 
ENDBRANCH   5  11
TORSDOF 1
