REMARK  2 active torsions:
REMARK  status: ('A' for Active; 'I' for Inactive)
REMARK    1  A    between atoms: C2_2  and  C5_8 
REMARK    2  A    between atoms: C4_5  and  N3_7 
REMARK       I    between atoms: C5_8  and  N4_10 
ROOT
ATOM      1  C1  <0> d          -2.341   3.647   0.033  0.00  0.00     0.038 A 
ATOM      2  C2  <0> d          -3.555   2.948   0.035  0.00  0.00     0.068 A 
ATOM      3  C3  <0> d          -3.515   1.548   0.027  0.00  0.00     0.038 A 
ATOM      4  N1  <0> d          -2.343   0.941   0.018  0.00  0.00    -0.074 NA
ATOM      5  C4  <0> d          -1.215   1.639   0.017  0.00  0.00     0.719 A 
ATOM      6  N2  <0> d          -1.211   2.966   0.029  0.00  0.00    -0.074 NA
ATOM      7  H1  <0> d          -2.330   4.727   0.039  0.00  0.00     0.117 H 
ATOM      8  H2  <0> d          -4.430   0.973   0.029  0.00  0.00     0.117 H 
ENDROOT
BRANCH   2   9
ATOM      9  C5  <0> d          -4.843   3.669   0.045  0.00  0.00     0.252 C 
ATOM     10  O1  <0> d          -5.888   3.046   0.047  0.00  0.00    -0.268 OA
ATOM     11  N4  <0> d          -4.861   5.016   0.053  0.00  0.00    -0.366 N 
ATOM     12  H5  <0> d          -4.028   5.513   0.051  0.00  0.00     0.159 HD
ATOM     13  H6  <0> d          -5.708   5.490   0.060  0.00  0.00     0.159 HD
ENDBRANCH   2   9
BRANCH   5  14
ATOM     14  N3  <0> d          -0.011   0.966   0.007  0.00  0.00    -0.231 N 
ATOM     15  H3  <0> d           0.002  -0.004   0.002  0.00  0.00     0.174 HD
ATOM     16  H4  <0> d           0.822   1.462   0.002  0.00  0.00     0.174 HD
ENDBRANCH   5  14
TORSDOF 2
