REMARK  4 active torsions:
REMARK  status: ('A' for Active; 'I' for Inactive)
REMARK    1  A    between atoms: C1_1  and  O1_2 
REMARK    2  A    between atoms: O1_2  and  C2_3 
REMARK    3  A    between atoms: C2_3  and  C3_4 
REMARK    4  A    between atoms: C3_4  and  C6_7 
ROOT
ATOM      1  C3  <0> d           1.317   0.779  -0.006  0.00  0.00     0.070 A 
ATOM      2  C4  <0> d          -0.019   1.526   0.010  0.00  0.00    -0.045 A 
ATOM      3  C5  <0> d           0.002  -0.004   0.002  0.00  0.00    -0.045 A 
ATOM      4  H6  <0> d          -0.325   2.030  -0.906  0.00  0.00     0.035 H 
ATOM      5  H7  <0> d          -0.307   2.020   0.938  0.00  0.00     0.035 H 
ATOM      6  H8  <0> d          -0.273  -0.516   0.924  0.00  0.00     0.035 H 
ATOM      7  H9  <0> d          -0.290  -0.506  -0.920  0.00  0.00     0.035 H 
ENDROOT
BRANCH   1   8
ATOM      8  C2  <0> d           2.120   0.797  -1.308  0.00  0.00     0.035 C 
ATOM      9  H4  <0> d           1.528   0.348  -2.106  0.00  0.00     0.076 H 
ATOM     10  H5  <0> d           2.362   1.827  -1.571  0.00  0.00     0.076 H 
BRANCH   8  11
ATOM     11  O1  <0> d           3.327   0.053  -1.134  0.00  0.00    -0.395 OA
BRANCH  11  12
ATOM     12  C1  <0> d           4.155   0.007  -2.297  0.00  0.00     0.004 C 
ATOM     13  H1  <0> d           4.440   1.020  -2.581  0.00  0.00     0.066 H 
ATOM     14  H2  <0> d           5.051  -0.576  -2.083  0.00  0.00     0.066 H 
ATOM     15  H3  <0> d           3.606  -0.459  -3.116  0.00  0.00     0.066 H 
ENDBRANCH  11  12
ENDBRANCH   8  11
ENDBRANCH   1   8
BRANCH   1  16
ATOM     16  C6  <0> d           2.132   0.783   1.261  0.00  0.00     0.184 C 
ATOM     17  O2  <0> d           1.724   1.362   2.240  0.00  0.00    -0.647 OA
ATOM     18  O3  <0> d           3.312   0.143   1.302  0.00  0.00    -0.647 OA
ENDBRANCH   1  16
TORSDOF 4
