REMARK  1 active torsions:
REMARK  status: ('A' for Active; 'I' for Inactive)
REMARK    1  A    between atoms: C5_6  and  N2_7 
ROOT
ATOM      1  C1  <0> d          -0.017   1.389   0.010  0.00  0.00    -0.053 A 
ATOM      2  C2  <0> d           1.193   2.063   0.002  0.00  0.00    -0.042 A 
ATOM      3  C3  <0> d           2.371   1.338  -0.013  0.00  0.00     0.125 A 
ATOM      4  N1  <0> d           2.354   0.018  -0.020  0.00  0.00    -0.247 NA
ATOM      5  C4  <0> d           1.225  -0.662  -0.013  0.00  0.00     0.029 A 
ATOM      6  C5  <0> d           0.002  -0.004   0.002  0.00  0.00     0.043 A 
ATOM      7 Cl1  <0> d           3.892   2.175  -0.023  0.00  0.00    -0.062 Cl
ATOM      8  H1  <0> d          -0.952   1.929   0.017  0.00  0.00     0.087 H 
ATOM      9  H2  <0> d           1.216   3.143   0.007  0.00  0.00     0.088 H 
ATOM     10  H3  <0> d           1.252  -1.741  -0.019  0.00  0.00     0.118 H 
ENDROOT
BRANCH   6  11
ATOM     11  N2  <0> d          -1.193  -0.729   0.009  0.00  0.00    -0.398 N 
ATOM     12  H4  <0> d          -2.043  -0.263   0.019  0.00  0.00     0.156 HD
ATOM     13  H5  <0> d          -1.172  -1.699   0.004  0.00  0.00     0.156 HD
ENDBRANCH   6  11
TORSDOF 1
