REMARK  1 active torsions:
REMARK  status: ('A' for Active; 'I' for Inactive)
REMARK    1  A    between atoms: C6_6  and  O1_7 
ROOT
ATOM      1  C1  <0> d          -0.017   1.380   0.010  0.00  0.00    -0.031 A 
ATOM      2  C2  <0> d           1.185   2.091   0.002  0.00  0.00     0.049 A 
ATOM      3  C3  <0> d           2.398   1.400  -0.013  0.00  0.00    -0.042 A 
ATOM      4  C4  <0> d           2.405   0.019  -0.021  0.00  0.00     0.038 A 
ATOM      5  C5  <0> d           1.213  -0.683  -0.013  0.00  0.00    -0.030 A 
ATOM      6  C6  <0> d           0.002  -0.004   0.002  0.00  0.00     0.068 A 
ATOM      7 Cl1  <0> d           3.915  -0.839  -0.040  0.00  0.00    -0.084 Cl
ATOM      8  C7  <0> d           1.173   3.523   0.009  0.00  0.00     0.099 C 
ATOM      9  N1  <0> d           1.163   4.659   0.015  0.00  0.00    -0.191 NA
ATOM     10  H1  <0> d          -0.958   1.909   0.026  0.00  0.00     0.090 H 
ATOM     11  H2  <0> d           3.330   1.946  -0.020  0.00  0.00     0.088 H 
ATOM     12  H3  <0> d           1.224  -1.763  -0.019  0.00  0.00     0.090 H 
ENDROOT
BRANCH   6  13
ATOM     13  O1  <0> d          -1.166  -0.699   0.010  0.00  0.00    -0.361 OA
ATOM     14  H4  <0> d          -1.513  -0.895  -0.871  0.00  0.00     0.217 HD
ENDBRANCH   6  13
TORSDOF 1
