REMARK  4 active torsions:
REMARK  status: ('A' for Active; 'I' for Inactive)
REMARK    1  A    between atoms: C1_1  and  C2_2 
REMARK       I    between atoms: C2_2  and  N1_4 
REMARK    2  A    between atoms: N1_4  and  C3_5 
REMARK    3  A    between atoms: C3_5  and  N2_6 
REMARK       I    between atoms: N2_6  and  C4_7 
REMARK    4  A    between atoms: C4_7  and  C5_9 
ROOT
ATOM      1  C3  <0> d           2.422   1.183  -0.015  0.00  0.00     0.056 C 
ATOM      2  H5  <0> d           3.156   1.737   0.571  0.00  0.00     0.096 H 
ATOM      3  H6  <0> d           2.288   0.191   0.416  0.00  0.00     0.096 H 
ENDROOT
BRANCH   1   4
ATOM      4  N1  <0> d           1.143   1.898   0.001  0.00  0.00    -0.345 N 
ATOM      5  C2  <0> d          -0.014   1.209   0.009  0.00  0.00     0.214 C 
ATOM      6  O1  <0> d           0.002  -0.004   0.002  0.00  0.00    -0.274 OA
ATOM      7  H4  <0> d           1.130   2.868   0.007  0.00  0.00     0.164 HD
BRANCH   5   8
ATOM      8  C1  <0> d          -1.330   1.944   0.019  0.00  0.00    -0.003 C 
ATOM      9  H1  <0> d          -2.148   1.225   0.019  0.00  0.00     0.040 H 
ATOM     10  H2  <0> d          -1.392   2.565   0.913  0.00  0.00     0.040 H 
ATOM     11  H3  <0> d          -1.400   2.575  -0.867  0.00  0.00     0.040 H 
ENDBRANCH   5   8
ENDBRANCH   1   4
BRANCH   1  12
ATOM     12  N2  <0> d           2.894   1.057  -1.396  0.00  0.00    -0.345 N 
ATOM     13  C4  <0> d           3.760   1.960  -1.897  0.00  0.00     0.214 C 
ATOM     14  O2  <0> d           4.149   2.877  -1.205  0.00  0.00    -0.274 OA
ATOM     15  H7  <0> d           2.583   0.324  -1.950  0.00  0.00     0.164 HD
BRANCH  13  16
ATOM     16  C5  <0> d           4.245   1.831  -3.318  0.00  0.00    -0.003 C 
ATOM     17  H8  <0> d           3.394   1.876  -3.998  0.00  0.00     0.040 H 
ATOM     18  H9  <0> d           4.934   2.645  -3.542  0.00  0.00     0.040 H 
ATOM     19  H10 <0> d           4.758   0.877  -3.441  0.00  0.00     0.040 H 
ENDBRANCH  13  16
ENDBRANCH   1  12
TORSDOF 4
