REMARK  4 active torsions:
REMARK  status: ('A' for Active; 'I' for Inactive)
REMARK    1  A    between atoms: C1_1  and  O1_2 
REMARK    2  A    between atoms: O1_2  and  C2_3 
REMARK    3  A    between atoms: C5_7  and  O2_9 
REMARK    4  A    between atoms: O2_9  and  C6_10 
ROOT
ATOM      1  C2  <0> d           1.182   1.786   0.000  0.00  0.00     0.184 A 
ATOM      2  C3  <0> d          -0.013   1.076   0.008  0.00  0.00     0.053 A 
ATOM      3  N1  <0> d          -1.165   1.720   0.017  0.00  0.00    -0.264 NA
ATOM      4  C4  <0> d          -1.187   3.040   0.030  0.00  0.00     0.053 A 
ATOM      5  C5  <0> d           0.004   3.756   0.022  0.00  0.00     0.184 A 
ATOM      6  N2  <0> d           1.163   3.112   0.008  0.00  0.00    -0.198 NA
ATOM      7  H4  <0> d           0.002  -0.004   0.002  0.00  0.00     0.121 H 
ATOM      8  H5  <0> d          -2.131   3.564   0.041  0.00  0.00     0.121 H 
ENDROOT
BRANCH   1   9
ATOM      9  O1  <0> d           2.366   1.124  -0.015  0.00  0.00    -0.338 OA
BRANCH   9  10
ATOM     10  C1  <0> d           3.553   1.919  -0.022  0.00  0.00     0.012 C 
ATOM     11  H1  <0> d           3.578   2.542   0.871  0.00  0.00     0.067 H 
ATOM     12  H2  <0> d           4.427   1.266  -0.034  0.00  0.00     0.067 H 
ATOM     13  H3  <0> d           3.561   2.553  -0.908  0.00  0.00     0.067 H 
ENDBRANCH   9  10
ENDBRANCH   1   9
BRANCH   5  14
ATOM     14  O2  <0> d          -0.019   5.113   0.029  0.00  0.00    -0.338 OA
BRANCH  14  15
ATOM     15  C6  <0> d           1.243   5.783   0.020  0.00  0.00     0.012 C 
ATOM     16  H6  <0> d           1.814   5.495   0.903  0.00  0.00     0.067 H 
ATOM     17  H7  <0> d           1.796   5.504  -0.876  0.00  0.00     0.067 H 
ATOM     18  H8  <0> d           1.082   6.861   0.027  0.00  0.00     0.067 H 
ENDBRANCH  14  15
ENDBRANCH   5  14
TORSDOF 4
