REMARK  2 active torsions:
REMARK  status: ('A' for Active; 'I' for Inactive)
REMARK    1  A    between atoms: C1_1  and  C2_2 
REMARK    2  A    between atoms: C2_2  and  C3_3 
ROOT
ATOM      1  C3  <0> d          -0.718   1.572   1.248  0.00  0.00    -0.051 A 
ATOM      2  C4  <0> d          -0.368   2.777   1.827  0.00  0.00    -0.070 A 
ATOM      3  C5  <0> d          -1.027   3.188   2.938  0.00  0.00    -0.045 A 
ATOM      4  S1  <0> d          -2.172   1.845   3.207  0.00  0.00    -0.113 SA
ATOM      5  C6  <0> d          -1.701   0.831   1.815  0.00  0.00    -0.039 A 
ATOM      6  H6  <0> d           0.414   3.385   1.397  0.00  0.00     0.085 H 
ATOM      7  H7  <0> d          -0.890   4.091   3.515  0.00  0.00     0.095 H 
ATOM      8  H8  <0> d          -2.096  -0.126   1.506  0.00  0.00     0.095 H 
ENDROOT
BRANCH   1   9
ATOM      9  C2  <0> d          -0.013   1.086   0.008  0.00  0.00    -0.044 C 
ATOM     10  H4  <0> d           0.002  -0.004   0.002  0.00  0.00     0.039 H 
ATOM     11  H5  <0> d           1.010   1.463   0.000  0.00  0.00     0.039 H 
BRANCH   9  12
ATOM     12  C1  <0> d          -0.753   1.593  -1.232  0.00  0.00    -0.073 C 
ATOM     13  H1  <0> d          -1.775   1.215  -1.224  0.00  0.00     0.028 H 
ATOM     14  H2  <0> d          -0.767   2.683  -1.226  0.00  0.00     0.028 H 
ATOM     15  H3  <0> d          -0.242   1.241  -2.128  0.00  0.00     0.028 H 
ENDBRANCH   9  12
ENDBRANCH   1   9
TORSDOF 2
