REMARK  3 active torsions:
REMARK  status: ('A' for Active; 'I' for Inactive)
REMARK    1  A    between atoms: C1_1  and  C2_2 
REMARK    2  A    between atoms: C2_2  and  N1_3 
REMARK    3  A    between atoms: C5_6  and  C6_8 
ROOT
ATOM      1  N1  <0> d          -0.704   1.998   1.216  0.00  0.00    -0.280 N 
ATOM      2  C3  <0> d          -0.200   2.852   2.123  0.00  0.00     0.020 A 
ATOM      3  C4  <0> d          -1.161   3.035   3.097  0.00  0.00     0.087 A 
ATOM      4  C5  <0> d          -2.277   2.249   2.735  0.00  0.00     0.073 A 
ATOM      5  N2  <0> d          -1.998   1.642   1.614  0.00  0.00    -0.176 NA
ATOM      6  C7  <0> d          -1.047   3.867   4.257  0.00  0.00     0.103 C 
ATOM      7  N3  <0> d          -0.958   4.527   5.177  0.00  0.00    -0.191 NA
ATOM      8  H6  <0> d           0.778   3.309   2.096  0.00  0.00     0.116 H 
ENDROOT
BRANCH   4   9
ATOM      9  C6  <0> d          -3.568   2.136   3.505  0.00  0.00    -0.032 C 
ATOM     10  H7  <0> d          -4.264   2.901   3.160  0.00  0.00     0.035 H 
ATOM     11  H8  <0> d          -4.002   1.150   3.344  0.00  0.00     0.035 H 
ATOM     12  H9  <0> d          -3.370   2.277   4.567  0.00  0.00     0.035 H 
ENDBRANCH   4   9
BRANCH   1  13
ATOM     13  C2  <0> d          -0.019   1.526   0.010  0.00  0.00     0.013 C 
ATOM     14  H4  <0> d           1.004   1.903   0.003  0.00  0.00     0.066 H 
ATOM     15  H5  <0> d          -0.546   1.887  -0.873  0.00  0.00     0.066 H 
BRANCH  13  16
ATOM     16  C1  <0> d           0.002  -0.004   0.002  0.00  0.00    -0.059 C 
ATOM     17  H1  <0> d           0.529  -0.365   0.885  0.00  0.00     0.029 H 
ATOM     18  H2  <0> d          -1.020  -0.381   0.010  0.00  0.00     0.029 H 
ATOM     19  H3  <0> d           0.512  -0.356  -0.895  0.00  0.00     0.029 H 
ENDBRANCH  13  16
ENDBRANCH   1  13
TORSDOF 3
