REMARK  3 active torsions:
REMARK  status: ('A' for Active; 'I' for Inactive)
REMARK    1  A    between atoms: C1_1  and  C2_2 
REMARK    2  A    between atoms: C2_2  and  C3_3 
REMARK    3  A    between atoms: C3_3  and  C4_4 
ROOT
ATOM      1  C4  <0> d           1.150  -0.686  -0.013  0.00  0.00     0.041 A 
ATOM      2  C5  <0> d           2.337  -0.018  -0.020  0.00  0.00     0.006 A 
ATOM      3  C6  <0> d           2.318   1.392  -0.013  0.00  0.00     0.248 A 
ATOM      4  O1  <0> d           3.358   2.029  -0.019  0.00  0.00    -0.268 OA
ATOM      5  N1  <0> d           1.124   2.022   0.002  0.00  0.00    -0.318 N 
ATOM      6  H1  <0> d           1.086   2.991   0.007  0.00  0.00     0.169 HD
ATOM      7  C7  <0> d          -0.016   1.302   0.009  0.00  0.00     0.067 A 
ATOM      8  N2  <0> d           0.002  -0.004   0.002  0.00  0.00    -0.248 NA
ATOM      9  H9  <0> d           3.273  -0.557  -0.032  0.00  0.00     0.095 H 
ATOM     10  H10 <0> d          -0.965   1.817   0.016  0.00  0.00     0.143 H 
ENDROOT
BRANCH   1  11
ATOM     11  C3  <0> d           1.132  -2.193  -0.020  0.00  0.00    -0.025 C 
ATOM     12  H7  <0> d           0.280  -2.543  -0.603  0.00  0.00     0.042 H 
ATOM     13  H8  <0> d           2.055  -2.565  -0.465  0.00  0.00     0.042 H 
BRANCH  11  14
ATOM     14  C2  <0> d           1.014  -2.709   1.416  0.00  0.00    -0.063 C 
ATOM     15  H5  <0> d           1.866  -2.358   1.999  0.00  0.00     0.033 H 
ATOM     16  H6  <0> d           0.091  -2.337   1.861  0.00  0.00     0.033 H 
BRANCH  14  17
ATOM     17  C1  <0> d           0.996  -4.239   1.408  0.00  0.00    -0.076 C 
ATOM     18  H2  <0> d           0.144  -4.589   0.825  0.00  0.00     0.027 H 
ATOM     19  H3  <0> d           1.919  -4.611   0.963  0.00  0.00     0.027 H 
ATOM     20  H4  <0> d           0.912  -4.606   2.431  0.00  0.00     0.027 H 
ENDBRANCH  14  17
ENDBRANCH  11  14
ENDBRANCH   1  11
TORSDOF 3
