REMARK  0 active torsions:
REMARK  status: ('A' for Active; 'I' for Inactive)
ROOT
ATOM      1  C1  <0> d          -0.017   1.370   0.010  0.00  0.00    -0.070 A 
ATOM      2  C2  <0> d           1.197   2.046   0.002  0.00  0.00    -0.044 A 
ATOM      3  C3  <0> d           2.379   1.306  -0.014  0.00  0.00     0.139 A 
ATOM      4  N1  <0> d           2.358  -0.020  -0.021  0.00  0.00    -0.218 NA
ATOM      5  C4  <0> d           1.216  -0.702  -0.014  0.00  0.00     0.156 A 
ATOM      6  C5  <0> d           0.002  -0.004   0.002  0.00  0.00    -0.005 A 
ATOM      7  C6  <0> d          -1.069  -1.069   0.006  0.00  0.00    -0.007 A 
ATOM      8  C7  <0> d          -0.272  -2.358  -0.009  0.00  0.00    -0.011 A 
ATOM      9  N2  <0> d           0.975  -2.048  -0.020  0.00  0.00    -0.245 NA
ATOM     10  C8  <0> d           3.637   1.989  -0.022  0.00  0.00     0.119 C 
ATOM     11  N3  <0> d           4.636   2.531  -0.029  0.00  0.00    -0.190 NA
ATOM     12  H1  <0> d          -0.951   1.911   0.026  0.00  0.00     0.084 H 
ATOM     13  H2  <0> d           1.226   3.126   0.007  0.00  0.00     0.088 H 
ATOM     14  H3  <0> d          -1.676  -1.002   0.909  0.00  0.00     0.048 H 
ATOM     15  H4  <0> d          -1.693  -0.992  -0.885  0.00  0.00     0.048 H 
ATOM     16  H5  <0> d          -0.680  -3.359  -0.010  0.00  0.00     0.108 H 
ENDROOT
TORSDOF 0
