REMARK  1 active torsions:
REMARK  status: ('A' for Active; 'I' for Inactive)
REMARK    1  A    between atoms: C1_1  and  C2_2 
ROOT
ATOM      1  C2  <0> d          -0.753   1.593  -1.232  0.00  0.00     0.086 C 
ATOM      2  C3  <0> d          -0.106   1.046  -2.496  0.00  0.00     0.164 C 
ATOM      3  C4  <0> d          -1.066  -0.059  -2.907  0.00  0.00     0.084 C 
ATOM      4  O1  <0> d          -2.341   0.344  -2.387  0.00  0.00    -0.313 OA
ATOM      5  C5  <0> d          -2.167   1.051  -1.260  0.00  0.00     0.270 C 
ATOM      6  O2  <0> d          -3.003   1.228  -0.406  0.00  0.00    -0.264 OA
ATOM      7  O3  <0> d           0.913   1.402  -3.037  0.00  0.00    -0.295 OA
ATOM      8  H4  <0> d          -1.108  -0.140  -3.994  0.00  0.00     0.087 H 
ATOM      9  H5  <0> d          -0.763   2.683  -1.248  0.00  0.00     0.067 H 
ATOM     10  H6  <0> d          -0.761  -1.009  -2.468  0.00  0.00     0.087 H 
ENDROOT
BRANCH   1  11
ATOM     11  C1  <0> d          -0.013   1.086   0.008  0.00  0.00    -0.058 C 
ATOM     12  H1  <0> d           0.002  -0.004   0.002  0.00  0.00     0.029 H 
ATOM     13  H2  <0> d           1.010   1.463   0.000  0.00  0.00     0.029 H 
ATOM     14  H3  <0> d          -0.523   1.437   0.905  0.00  0.00     0.029 H 
ENDBRANCH   1  11
TORSDOF 1
