REMARK  2 active torsions:
REMARK  status: ('A' for Active; 'I' for Inactive)
REMARK    1  A    between atoms: C4_4  and  N1_8 
REMARK    2  A    between atoms: C5_5  and  O1_7 
ROOT
ATOM      1  C1  <0> d           1.207  -0.688  -0.013  0.00  0.00    -0.079 A 
ATOM      2  C2  <0> d           2.400   0.001  -0.020  0.00  0.00    -0.060 A 
ATOM      3  C3  <0> d           2.399   1.399  -0.013  0.00  0.00     0.073 A 
ATOM      4  C4  <0> d           1.180   2.092   0.002  0.00  0.00     0.080 A 
ATOM      5  C5  <0> d          -0.017   1.380   0.010  0.00  0.00     0.093 A 
ATOM      6  C6  <0> d           0.002  -0.004   0.002  0.00  0.00    -0.049 A 
ATOM      7  C7  <0> d           3.637   2.120  -0.021  0.00  0.00     0.102 C 
ATOM      8  N2  <0> d           4.619   2.691  -0.027  0.00  0.00    -0.191 NA
ATOM      9  H1  <0> d           1.211  -1.768  -0.018  0.00  0.00     0.083 H 
ATOM     10  H2  <0> d           3.335  -0.538  -0.032  0.00  0.00     0.086 H 
ATOM     11  H3  <0> d          -0.927  -0.554   0.008  0.00  0.00     0.087 H 
ENDROOT
BRANCH   4  12
ATOM     12  N1  <0> d           1.166   3.485   0.009  0.00  0.00    -0.396 N 
ATOM     13  H5  <0> d           0.208   4.026   0.021  0.00  0.00     0.156 HD
ATOM     14  H6  <0> d           2.114   4.045   0.003  0.00  0.00     0.156 HD
ENDBRANCH   4  12
BRANCH   5  15
ATOM     15  O1  <0> d          -1.204   2.044   0.019  0.00  0.00    -0.358 OA
ATOM     16  H4  <0> d          -2.149   1.481   0.025  0.00  0.00     0.217 HD
ENDBRANCH   5  15
TORSDOF 2
