REMARK  5 active torsions:
REMARK  status: ('A' for Active; 'I' for Inactive)
REMARK    1  A    between atoms: C1_1  and  C2_2 
REMARK    2  A    between atoms: C2_2  and  C3_3 
REMARK    3  A    between atoms: C3_3  and  N1_4 
REMARK    4  A    between atoms: C4_5  and  N5_10 
REMARK    5  A    between atoms: C5_7  and  N4_9 
ROOT
ATOM      1  N1  <0> d           0.738  -1.962  -1.265  0.00  0.00    -0.083 N 
ATOM      2  C4  <0> d           1.687  -2.760  -0.733  0.00  0.00     0.732 A 
ATOM      3  N2  <0> d           1.336  -4.010  -0.950  0.00  0.00     0.130 NA
ATOM      4  C5  <0> d           0.175  -4.042  -1.613  0.00  0.00     0.753 A 
ATOM      5  N3  <0> d          -0.230  -2.813  -1.822  0.00  0.00     0.036 NA
ENDROOT
BRANCH   1   6
ATOM      6  C3  <0> d           0.718  -0.497  -1.257  0.00  0.00     0.035 C 
ATOM      7  H6  <0> d           0.191  -0.136  -2.140  0.00  0.00     0.068 H 
ATOM      8  H7  <0> d           1.741  -0.120  -1.264  0.00  0.00     0.068 H 
BRANCH   6   9
ATOM      9  C2  <0> d           0.002  -0.004   0.002  0.00  0.00    -0.051 C 
ATOM     10  H4  <0> d           0.529  -0.365   0.885  0.00  0.00     0.035 H 
ATOM     11  H5  <0> d          -1.020  -0.381   0.010  0.00  0.00     0.035 H 
BRANCH   9  12
ATOM     12  C1  <0> d          -0.019   1.526   0.010  0.00  0.00    -0.075 C 
ATOM     13  H1  <0> d           1.004   1.903   0.003  0.00  0.00     0.027 H 
ATOM     14  H2  <0> d          -0.546   1.887  -0.873  0.00  0.00     0.027 H 
ATOM     15  H3  <0> d          -0.529   1.877   0.907  0.00  0.00     0.027 H 
ENDBRANCH   9  12
ENDBRANCH   6   9
ENDBRANCH   1   6
BRANCH   2  16
ATOM     16  N5  <0> d           2.829  -2.339  -0.076  0.00  0.00    -0.231 N 
ATOM     17  H10 <0> d           3.003  -1.391   0.035  0.00  0.00     0.174 HD
ATOM     18  H11 <0> d           3.456  -2.991   0.273  0.00  0.00     0.174 HD
ENDBRANCH   2  16
BRANCH   4  19
ATOM     19  N4  <0> d          -0.499  -5.197  -2.013  0.00  0.00    -0.229 N 
ATOM     20  H8  <0> d          -0.127  -6.070  -1.811  0.00  0.00     0.174 HD
ATOM     21  H9  <0> d          -1.339  -5.127  -2.492  0.00  0.00     0.174 HD
ENDBRANCH   4  19
TORSDOF 5
