REMARK  5 active torsions:
REMARK  status: ('A' for Active; 'I' for Inactive)
REMARK    1  A    between atoms: C1_1  and  C2_2 
REMARK    2  A    between atoms: C2_2  and  C3_3 
REMARK    3  A    between atoms: C3_3  and  C4_5 
REMARK    4  A    between atoms: C3_3  and  C5_6 
REMARK    5  A    between atoms: C8_9  and  O1_12 
ROOT
ATOM      1  C5  <0> d           1.399   1.629  -2.501  0.00  0.00    -0.051 C 
ATOM      2  C6  <0> d           2.139   1.122  -1.262  0.00  0.00    -0.059 C 
ATOM      3  C7  <0> d           1.423   1.615  -0.003  0.00  0.00    -0.041 C 
ATOM      4  C8  <0> d          -0.013   1.086   0.008  0.00  0.00     0.035 C 
ATOM      5  C9  <0> d          -0.753   1.593  -1.232  0.00  0.00    -0.041 C 
ATOM      6  C10 <0> d          -0.037   1.099  -2.490  0.00  0.00    -0.059 C 
ATOM      7  H10 <0> d           1.384   2.719  -2.495  0.00  0.00     0.040 H 
ATOM      8  H11 <0> d           3.161   1.499  -1.269  0.00  0.00     0.033 H 
ATOM      9  H12 <0> d           2.154   0.032  -1.268  0.00  0.00     0.033 H 
ATOM     10  H13 <0> d           1.408   2.705   0.003  0.00  0.00     0.036 H 
ATOM     11  H14 <0> d           1.950   1.254   0.880  0.00  0.00     0.036 H 
ATOM     12  H15 <0> d           0.002  -0.004   0.002  0.00  0.00     0.082 H 
ATOM     13  H16 <0> d          -1.775   1.215  -1.224  0.00  0.00     0.036 H 
ATOM     14  H17 <0> d          -0.767   2.683  -1.226  0.00  0.00     0.036 H 
ATOM     15  H18 <0> d          -0.564   1.460  -3.373  0.00  0.00     0.033 H 
ATOM     16  H19 <0> d          -0.022   0.009  -2.496  0.00  0.00     0.033 H 
ENDROOT
BRANCH   1  17
ATOM     17  C3  <0> d           2.115   1.135  -3.760  0.00  0.00    -0.054 C 
ATOM     18  H1  <0> d           2.130   0.045  -3.766  0.00  0.00     0.040 H 
BRANCH  17  19
ATOM     19  C2  <0> d           1.375   1.642  -5.000  0.00  0.00    -0.065 C 
ATOM     20  H5  <0> d           0.329   1.339  -4.947  0.00  0.00     0.033 H 
ATOM     21  H6  <0> d           1.437   2.730  -5.040  0.00  0.00     0.033 H 
BRANCH  19  22
ATOM     22  C1  <0> d           2.016   1.048  -6.255  0.00  0.00    -0.076 C 
ATOM     23  H2  <0> d           1.954  -0.040  -6.214  0.00  0.00     0.027 H 
ATOM     24  H3  <0> d           1.489   1.409  -7.138  0.00  0.00     0.027 H 
ATOM     25  H4  <0> d           3.062   1.351  -6.307  0.00  0.00     0.027 H 
ENDBRANCH  19  22
ENDBRANCH  17  19
BRANCH  17  26
ATOM     26  C4  <0> d           3.550   1.665  -3.771  0.00  0.00    -0.073 C 
ATOM     27  H7  <0> d           3.536   2.755  -3.765  0.00  0.00     0.028 H 
ATOM     28  H8  <0> d           4.077   1.304  -2.888  0.00  0.00     0.028 H 
ATOM     29  H9  <0> d           4.061   1.313  -4.668  0.00  0.00     0.028 H 
ENDBRANCH  17  26
ENDBRANCH   1  17
BRANCH   4  30
ATOM     30  O1  <0> d          -0.682   1.547   1.184  0.00  0.00    -0.396 OA
ATOM     31  H20 <0> d          -1.599   1.248   1.257  0.00  0.00     0.210 HD
ENDBRANCH   4  30
TORSDOF 5
