REMARK  0 active torsions:
REMARK  status: ('A' for Active; 'I' for Inactive)
ROOT
ATOM      1  C1  <0> d           1.436   2.045  -0.001  0.00  0.00    -0.061 C 
ATOM      2  C2  <0> d           1.857   2.198   1.472  0.00  0.00    -0.055 C 
ATOM      3  C3  <0> d           0.653   1.702   2.312  0.00  0.00     0.004 C 
ATOM      4  H1  <0> d           0.657   2.158   3.203  0.00  0.00     0.051 H 
ATOM      5  C4  <0> d          -0.565   1.985   1.388  0.00  0.00    -0.052 C 
ATOM      6  C5  <0> d          -0.019   1.530   0.011  0.00  0.00    -0.053 C 
ATOM      7  H2  <0> d          -0.599   1.932  -0.820  0.00  0.00     0.040 H 
ATOM      8  C6  <0> d           0.002  -0.004   0.002  0.00  0.00    -0.056 C 
ATOM      9  C7  <0> d           1.010  -0.518   1.033  0.00  0.00    -0.009 C 
ATOM     10  C8  <0> d           0.776   0.181   2.356  0.00  0.00     0.131 C 
ATOM     11  O1  <0> d           0.691  -0.433   3.392  0.00  0.00    -0.298 OA
ATOM     12  H3  <0> d           2.083   1.325  -0.501  0.00  0.00     0.033 H 
ATOM     13  H4  <0> d           1.488   3.009  -0.506  0.00  0.00     0.033 H 
ATOM     14  H5  <0> d           2.065   3.244   1.696  0.00  0.00     0.034 H 
ATOM     15  H6  <0> d           2.735   1.587   1.678  0.00  0.00     0.034 H 
ATOM     16  H7  <0> d          -0.811   3.046   1.380  0.00  0.00     0.034 H 
ATOM     17  H8  <0> d          -1.427   1.387   1.684  0.00  0.00     0.034 H 
ATOM     18  H9  <0> d          -0.991  -0.381   0.248  0.00  0.00     0.034 H 
ATOM     19  H10 <0> d           0.288  -0.357  -0.989  0.00  0.00     0.034 H 
ATOM     20  H11 <0> d           0.894  -1.504   1.150  0.00  0.00     0.044 H 
ATOM     21  H12 <0> d           2.023  -0.310   0.686  0.00  0.00     0.044 H 
ENDROOT
TORSDOF 0
