REMARK  4 active torsions:
REMARK  status: ('A' for Active; 'I' for Inactive)
REMARK    1  A    between atoms: C1_1  and  C2_2 
REMARK    2  A    between atoms: C5_5  and  S1_9 
REMARK    3  A    between atoms: C6_6  and  C8_8 
REMARK    4  A    between atoms: S1_9  and  C9_10 
ROOT
ATOM      1  C2  <0> d          -1.237   3.134   0.031  0.00  0.00    -0.061 A 
ATOM      2  C3  <0> d          -1.217   1.751   0.017  0.00  0.00    -0.076 A 
ATOM      3  C4  <0> d          -0.013   1.076   0.008  0.00  0.00    -0.066 A 
ATOM      4  C5  <0> d           1.181   1.788   0.000  0.00  0.00     0.006 A 
ATOM      5  C6  <0> d           1.157   3.177   0.008  0.00  0.00    -0.045 A 
ATOM      6  C7  <0> d          -0.051   3.845   0.023  0.00  0.00    -0.070 A 
ATOM      7  H4  <0> d          -2.145   1.198   0.018  0.00  0.00     0.084 H 
ATOM      8  H5  <0> d           0.002  -0.004   0.002  0.00  0.00     0.085 H 
ATOM      9  H6  <0> d          -0.070   4.925   0.029  0.00  0.00     0.085 H 
ENDROOT
BRANCH   4  10
ATOM     10  S1  <0> d           2.720   0.931  -0.020  0.00  0.00    -0.134 SA
BRANCH  10  11
ATOM     11  C9  <0> d           2.248  -0.820  -0.025  0.00  0.00    -0.030 C 
ATOM     12  H10 <0> d           1.666  -1.042   0.870  0.00  0.00     0.042 H 
ATOM     13  H11 <0> d           1.649  -1.032  -0.910  0.00  0.00     0.042 H 
ATOM     14  H12 <0> d           3.145  -1.439  -0.037  0.00  0.00     0.042 H 
ENDBRANCH  10  11
ENDBRANCH   4  10
BRANCH   5  15
ATOM     15  C8  <0> d           2.449   3.954   0.001  0.00  0.00    -0.050 C 
ATOM     16  H7  <0> d           2.751   4.147  -1.029  0.00  0.00     0.033 H 
ATOM     17  H8  <0> d           2.306   4.901   0.521  0.00  0.00     0.033 H 
ATOM     18  H9  <0> d           3.224   3.376   0.504  0.00  0.00     0.033 H 
ENDBRANCH   5  15
BRANCH   1  19
ATOM     19  C1  <0> d          -2.553   3.867   0.047  0.00  0.00    -0.051 C 
ATOM     20  H1  <0> d          -2.880   4.048  -0.977  0.00  0.00     0.033 H 
ATOM     21  H2  <0> d          -3.299   3.263   0.565  0.00  0.00     0.033 H 
ATOM     22  H3  <0> d          -2.433   4.818   0.564  0.00  0.00     0.033 H 
ENDBRANCH   1  19
TORSDOF 4
