REMARK  2 active torsions:
REMARK  status: ('A' for Active; 'I' for Inactive)
REMARK    1  A    between atoms: C1_1  and  N1_2 
REMARK    2  A    between atoms: C3_4  and  C5_7 
REMARK       I    between atoms: C5_7  and  N3_9 
ROOT
ATOM      1  N1  <0> d           0.002  -0.004   0.002  0.00  0.00    -0.353 N 
ATOM      2  C2  <0> d           0.008  -0.796  -1.096  0.00  0.00     0.013 A 
ATOM      3  C3  <0> d           0.028  -2.087  -0.653  0.00  0.00     0.141 A 
ATOM      4  N2  <0> d           0.034  -2.053   0.704  0.00  0.00    -0.237 NA
ATOM      5  C4  <0> d           0.024  -0.811   1.095  0.00  0.00     0.066 A 
ATOM      6  H4  <0> d          -0.002  -0.470  -2.125  0.00  0.00     0.115 H 
ATOM      7  H5  <0> d           0.029  -0.476   2.122  0.00  0.00     0.143 H 
ENDROOT
BRANCH   3   8
ATOM      8  C5  <0> d           0.040  -3.296  -1.494  0.00  0.00     0.269 C 
ATOM      9  O1  <0> d           0.033  -3.194  -2.706  0.00  0.00    -0.266 OA
ATOM     10  N3  <0> d           0.060  -4.515  -0.920  0.00  0.00    -0.365 N 
ATOM     11  H6  <0> d           0.066  -4.597   0.046  0.00  0.00     0.159 HD
ATOM     12  H7  <0> d           0.068  -5.312  -1.474  0.00  0.00     0.159 HD
ENDBRANCH   3   8
BRANCH   1  13
ATOM     13  C1  <0> d          -0.018   1.461   0.010  0.00  0.00    -0.014 C 
ATOM     14  H1  <0> d           1.005   1.838   0.002  0.00  0.00     0.057 H 
ATOM     15  H2  <0> d          -0.545   1.822  -0.873  0.00  0.00     0.057 H 
ATOM     16  H3  <0> d          -0.528   1.812   0.907  0.00  0.00     0.057 H 
ENDBRANCH   1  13
TORSDOF 2
