REMARK  2 active torsions:
REMARK  status: ('A' for Active; 'I' for Inactive)
REMARK    1  A    between atoms: C1_1  and  C2_2 
REMARK    2  A    between atoms: C3_3  and  N3_7 
ROOT
ATOM      1  C2  <0> d           0.002  -0.004   0.002  0.00  0.00     0.107 A 
ATOM      2  C3  <0> d           0.008  -0.851  -1.188  0.00  0.00     0.177 A 
ATOM      3  N1  <0> d           0.027  -2.099  -0.805  0.00  0.00    -0.085 NA
ATOM      4  O1  <0> d           0.034  -2.115   0.612  0.00  0.00    -0.105 OA
ATOM      5  N2  <0> d           0.023  -0.768   1.052  0.00  0.00    -0.106 NA
ENDROOT
BRANCH   1   6
ATOM      6  C1  <0> d          -0.018   1.503   0.010  0.00  0.00    -0.030 C 
ATOM      7  H1  <0> d           1.004   1.880   0.003  0.00  0.00     0.035 H 
ATOM      8  H2  <0> d          -0.545   1.864  -0.873  0.00  0.00     0.035 H 
ATOM      9  H3  <0> d          -0.529   1.854   0.907  0.00  0.00     0.035 H 
ENDBRANCH   1   6
BRANCH   2  10
ATOM     10  N3  <0> d          -0.005  -0.404  -2.505  0.00  0.00    -0.380 N 
ATOM     11  H4  <0> d          -0.019   0.548  -2.695  0.00  0.00     0.157 HD
ATOM     12  H5  <0> d           0.001  -1.043  -3.235  0.00  0.00     0.157 HD
ENDBRANCH   2  10
TORSDOF 2
