REMARK  1 active torsions:
REMARK  status: ('A' for Active; 'I' for Inactive)
REMARK    1  A    between atoms: C1_1  and  C2_2 
ROOT
ATOM      1  C2  <0> d           2.065   0.781  -0.013  0.00  0.00     0.101 A 
ATOM      2  N1  <0> d           1.333  -0.365  -0.013  0.00  0.00    -0.343 N 
ATOM      3  H1  <0> d           1.839  -1.342  -0.023  0.00  0.00     0.167 HD
ATOM      4  C3  <0> d           0.002  -0.004   0.002  0.00  0.00     0.062 A 
ATOM      5  C4  <0> d          -1.190  -0.719   0.010  0.00  0.00    -0.053 A 
ATOM      6  C5  <0> d          -2.385  -0.059   0.025  0.00  0.00    -0.061 A 
ATOM      7  C6  <0> d          -2.423   1.342   0.032  0.00  0.00     0.047 A 
ATOM      8  C7  <0> d          -1.239   2.073   0.030  0.00  0.00    -0.033 A 
ATOM      9  C8  <0> d          -0.017   1.402   0.010  0.00  0.00     0.087 A 
ATOM     10  N2  <0> d           1.277   1.816  -0.000  0.00  0.00    -0.234 NA
ATOM     11  C9  <0> d          -3.683   2.022   0.047  0.00  0.00     0.099 C 
ATOM     12  N3  <0> d          -4.682   2.562   0.059  0.00  0.00    -0.191 NA
ATOM     13  H5  <0> d          -1.171  -1.799   0.004  0.00  0.00     0.087 H 
ATOM     14  H6  <0> d          -3.308  -0.621   0.031  0.00  0.00     0.086 H 
ATOM     15  H7  <0> d          -1.267   3.153   0.037  0.00  0.00     0.089 H 
ENDROOT
BRANCH   1  16
ATOM     16  C1  <0> d           3.571   0.843  -0.029  0.00  0.00    -0.021 C 
ATOM     17  H2  <0> d           3.980  -0.178  -0.038  0.00  0.00     0.037 H 
ATOM     18  H3  <0> d           3.925   1.372   0.869  0.00  0.00     0.037 H 
ATOM     19  H4  <0> d           3.907   1.381  -0.927  0.00  0.00     0.037 H 
ENDBRANCH   1  16
TORSDOF 1
