REMARK  2 active torsions:
REMARK  status: ('A' for Active; 'I' for Inactive)
REMARK    1  A    between atoms: C4_6  and  C5_8 
REMARK    2  A    between atoms: C5_8  and  C6_9 
ROOT
ATOM      1  C1  <0> d           3.794   1.768   0.039  0.00  0.00    -0.038 C 
ATOM      2  C2  <0> d           4.142   1.902  -1.462  0.00  0.00     0.011 C 
ATOM      3  C3  <0> d           3.417   0.747  -2.116  0.00  0.00     0.217 C 
ATOM      4  O1  <0> d           3.645   0.325  -3.230  0.00  0.00    -0.274 OA
ATOM      5  N1  <0> d           2.483   0.256  -1.283  0.00  0.00    -0.356 N 
ATOM      6  C4  <0> d           2.457   0.997  -0.016  0.00  0.00     0.021 C 
ATOM      7  H1  <0> d           2.384   0.306   0.824  0.00  0.00     0.073 H 
ATOM      8  H2  <0> d           3.661   2.748   0.497  0.00  0.00     0.036 H 
ATOM      9  H3  <0> d           4.555   1.192   0.566  0.00  0.00     0.036 H 
ATOM     10  H4  <0> d           5.218   1.812  -1.614  0.00  0.00     0.047 H 
ATOM     11  H5  <0> d           3.780   2.852  -1.856  0.00  0.00     0.047 H 
ATOM     12  H6  <0> d           1.902  -0.492  -1.492  0.00  0.00     0.162 HD
ENDROOT
BRANCH   6  13
ATOM     13  C5  <0> d           1.280   1.975   0.000  0.00  0.00     0.034 C 
ATOM     14  H7  <0> d           1.321   2.607  -0.887  0.00  0.00     0.052 H 
ATOM     15  H8  <0> d           1.338   2.598   0.893  0.00  0.00     0.052 H 
BRANCH  13  16
ATOM     16  C6  <0> d          -0.014   1.204   0.009  0.00  0.00     0.174 C 
ATOM     17  O2  <0> d           0.002  -0.004   0.002  0.00  0.00    -0.648 OA
ATOM     18  O3  <0> d          -1.186   1.859   0.018  0.00  0.00    -0.648 OA
ENDBRANCH  13  16
ENDBRANCH   6  13
TORSDOF 2
