REMARK  3 active torsions:
REMARK  status: ('A' for Active; 'I' for Inactive)
REMARK    1  A    between atoms: C1_1  and  C2_2 
REMARK    2  A    between atoms: C3_3  and  C6_8 
REMARK    3  A    between atoms: C4_4  and  C5_7 
ROOT
ATOM      1  C2  <0> d          -0.718   1.572   1.248  0.00  0.00     0.077 A 
ATOM      2  C3  <0> d          -0.117   1.870   2.558  0.00  0.00     0.098 A 
ATOM      3  C4  <0> d          -1.199   2.268   3.306  0.00  0.00     0.094 A 
ATOM      4  O1  <0> d          -2.260   2.195   2.501  0.00  0.00    -0.217 OA
ATOM      5  N1  <0> d          -1.986   1.822   1.387  0.00  0.00    -0.132 NA
ENDROOT
BRANCH   1   6
ATOM      6  C1  <0> d          -0.013   1.086   0.008  0.00  0.00    -0.032 C 
ATOM      7  H1  <0> d           0.002  -0.004   0.002  0.00  0.00     0.035 H 
ATOM      8  H2  <0> d           1.010   1.463   0.000  0.00  0.00     0.035 H 
ATOM      9  H3  <0> d          -0.540   1.447  -0.875  0.00  0.00     0.035 H 
ENDBRANCH   1   6
BRANCH   2  10
ATOM     10  C6  <0> d           1.294   1.768   2.965  0.00  0.00     0.214 C 
ATOM     11  O2  <0> d           2.035   2.723   2.833  0.00  0.00    -0.644 OA
ATOM     12  O3  <0> d           1.764   0.617   3.484  0.00  0.00    -0.644 OA
ENDBRANCH   2  10
BRANCH   3  13
ATOM     13  C5  <0> d          -1.188   2.701   4.750  0.00  0.00    -0.028 C 
ATOM     14  H4  <0> d          -1.030   3.779   4.805  0.00  0.00     0.036 H 
ATOM     15  H5  <0> d          -2.143   2.450   5.212  0.00  0.00     0.036 H 
ATOM     16  H6  <0> d          -0.383   2.189   5.277  0.00  0.00     0.036 H 
ENDBRANCH   3  13
TORSDOF 3
