REMARK  4 active torsions:
REMARK  status: ('A' for Active; 'I' for Inactive)
REMARK    1  A    between atoms: C1_1  and  C2_2 
REMARK    2  A    between atoms: C8_9  and  C9_11 
REMARK    3  A    between atoms: C9_11  and  C10_12 
REMARK    4  A    between atoms: C10_12  and  O1_13 
ROOT
ATOM      1  C2  <0> d          -0.398   1.696   1.394  0.00  0.00    -0.051 C 
ATOM      2  H1  <0> d          -1.378   1.220   1.358  0.00  0.00     0.040 H 
ATOM      3  C3  <0> d           0.381   1.356   0.122  0.00  0.00    -0.061 C 
ATOM      4  C4  <0> d          -0.425   1.780  -1.107  0.00  0.00    -0.061 C 
ATOM      5  C5  <0> d          -0.599   3.303  -1.101  0.00  0.00    -0.045 C 
ATOM      6  C6  <0> d          -1.214   3.711   0.219  0.00  0.00    -0.085 C 
ATOM      7  C7  <0> d          -2.278   4.475   0.257  0.00  0.00    -0.119 C 
ATOM      8  C8  <0> d          -0.570   3.216   1.495  0.00  0.00    -0.028 C 
ATOM      9  H2  <0> d           0.405   3.688   1.620  0.00  0.00     0.047 H 
ATOM     10  H6  <0> d           0.561   0.282   0.084  0.00  0.00     0.033 H 
ATOM     11  H7  <0> d           1.334   1.884   0.130  0.00  0.00     0.033 H 
ATOM     12  H8  <0> d           0.104   1.478  -2.011  0.00  0.00     0.033 H 
ATOM     13  H9  <0> d          -1.405   1.302  -1.082  0.00  0.00     0.033 H 
ATOM     14  H10 <0> d           0.373   3.783  -1.216  0.00  0.00     0.039 H 
ATOM     15  H11 <0> d          -1.256   3.599  -1.919  0.00  0.00     0.039 H 
ATOM     16  H12 <0> d          -2.683   4.882  -0.658  0.00  0.00     0.067 H 
ATOM     17  H13 <0> d          -2.749   4.699   1.202  0.00  0.00     0.067 H 
ENDROOT
BRANCH   8  18
ATOM     18  C9  <0> d          -1.466   3.554   2.688  0.00  0.00    -0.038 C 
ATOM     19  H14 <0> d          -0.951   3.295   3.614  0.00  0.00     0.037 H 
ATOM     20  H15 <0> d          -1.690   4.620   2.683  0.00  0.00     0.037 H 
BRANCH  18  21
ATOM     21  C10 <0> d          -2.768   2.757   2.590  0.00  0.00     0.017 C 
ATOM     22  H16 <0> d          -3.234   2.941   1.621  0.00  0.00     0.074 H 
ATOM     23  H17 <0> d          -2.553   1.694   2.692  0.00  0.00     0.074 H 
BRANCH  21  24
ATOM     24  O1  <0> d          -3.657   3.166   3.631  0.00  0.00    -0.401 OA
ATOM     25  H18 <0> d          -4.505   2.702   3.630  0.00  0.00     0.209 HD
ENDBRANCH  21  24
ENDBRANCH  18  21
ENDBRANCH   8  18
BRANCH   1  26
ATOM     26  C1  <0> d           0.371   1.189   2.615  0.00  0.00    -0.072 C 
ATOM     27  H3  <0> d           1.351   1.665   2.651  0.00  0.00     0.028 H 
ATOM     28  H4  <0> d          -0.184   1.431   3.521  0.00  0.00     0.028 H 
ATOM     29  H5  <0> d           0.495   0.108   2.543  0.00  0.00     0.028 H 
ENDBRANCH   1  26
TORSDOF 4
