REMARK  4 active torsions:
REMARK  status: ('A' for Active; 'I' for Inactive)
REMARK    1  A    between atoms: C1_1  and  N1_2 
REMARK    2  A    between atoms: N1_2  and  C2_3 
REMARK    3  A    between atoms: N1_2  and  C3_4 
REMARK    4  A    between atoms: C8_9  and  O1_10 
ROOT
ATOM      1  C3  <0> d           0.002  -0.004   0.002  0.00  0.00     0.043 A 
ATOM      2  C4  <0> d           1.215  -0.677  -0.013  0.00  0.00    -0.060 A 
ATOM      3  C5  <0> d           2.400   0.034  -0.021  0.00  0.00    -0.081 A 
ATOM      4  C6  <0> d           2.380   1.416  -0.013  0.00  0.00    -0.080 A 
ATOM      5  C7  <0> d           1.175   2.094   0.002  0.00  0.00    -0.049 A 
ATOM      6  C8  <0> d          -0.017   1.389   0.010  0.00  0.00     0.086 A 
ATOM      7  H7  <0> d           1.233  -1.757  -0.019  0.00  0.00     0.086 H 
ATOM      8  H8  <0> d           3.344  -0.491  -0.033  0.00  0.00     0.083 H 
ATOM      9  H9  <0> d           3.308   1.968  -0.020  0.00  0.00     0.083 H 
ATOM     10  H10 <0> d           1.163   3.174   0.008  0.00  0.00     0.087 H 
ENDROOT
BRANCH   1  11
ATOM     11  N1  <0> d          -1.199  -0.722   0.009  0.00  0.00    -0.289 NA
BRANCH  11  12
ATOM     12  C1  <0> d          -1.310  -1.575  -1.182  0.00  0.00    -0.029 C 
ATOM     13  H1  <0> d          -0.481  -2.281  -1.202  0.00  0.00     0.048 H 
ATOM     14  H2  <0> d          -2.253  -2.121  -1.151  0.00  0.00     0.048 H 
ATOM     15  H3  <0> d          -1.280  -0.953  -2.077  0.00  0.00     0.048 H 
ENDBRANCH  11  12
BRANCH  11  16
ATOM     16  C2  <0> d          -1.331  -1.516   1.238  0.00  0.00    -0.029 C 
ATOM     17  H4  <0> d          -1.315  -0.852   2.103  0.00  0.00     0.048 H 
ATOM     18  H5  <0> d          -2.273  -2.064   1.218  0.00  0.00     0.048 H 
ATOM     19  H6  <0> d          -0.502  -2.220   1.306  0.00  0.00     0.048 H 
ENDBRANCH  11  16
ENDBRANCH   1  11
BRANCH   6  20
ATOM     20  O1  <0> d          -1.203   2.055   0.019  0.00  0.00    -0.359 OA
ATOM     21  H11 <0> d          -1.542   2.242   0.905  0.00  0.00     0.217 HD
ENDBRANCH   6  20
TORSDOF 4
