REMARK  3 active torsions:
REMARK  status: ('A' for Active; 'I' for Inactive)
REMARK    1  A    between atoms: C1_1  and  O1_2 
REMARK    2  A    between atoms: O1_2  and  C2_3 
REMARK    3  A    between atoms: C2_3  and  C3_5 
ROOT
ATOM      1  C3  <0> d           1.216   1.944   0.001  0.00  0.00    -0.009 C 
ATOM      2  C4  <0> d           2.224   2.545  -0.005  0.00  0.00    -0.144 C 
ATOM      3  H4  <0> d           3.127   3.082  -0.011  0.00  0.00     0.167 H 
ENDROOT
BRANCH   1   4
ATOM      4  C2  <0> d          -0.014   1.211   0.009  0.00  0.00     0.337 C 
ATOM      5  O2  <0> d           0.002  -0.004   0.002  0.00  0.00    -0.249 OA
BRANCH   4   6
ATOM      6  O1  <0> d          -1.191   1.869   0.018  0.00  0.00    -0.316 OA
BRANCH   6   7
ATOM      7  C1  <0> d          -2.398   1.062   0.019  0.00  0.00     0.014 C 
ATOM      8  H1  <0> d          -3.271   1.714   0.027  0.00  0.00     0.067 H 
ATOM      9  H2  <0> d          -2.418   0.438  -0.874  0.00  0.00     0.067 H 
ATOM     10  H3  <0> d          -2.410   0.428   0.906  0.00  0.00     0.067 H 
ENDBRANCH   6   7
ENDBRANCH   4   6
ENDBRANCH   1   4
TORSDOF 3
