REMARK  5 active torsions:
REMARK  status: ('A' for Active; 'I' for Inactive)
REMARK    1  A    between atoms: C1_1  and  C2_2 
REMARK    2  A    between atoms: C4_4  and  C10_11 
REMARK    3  A    between atoms: C5_5  and  C9_9 
REMARK    4  A    between atoms: C6_6  and  C8_8 
REMARK    5  A    between atoms: C9_9  and  O1_10 
ROOT
ATOM      1  C2  <0> d           1.175   1.783   0.000  0.00  0.00    -0.061 A 
ATOM      2  C3  <0> d          -0.013   1.076   0.008  0.00  0.00    -0.071 A 
ATOM      3  C4  <0> d          -1.219   1.751   0.017  0.00  0.00    -0.053 A 
ATOM      4  C5  <0> d          -1.238   3.133   0.029  0.00  0.00    -0.023 A 
ATOM      5  C6  <0> d          -0.050   3.840   0.022  0.00  0.00    -0.053 A 
ATOM      6  C7  <0> d           1.156   3.165   0.008  0.00  0.00    -0.071 A 
ATOM      7  H4  <0> d           0.002  -0.004   0.002  0.00  0.00     0.085 H 
ATOM      8  H5  <0> d           2.084   3.718   0.003  0.00  0.00     0.085 H 
ENDROOT
BRANCH   4   9
ATOM      9  C9  <0> d          -2.553   3.869   0.044  0.00  0.00     0.041 C 
ATOM     10  H9  <0> d          -3.300   3.267   0.561  0.00  0.00     0.081 H 
ATOM     11  H10 <0> d          -2.431   4.820   0.562  0.00  0.00     0.081 H 
BRANCH   9  12
ATOM     12  O1  <0> d          -2.980   4.108  -1.298  0.00  0.00    -0.396 OA
ATOM     13  H11 <0> d          -3.822   4.579  -1.365  0.00  0.00     0.209 HD
ENDBRANCH   9  12
ENDBRANCH   4   9
BRANCH   3  14
ATOM     14  C10 <0> d          -2.514   0.980   0.019  0.00  0.00    -0.051 C 
ATOM     15  H12 <0> d          -2.821   0.788   1.047  0.00  0.00     0.033 H 
ATOM     16  H13 <0> d          -3.284   1.561  -0.488  0.00  0.00     0.033 H 
ATOM     17  H14 <0> d          -2.373   0.032  -0.500  0.00  0.00     0.033 H 
ENDBRANCH   3  14
BRANCH   5  18
ATOM     18  C8  <0> d          -0.070   5.347   0.030  0.00  0.00    -0.051 C 
ATOM     19  H6  <0> d          -0.085   5.716  -0.996  0.00  0.00     0.033 H 
ATOM     20  H7  <0> d          -0.961   5.696   0.554  0.00  0.00     0.033 H 
ATOM     21  H8  <0> d           0.819   5.720   0.538  0.00  0.00     0.033 H 
ENDBRANCH   5  18
BRANCH   1  22
ATOM     22  C1  <0> d           2.490   1.048  -0.016  0.00  0.00    -0.051 C 
ATOM     23  H1  <0> d           2.798   0.875  -1.047  0.00  0.00     0.033 H 
ATOM     24  H2  <0> d           3.247   1.644   0.494  0.00  0.00     0.033 H 
ATOM     25  H3  <0> d           2.378   0.091   0.494  0.00  0.00     0.033 H 
ENDBRANCH   1  22
TORSDOF 5
