REMARK  4 active torsions:
REMARK  status: ('A' for Active; 'I' for Inactive)
REMARK    1  A    between atoms: C1_1  and  C2_2 
REMARK    2  A    between atoms: C3_3  and  C8_10 
REMARK    3  A    between atoms: C4_5  and  C7_9 
REMARK    4  A    between atoms: C5_6  and  C6_8 
ROOT
ATOM      1  C2  <0> d           0.002  -0.004   0.002  0.00  0.00     0.055 A 
ATOM      2  C3  <0> d           0.006  -0.689  -1.200  0.00  0.00     0.055 A 
ATOM      3  N1  <0> d           0.024  -2.011  -1.207  0.00  0.00    -0.255 NA
ATOM      4  C4  <0> d           0.038  -2.677  -0.067  0.00  0.00     0.055 A 
ATOM      5  C5  <0> d           0.035  -1.992   1.135  0.00  0.00     0.055 A 
ATOM      6  N2  <0> d           0.022  -0.671   1.143  0.00  0.00    -0.255 NA
ENDROOT
BRANCH   1   7
ATOM      7  C1  <0> d          -0.018   1.503   0.010  0.00  0.00    -0.034 C 
ATOM      8  H1  <0> d           1.004   1.880   0.003  0.00  0.00     0.035 H 
ATOM      9  H2  <0> d          -0.545   1.864  -0.873  0.00  0.00     0.035 H 
ATOM     10  H3  <0> d          -0.529   1.854   0.907  0.00  0.00     0.035 H 
ENDBRANCH   1   7
BRANCH   2  11
ATOM     11  C8  <0> d          -0.011   0.071  -2.501  0.00  0.00    -0.034 C 
ATOM     12  H10 <0> d           1.012   0.269  -2.820  0.00  0.00     0.035 H 
ATOM     13  H11 <0> d          -0.521  -0.521  -3.261  0.00  0.00     0.035 H 
ATOM     14  H12 <0> d          -0.538   1.016  -2.363  0.00  0.00     0.035 H 
ENDBRANCH   2  11
BRANCH   5  15
ATOM     15  C6  <0> d           0.052  -2.753   2.436  0.00  0.00    -0.034 C 
ATOM     16  H4  <0> d           1.083  -2.922   2.745  0.00  0.00     0.035 H 
ATOM     17  H5  <0> d          -0.466  -2.175   3.202  0.00  0.00     0.035 H 
ATOM     18  H6  <0> d          -0.450  -3.711   2.303  0.00  0.00     0.035 H 
ENDBRANCH   5  15
BRANCH   4  19
ATOM     19  C7  <0> d           0.059  -4.184  -0.075  0.00  0.00    -0.034 C 
ATOM     20  H7  <0> d           1.091  -4.534  -0.082  0.00  0.00     0.035 H 
ATOM     21  H8  <0> d          -0.446  -4.559   0.816  0.00  0.00     0.035 H 
ATOM     22  H9  <0> d          -0.455  -4.550  -0.964  0.00  0.00     0.035 H 
ENDBRANCH   4  19
TORSDOF 4
