REMARK  5 active torsions:
REMARK  status: ('A' for Active; 'I' for Inactive)
REMARK    1  A    between atoms: C1_1  and  N1_2 
REMARK    2  A    between atoms: C3_4  and  N3_11 
REMARK    3  A    between atoms: C4_6  and  C5_7 
REMARK    4  A    between atoms: C5_7  and  O2_9 
REMARK    5  A    between atoms: O2_9  and  C6_10 
ROOT
ATOM      1  N1  <0> d           0.002  -0.004   0.002  0.00  0.00    -0.337 N 
ATOM      2  C2  <0> d           0.009  -0.807  -1.098  0.00  0.00     0.025 A 
ATOM      3  C3  <0> d           0.028  -2.094  -0.651  0.00  0.00     0.139 A 
ATOM      4  N2  <0> d           0.033  -2.073   0.682  0.00  0.00    -0.207 NA
ATOM      5  C4  <0> d           0.024  -0.822   1.097  0.00  0.00     0.208 A 
ATOM      6  H4  <0> d          -0.000  -0.485  -2.128  0.00  0.00     0.117 H 
ENDROOT
BRANCH   5   7
ATOM      7  C5  <0> d           0.031  -0.380   2.500  0.00  0.00     0.329 C 
ATOM      8  O1  <0> d           0.017   0.806   2.764  0.00  0.00    -0.256 OA
BRANCH   7   9
ATOM      9  O2  <0> d           0.053  -1.292   3.493  0.00  0.00    -0.320 OA
BRANCH   9  10
ATOM     10  C6  <0> d           0.059  -0.792   4.832  0.00  0.00     0.013 C 
ATOM     11  H5  <0> d           0.942  -0.172   4.984  0.00  0.00     0.067 H 
ATOM     12  H6  <0> d          -0.838  -0.196   5.001  0.00  0.00     0.067 H 
ATOM     13  H7  <0> d           0.076  -1.628   5.532  0.00  0.00     0.067 H 
ENDBRANCH   9  10
ENDBRANCH   7   9
ENDBRANCH   5   7
BRANCH   1  14
ATOM     14  C1  <0> d          -0.018   1.461   0.010  0.00  0.00    -0.013 C 
ATOM     15  H1  <0> d           1.005   1.838   0.002  0.00  0.00     0.057 H 
ATOM     16  H2  <0> d          -0.545   1.822  -0.873  0.00  0.00     0.057 H 
ATOM     17  H3  <0> d          -0.528   1.812   0.907  0.00  0.00     0.057 H 
ENDBRANCH   1  14
BRANCH   3  18
ATOM     18  N3  <0> d           0.040  -3.243  -1.454  0.00  0.00    -0.383 N 
ATOM     19  H8  <0> d           0.035  -3.159  -2.421  0.00  0.00     0.157 HD
ATOM     20  H9  <0> d           0.054  -4.122  -1.044  0.00  0.00     0.157 HD
ENDBRANCH   3  18
TORSDOF 5
