REMARK  4 active torsions:
REMARK  status: ('A' for Active; 'I' for Inactive)
REMARK    1  A    between atoms: C1_1  and  C2_2 
REMARK    2  A    between atoms: C2_2  and  O1_3 
REMARK    3  A    between atoms: O1_3  and  C3_4 
REMARK    4  A    between atoms: C7_8  and  N2_10 
ROOT
ATOM      1  C3  <0> d          -3.534   1.568   0.027  0.00  0.00     0.166 A 
ATOM      2  C4  <0> d          -3.616   2.953   0.035  0.00  0.00    -0.032 A 
ATOM      3  C5  <0> d          -2.449   3.701   0.034  0.00  0.00    -0.075 A 
ATOM      4  C6  <0> d          -1.235   3.034   0.030  0.00  0.00    -0.039 A 
ATOM      5  C7  <0> d          -1.224   1.644   0.017  0.00  0.00     0.123 A 
ATOM      6  N1  <0> d          -2.358   0.960   0.018  0.00  0.00    -0.208 NA
ATOM      7  H6  <0> d          -4.578   3.443   0.043  0.00  0.00     0.090 H 
ATOM      8  H7  <0> d          -2.486   4.780   0.040  0.00  0.00     0.083 H 
ATOM      9  H8  <0> d          -0.308   3.588   0.033  0.00  0.00     0.089 H 
ENDROOT
BRANCH   1  10
ATOM     10  O1  <0> d          -4.671   0.828   0.029  0.00  0.00    -0.335 OA
BRANCH  10  11
ATOM     11  C2  <0> d          -4.522  -0.593   0.021  0.00  0.00     0.024 C 
ATOM     12  H4  <0> d          -3.963  -0.908   0.915  0.00  0.00     0.074 H 
ATOM     13  H5  <0> d          -3.972  -0.899  -0.881  0.00  0.00     0.074 H 
BRANCH  11  14
ATOM     14  C1  <0> d          -5.903  -1.251   0.025  0.00  0.00    -0.056 C 
ATOM     15  H1  <0> d          -5.787  -2.345   0.018  0.00  0.00     0.030 H 
ATOM     16  H2  <0> d          -6.461  -0.936  -0.869  0.00  0.00     0.030 H 
ATOM     17  H3  <0> d          -6.452  -0.946   0.927  0.00  0.00     0.030 H 
ENDBRANCH  11  14
ENDBRANCH  10  11
ENDBRANCH   1  10
BRANCH   5  18
ATOM     18  N2  <0> d          -0.011   0.966   0.007  0.00  0.00    -0.384 N 
ATOM     19  H9  <0> d           0.004  -0.134  -0.003  0.00  0.00     0.157 HD
ATOM     20  H10 <0> d           0.934   1.529   0.011  0.00  0.00     0.157 HD
ENDBRANCH   5  18
TORSDOF 4
