REMARK  4 active torsions:
REMARK  status: ('A' for Active; 'I' for Inactive)
REMARK    1  A    between atoms: C1_1  and  C2_2 
REMARK    2  A    between atoms: C2_2  and  O1_3 
REMARK    3  A    between atoms: O1_3  and  C3_4 
REMARK    4  A    between atoms: C3_4  and  C4_6 
ROOT
ATOM      1  C4  <0> d          -2.234   1.322   1.096  0.00  0.00     0.127 C 
ATOM      2  H1  <0> d          -2.407   0.262   0.913  0.00  0.00     0.100 H 
ATOM      3  C5  <0> d          -0.730   1.580   1.269  0.00  0.00    -0.029 C 
ATOM      4  C6  <0> d          -0.013   1.086   0.008  0.00  0.00    -0.045 C 
ATOM      5  C7  <0> d          -0.741   1.584  -1.211  0.00  0.00    -0.082 C 
ATOM      6  C8  <0> d          -1.969   2.027  -1.163  0.00  0.00     0.010 C 
ATOM      7  O3  <0> d          -2.693   2.086  -0.023  0.00  0.00    -0.348 OA
ATOM      8  H7  <0> d          -0.361   1.037   2.139  0.00  0.00     0.037 H 
ATOM      9  H8  <0> d          -0.553   2.648   1.398  0.00  0.00     0.037 H 
ATOM     10  H9  <0> d           0.002  -0.004   0.002  0.00  0.00     0.039 H 
ATOM     11  H10 <0> d           1.010   1.463   0.000  0.00  0.00     0.039 H 
ATOM     12  H11 <0> d          -0.228   1.576  -2.161  0.00  0.00     0.079 H 
ATOM     13  H12 <0> d          -2.430   2.362  -2.080  0.00  0.00     0.122 H 
ENDROOT
BRANCH   1  14
ATOM     14  C3  <0> d          -2.969   1.750   2.340  0.00  0.00     0.288 C 
ATOM     15  O2  <0> d          -3.737   2.682   2.297  0.00  0.00    -0.262 OA
BRANCH  14  16
ATOM     16  O1  <0> d          -2.770   1.097   3.495  0.00  0.00    -0.320 OA
BRANCH  16  17
ATOM     17  C2  <0> d          -3.512   1.563   4.653  0.00  0.00     0.026 C 
ATOM     18  H5  <0> d          -3.252   2.603   4.856  0.00  0.00     0.074 H 
ATOM     19  H6  <0> d          -4.581   1.488   4.454  0.00  0.00     0.074 H 
BRANCH  17  20
ATOM     20  C1  <0> d          -3.157   0.703   5.867  0.00  0.00    -0.056 C 
ATOM     21  H2  <0> d          -3.416  -0.336   5.664  0.00  0.00     0.030 H 
ATOM     22  H3  <0> d          -2.088   0.778   6.066  0.00  0.00     0.030 H 
ATOM     23  H4  <0> d          -3.714   1.053   6.736  0.00  0.00     0.030 H 
ENDBRANCH  17  20
ENDBRANCH  16  17
ENDBRANCH  14  16
ENDBRANCH   1  14
TORSDOF 4
