REMARK  5 active torsions:
REMARK  status: ('A' for Active; 'I' for Inactive)
REMARK    1  A    between atoms: C1_1  and  C2_2 
REMARK    2  A    between atoms: C3_3  and  C6_9 
REMARK    3  A    between atoms: C4_4  and  C5_8 
REMARK    4  A    between atoms: C6_9  and  C7_10 
REMARK    5  A    between atoms: C6_9  and  C8_11 
ROOT
ATOM      1  C2  <0> d           0.015  -0.007  -0.211  0.00  0.00     0.032 A 
ATOM      2  C3  <0> d          -0.021   1.325   0.029  0.00  0.00    -0.005 A 
ATOM      3  C4  <0> d           1.295   1.764   0.209  0.00  0.00     0.059 A 
ATOM      4  N1  <0> d           2.091   0.734   0.083  0.00  0.00    -0.179 NA
ATOM      5  N2  <0> d           1.306  -0.396  -0.182  0.00  0.00    -0.282 N 
ATOM      6  H1  <0> d           1.644  -1.326  -0.326  0.00  0.00     0.189 HD
ENDROOT
BRANCH   2   7
ATOM      7  C6  <0> d          -1.258   2.183   0.084  0.00  0.00    -0.032 C 
ATOM      8  H8  <0> d          -2.143   1.551   0.010  0.00  0.00     0.046 H 
BRANCH   7   9
ATOM      9  C7  <0> d          -1.288   2.950   1.408  0.00  0.00    -0.069 C 
ATOM     10  H9  <0> d          -0.403   3.582   1.482  0.00  0.00     0.028 H 
ATOM     11  H10 <0> d          -2.183   3.571   1.448  0.00  0.00     0.028 H 
ATOM     12  H11 <0> d          -1.300   2.242   2.237  0.00  0.00     0.028 H 
ENDBRANCH   7   9
BRANCH   7  13
ATOM     13  C8  <0> d          -1.242   3.177  -1.080  0.00  0.00    -0.069 C 
ATOM     14  H12 <0> d          -0.318   3.754  -1.052  0.00  0.00     0.028 H 
ATOM     15  H13 <0> d          -1.302   2.633  -2.022  0.00  0.00     0.028 H 
ATOM     16  H14 <0> d          -2.094   3.851  -0.994  0.00  0.00     0.028 H 
ENDBRANCH   7  13
ENDBRANCH   2   7
BRANCH   1  17
ATOM     17  C1  <0> d          -1.176  -0.896  -0.463  0.00  0.00    -0.035 C 
ATOM     18  H2  <0> d          -1.386  -0.927  -1.533  0.00  0.00     0.035 H 
ATOM     19  H3  <0> d          -0.960  -1.902  -0.106  0.00  0.00     0.035 H 
ATOM     20  H4  <0> d          -2.043  -0.501   0.066  0.00  0.00     0.035 H 
ENDBRANCH   1  17
BRANCH   3  21
ATOM     21  C5  <0> d           1.721   3.180   0.500  0.00  0.00    -0.033 C 
ATOM     22  H5  <0> d           1.807   3.320   1.577  0.00  0.00     0.035 H 
ATOM     23  H6  <0> d           2.686   3.372   0.031  0.00  0.00     0.035 H 
ATOM     24  H7  <0> d           0.979   3.872   0.101  0.00  0.00     0.035 H 
ENDBRANCH   3  21
TORSDOF 5
