REMARK  2 active torsions:
REMARK  status: ('A' for Active; 'I' for Inactive)
REMARK    1  A    between atoms: C1_1  and  O1_2 
REMARK    2  A    between atoms: O1_2  and  C2_3 
ROOT
ATOM      1  C2  <0> d           3.349   2.893  -0.014  0.00  0.00     0.164 A 
ATOM      2  C3  <0> d           2.534   1.776  -0.013  0.00  0.00    -0.020 A 
ATOM      3  C4  <0> d           1.149   1.960   0.002  0.00  0.00    -0.003 A 
ATOM      4  C5  <0> d          -0.013   1.076   0.008  0.00  0.00    -0.056 A 
ATOM      5  C6  <0> d          -1.104   1.861   0.017  0.00  0.00    -0.022 A 
ATOM      6  N1  <0> d          -0.734   3.176   0.026  0.00  0.00    -0.364 N 
ATOM      7  H1  <0> d          -1.502   3.964   0.042  0.00  0.00     0.165 HD
ATOM      8  C7  <0> d           0.640   3.276   0.014  0.00  0.00     0.060 A 
ATOM      9  C8  <0> d           1.535   4.336   0.011  0.00  0.00     0.031 A 
ATOM     10  N2  <0> d           2.834   4.115  -0.003  0.00  0.00    -0.235 NA
ATOM     11  H5  <0> d           2.959   0.783  -0.022  0.00  0.00     0.091 H 
ATOM     12  H6  <0> d           0.002  -0.004   0.002  0.00  0.00     0.086 H 
ATOM     13  H7  <0> d          -2.123   1.504   0.019  0.00  0.00     0.111 H 
ATOM     14  H8  <0> d           1.164   5.350   0.021  0.00  0.00     0.118 H 
ENDROOT
BRANCH   1  15
ATOM     15  O1  <0> d           4.698   2.736  -0.028  0.00  0.00    -0.339 OA
BRANCH  15  16
ATOM     16  C1  <0> d           5.490   3.926  -0.029  0.00  0.00     0.012 C 
ATOM     17  H2  <0> d           6.556   3.657  -0.041  0.00  0.00     0.067 H 
ATOM     18  H3  <0> d           5.270   4.513   0.874  0.00  0.00     0.067 H 
ATOM     19  H4  <0> d           5.253   4.523  -0.922  0.00  0.00     0.067 H 
ENDBRANCH  15  16
ENDBRANCH   1  15
TORSDOF 2
