REMARK  3 active torsions:
REMARK  status: ('A' for Active; 'I' for Inactive)
REMARK    1  A    between atoms: C1_1  and  C2_2 
REMARK    2  A    between atoms: C5_5  and  O2_11 
REMARK    3  A    between atoms: C6_6  and  C8_8 
REMARK       I    between atoms: C8_8  and  N1_10 
ROOT
ATOM      1  C2  <0> d           0.038  -2.781  -0.011  0.00  0.00    -0.061 A 
ATOM      2  C3  <0> d           0.041  -2.087   1.188  0.00  0.00    -0.075 A 
ATOM      3  C4  <0> d           0.023  -0.707   1.198  0.00  0.00    -0.050 A 
ATOM      4  C5  <0> d           0.002  -0.004   0.002  0.00  0.00     0.081 A 
ATOM      5  C6  <0> d          -0.006  -0.701  -1.214  0.00  0.00     0.065 A 
ATOM      6  C7  <0> d           0.018  -2.098  -1.208  0.00  0.00    -0.059 A 
ATOM      7  H4  <0> d           0.056  -2.630   2.122  0.00  0.00     0.084 H 
ATOM      8  H5  <0> d           0.025  -0.174   2.137  0.00  0.00     0.087 H 
ATOM      9  H6  <0> d           0.016  -2.643  -2.141  0.00  0.00     0.086 H 
ENDROOT
BRANCH   5  10
ATOM     10  C8  <0> d          -0.034   0.035  -2.491  0.00  0.00     0.252 C 
ATOM     11  O1  <0> d          -0.051   1.251  -2.492  0.00  0.00    -0.268 OA
ATOM     12  N1  <0> d          -0.042  -0.639  -3.658  0.00  0.00    -0.366 N 
ATOM     13  H7  <0> d          -0.063  -0.090  -4.611  0.00  0.00     0.159 HD
ATOM     14  H8  <0> d          -0.027  -1.739  -3.658  0.00  0.00     0.159 HD
ENDBRANCH   5  10
BRANCH   4  15
ATOM     15  O2  <0> d          -0.016   1.352   0.009  0.00  0.00    -0.360 OA
ATOM     16  H9  <0> d          -0.033   1.907  -0.940  0.00  0.00     0.217 HD
ENDBRANCH   4  15
BRANCH   1  17
ATOM     17  C1  <0> d           0.057  -4.287  -0.007  0.00  0.00    -0.051 C 
ATOM     18  H1  <0> d           0.072  -4.651   1.031  0.00  0.00     0.033 H 
ATOM     19  H2  <0> d           0.955  -4.644  -0.533  0.00  0.00     0.033 H 
ATOM     20  H3  <0> d          -0.841  -4.667  -0.516  0.00  0.00     0.033 H 
ENDBRANCH   1  17
TORSDOF 3
