REMARK  5 active torsions:
REMARK  status: ('A' for Active; 'I' for Inactive)
REMARK    1  A    between atoms: C1_1  and  C2_2 
REMARK    2  A    between atoms: C2_2  and  C3_3 
REMARK    3  A    between atoms: C2_2  and  C4_4 
REMARK    4  A    between atoms: C6_6  and  C7_9 
REMARK    5  A    between atoms: C7_9  and  O2_10 
ROOT
ATOM      1  C4  <0> d           1.043   1.924   0.002  0.00  0.00     0.084 A 
ATOM      2  C5  <0> d          -0.013   1.076   0.008  0.00  0.00    -0.024 A 
ATOM      3  C6  <0> d          -1.138   1.931   0.017  0.00  0.00     0.087 A 
ATOM      4  N1  <0> d          -0.675   3.148   0.024  0.00  0.00    -0.131 NA
ATOM      5  O1  <0> d           0.534   3.164   0.013  0.00  0.00    -0.217 OA
ATOM      6  H8  <0> d           0.002  -0.004   0.002  0.00  0.00     0.090 H 
ENDROOT
BRANCH   1   7
ATOM      7  C2  <0> d           2.503   1.549  -0.013  0.00  0.00    -0.012 C 
ATOM      8  H4  <0> d           2.598   0.463  -0.019  0.00  0.00     0.049 H 
BRANCH   7   9
ATOM      9  C1  <0> d           3.165   2.126  -1.265  0.00  0.00    -0.067 C 
ATOM     10  H1  <0> d           3.069   3.212  -1.259  0.00  0.00     0.028 H 
ATOM     11  H2  <0> d           4.220   1.854  -1.276  0.00  0.00     0.028 H 
ATOM     12  H3  <0> d           2.677   1.723  -2.153  0.00  0.00     0.028 H 
ENDBRANCH   7   9
BRANCH   7  13
ATOM     13  C3  <0> d           3.188   2.114   1.233  0.00  0.00    -0.067 C 
ATOM     14  H5  <0> d           3.092   3.200   1.239  0.00  0.00     0.028 H 
ATOM     15  H6  <0> d           2.716   1.702   2.125  0.00  0.00     0.028 H 
ATOM     16  H7  <0> d           4.243   1.842   1.222  0.00  0.00     0.028 H 
ENDBRANCH   7  13
ENDBRANCH   1   7
BRANCH   3  17
ATOM     17  C7  <0> d          -2.587   1.516   0.021  0.00  0.00     0.059 C 
ATOM     18  H9  <0> d          -3.074   1.906   0.915  0.00  0.00     0.083 H 
ATOM     19  H10 <0> d          -3.082   1.915  -0.865  0.00  0.00     0.083 H 
BRANCH  17  20
ATOM     20  O2  <0> d          -2.674   0.090   0.015  0.00  0.00    -0.395 OA
ATOM     21  H11 <0> d          -3.580  -0.248   0.017  0.00  0.00     0.209 HD
ENDBRANCH  17  20
ENDBRANCH   3  17
TORSDOF 5
