REMARK  6 active torsions:
REMARK  status: ('A' for Active; 'I' for Inactive)
REMARK    1  A    between atoms: C1_1  and  C2_2 
REMARK    2  A    between atoms: C2_2  and  C4_6 
REMARK    3  A    between atoms: C4_6  and  C5_8 
REMARK    4  A    between atoms: C5_8  and  C6_9 
REMARK    5  A    between atoms: C5_8  and  C7_10 
REMARK    6  A    between atoms: C5_8  and  C8_11 
ROOT
ATOM      1  C2  <0> d          -1.329   1.939   0.019  0.00  0.00     0.085 C 
ATOM      2  H1  <0> d          -1.220   2.812   0.494  0.00  0.00     0.074 H 
ATOM      3  C3  <0> d          -2.341   1.126   0.713  0.00  0.00     0.071 C 
ATOM      4  N1  <0> d          -3.122   0.498   1.249  0.00  0.00    -0.196 NA
ENDROOT
BRANCH   1   5
ATOM      5  C1  <0> d          -1.781   2.196  -1.420  0.00  0.00    -0.054 C 
ATOM      6  H2  <0> d          -2.733   2.728  -1.413  0.00  0.00     0.029 H 
ATOM      7  H3  <0> d          -1.032   2.798  -1.934  0.00  0.00     0.029 H 
ATOM      8  H4  <0> d          -1.901   1.245  -1.938  0.00  0.00     0.029 H 
ENDBRANCH   1   5
BRANCH   1   9
ATOM      9  C4  <0> d          -0.014   1.203   0.009  0.00  0.00     0.151 C 
ATOM     10  O1  <0> d           0.002  -0.004   0.002  0.00  0.00    -0.296 OA
BRANCH   9  11
ATOM     11  C5  <0> d           1.280   1.975   0.000  0.00  0.00     0.011 C 
BRANCH  11  12
ATOM     12  C6  <0> d           2.457   0.996  -0.016  0.00  0.00    -0.063 C 
ATOM     13  H5  <0> d           2.399   0.374  -0.909  0.00  0.00     0.029 H 
ATOM     14  H6  <0> d           3.393   1.554  -0.022  0.00  0.00     0.029 H 
ATOM     15  H7  <0> d           2.416   0.364   0.871  0.00  0.00     0.029 H 
ENDBRANCH  11  12
BRANCH  11  16
ATOM     16  C7  <0> d           1.338   2.862  -1.245  0.00  0.00    -0.063 C 
ATOM     17  H8  <0> d           0.500   3.559  -1.233  0.00  0.00     0.029 H 
ATOM     18  H9  <0> d           2.274   3.420  -1.251  0.00  0.00     0.029 H 
ATOM     19  H10 <0> d           1.280   2.239  -2.138  0.00  0.00     0.029 H 
ENDBRANCH  11  16
BRANCH  11  20
ATOM     20  C8  <0> d           1.361   2.849   1.254  0.00  0.00    -0.063 C 
ATOM     21  H11 <0> d           1.321   2.216   2.141  0.00  0.00     0.029 H 
ATOM     22  H12 <0> d           2.298   3.406   1.248  0.00  0.00     0.029 H 
ATOM     23  H13 <0> d           0.523   3.546   1.265  0.00  0.00     0.029 H 
ENDBRANCH  11  20
ENDBRANCH   9  11
ENDBRANCH   1   9
TORSDOF 6
