REMARK  5 active torsions:
REMARK  status: ('A' for Active; 'I' for Inactive)
REMARK    1  A    between atoms: C1_1  and  O1_2 
REMARK    2  A    between atoms: O1_2  and  C2_3 
REMARK    3  A    between atoms: C2_3  and  C3_4 
REMARK    4  A    between atoms: C3_4  and  C4_5 
REMARK    5  A    between atoms: C6_7  and  N2_10 
ROOT
ATOM      1  C3  <0> d           0.633  -2.108   1.011  0.00  0.00    -0.003 C 
ATOM      2  H6  <0> d          -0.404  -2.443   0.995  0.00  0.00     0.045 H 
ATOM      3  H7  <0> d           1.129  -2.418   0.091  0.00  0.00     0.045 H 
ENDROOT
BRANCH   1   4
ATOM      4  C2  <0> d           0.673  -0.582   1.123  0.00  0.00     0.024 C 
ATOM      5  H4  <0> d           1.710  -0.247   1.139  0.00  0.00     0.074 H 
ATOM      6  H5  <0> d           0.177  -0.273   2.043  0.00  0.00     0.074 H 
BRANCH   4   7
ATOM      7  O1  <0> d           0.002  -0.004   0.002  0.00  0.00    -0.396 OA
BRANCH   7   8
ATOM      8  C1  <0> d          -0.017   1.425   0.010  0.00  0.00     0.004 C 
ATOM      9  H1  <0> d           1.005   1.802   0.002  0.00  0.00     0.066 H 
ATOM     10  H2  <0> d          -0.544   1.786  -0.873  0.00  0.00     0.066 H 
ATOM     11  H3  <0> d          -0.527   1.776   0.907  0.00  0.00     0.066 H 
ENDBRANCH   7   8
ENDBRANCH   4   7
ENDBRANCH   1   4
BRANCH   1  12
ATOM     12  C4  <0> d           1.341  -2.718   2.193  0.00  0.00     0.068 A 
ATOM     13  N1  <0> d           2.564  -2.461   2.568  0.00  0.00    -0.131 NA
ATOM     14  O2  <0> d           2.844  -3.236   3.719  0.00  0.00    -0.196 OA
ATOM     15  C6  <0> d           1.749  -3.962   4.002  0.00  0.00     0.168 A 
ATOM     16  C5  <0> d           0.801  -3.663   3.075  0.00  0.00    -0.006 A 
ATOM     17  H8  <0> d          -0.194  -4.080   3.027  0.00  0.00     0.093 H 
BRANCH  15  18
ATOM     18  N2  <0> d           1.611  -4.854   5.050  0.00  0.00    -0.378 N 
ATOM     19  H9  <0> d           0.776  -5.333   5.173  0.00  0.00     0.158 HD
ATOM     20  H10 <0> d           2.349  -5.000   5.662  0.00  0.00     0.158 HD
ENDBRANCH  15  18
ENDBRANCH   1  12
TORSDOF 5
