REMARK  3 active torsions:
REMARK  status: ('A' for Active; 'I' for Inactive)
REMARK    1  A    between atoms: C1_1  and  O1_2 
REMARK    2  A    between atoms: O1_2  and  C2_3 
REMARK    3  A    between atoms: C2_3  and  C3_5 
ROOT
ATOM      1  C3  <0> d           0.618   3.214   0.013  0.00  0.00     0.152 A 
ATOM      2  C4  <0> d           1.100   1.925   0.002  0.00  0.00    -0.041 A 
ATOM      3  C5  <0> d          -0.013   1.076   0.008  0.00  0.00    -0.037 A 
ATOM      4  C6  <0> d          -1.130   1.881   0.017  0.00  0.00     0.156 A 
ATOM      5  O3  <0> d          -0.728   3.165   0.025  0.00  0.00    -0.293 OA
ATOM      6  C7  <0> d          -2.488   1.429   0.020  0.00  0.00     0.125 C 
ATOM      7  N1  <0> d          -3.566   1.069   0.022  0.00  0.00    -0.189 NA
ATOM      8  H4  <0> d           2.138   1.625  -0.010  0.00  0.00     0.088 H 
ATOM      9  H5  <0> d           0.002  -0.004   0.002  0.00  0.00     0.089 H 
ENDROOT
BRANCH   1  10
ATOM     10  C2  <0> d           1.432   4.436   0.012  0.00  0.00     0.317 C 
ATOM     11  O2  <0> d           2.646   4.358   0.001  0.00  0.00    -0.257 OA
BRANCH  10  12
ATOM     12  O1  <0> d           0.835   5.645   0.024  0.00  0.00    -0.321 OA
BRANCH  12  13
ATOM     13  C1  <0> d           1.702   6.809   0.022  0.00  0.00     0.013 C 
ATOM     14  H1  <0> d           1.090   7.723   0.032  0.00  0.00     0.067 H 
ATOM     15  H2  <0> d           2.329   6.798  -0.882  0.00  0.00     0.067 H 
ATOM     16  H3  <0> d           2.345   6.789   0.914  0.00  0.00     0.067 H 
ENDBRANCH  12  13
ENDBRANCH  10  12
ENDBRANCH   1  10
TORSDOF 3
