REMARK  2 active torsions:
REMARK  status: ('A' for Active; 'I' for Inactive)
REMARK    1  A    between atoms: C1_1  and  C2_2 
REMARK    2  A    between atoms: C2_2  and  C3_3 
ROOT
ATOM      1  C3  <0> d           1.065   1.782   0.002  0.00  0.00     0.103 A 
ATOM      2  N1  <0> d          -0.011   0.966   0.007  0.00  0.00    -0.353 N 
ATOM      3  H1  <0> d           0.003  -0.034   0.006  0.00  0.00     0.166 HD
ATOM      4  C4  <0> d          -1.124   1.763   0.016  0.00  0.00    -0.005 A 
ATOM      5  C5  <0> d          -0.690   3.038   0.025  0.00  0.00     0.019 A 
ATOM      6  N2  <0> d           0.651   3.020   0.012  0.00  0.00    -0.246 NA
ATOM      7  H7  <0> d          -2.152   1.433   0.018  0.00  0.00     0.113 H 
ATOM      8  H8  <0> d          -1.312   3.920   0.035  0.00  0.00     0.117 H 
ENDROOT
BRANCH   1   9
ATOM      9  C2  <0> d           2.505   1.337  -0.014  0.00  0.00    -0.013 C 
ATOM     10  H5  <0> d           2.989   1.640   0.914  0.00  0.00     0.043 H 
ATOM     11  H6  <0> d           2.549   0.252  -0.109  0.00  0.00     0.043 H 
BRANCH   9  12
ATOM     12  C1  <0> d           3.225   1.983  -1.199  0.00  0.00    -0.070 C 
ATOM     13  H2  <0> d           2.741   1.679  -2.127  0.00  0.00     0.028 H 
ATOM     14  H3  <0> d           3.181   3.067  -1.104  0.00  0.00     0.028 H 
ATOM     15  H4  <0> d           4.267   1.661  -1.210  0.00  0.00     0.028 H 
ENDBRANCH   9  12
ENDBRANCH   1   9
TORSDOF 2
