REMARK  2 active torsions:
REMARK  status: ('A' for Active; 'I' for Inactive)
REMARK    1  A    between atoms: C1_1  and  C2_2 
REMARK    2  A    between atoms: N1_8  and  O1_11 
ROOT
ATOM      1  C2  <0> d          -1.236   3.132   0.031  0.00  0.00    -0.060 A 
ATOM      2  C3  <0> d          -1.202   1.744   0.017  0.00  0.00    -0.075 A 
ATOM      3  C4  <0> d          -0.013   1.076   0.008  0.00  0.00    -0.051 A 
ATOM      4  C5  <0> d           1.190   1.795   0.000  0.00  0.00     0.111 A 
ATOM      5  C6  <0> d           1.148   3.200   0.008  0.00  0.00     0.116 A 
ATOM      6  C7  <0> d          -0.078   3.857   0.024  0.00  0.00    -0.045 A 
ATOM      7  N1  <0> d           2.457   3.620  -0.002  0.00  0.00    -0.119 N 
ATOM      8  N2  <0> d           3.247   2.462  -0.015  0.00  0.00    -0.038 NA
ATOM      9  N3  <0> d           2.486   1.424  -0.014  0.00  0.00    -0.128 NA
ATOM     10  H4  <0> d          -2.127   1.187   0.018  0.00  0.00     0.084 H 
ATOM     11  H5  <0> d           0.002  -0.004   0.002  0.00  0.00     0.087 H 
ATOM     12  H6  <0> d          -0.114   4.936   0.030  0.00  0.00     0.088 H 
ENDROOT
BRANCH   1  13
ATOM     13  C1  <0> d          -2.563   3.846   0.049  0.00  0.00    -0.051 C 
ATOM     14  H1  <0> d          -2.894   4.024  -0.975  0.00  0.00     0.033 H 
ATOM     15  H2  <0> d          -3.300   3.232   0.566  0.00  0.00     0.033 H 
ATOM     16  H3  <0> d          -2.457   4.799   0.567  0.00  0.00     0.033 H 
ENDBRANCH   1  13
BRANCH   7  17
ATOM     17  O1  <0> d           2.917   4.960   0.001  0.00  0.00    -0.265 OA
ATOM     18  H7  <0> d           3.036   5.336  -0.882  0.00  0.00     0.247 HD
ENDBRANCH   7  17
TORSDOF 2
