REMARK  3 active torsions:
REMARK  status: ('A' for Active; 'I' for Inactive)
REMARK    1  A    between atoms: C1_1  and  C2_2 
REMARK    2  A    between atoms: C2_2  and  C3_4 
REMARK    3  A    between atoms: C2_2  and  N1_6 
ROOT
ATOM      1  C2  <0> d          -2.508   1.377   0.020  0.00  0.00     0.029 C 
ATOM      2  H1  <0> d          -3.182   2.234   0.027  0.00  0.00     0.079 H 
ENDROOT
BRANCH   1   3
ATOM      3  C1  <0> d          -2.754   0.524   1.266  0.00  0.00    -0.054 C 
ATOM      4  H2  <0> d          -2.571   1.123   2.158  0.00  0.00     0.030 H 
ATOM      5  H3  <0> d          -3.787   0.174   1.268  0.00  0.00     0.030 H 
ATOM      6  H4  <0> d          -2.080  -0.332   1.259  0.00  0.00     0.030 H 
ENDBRANCH   1   3
BRANCH   1   7
ATOM      7  C3  <0> d          -2.760   0.549  -1.214  0.00  0.00    -0.090 C 
ATOM      8  C4  <0> d          -3.682   0.915  -2.070  0.00  0.00    -0.123 C 
ATOM      9  H6  <0> d          -3.863   0.322  -2.954  0.00  0.00     0.066 H 
ATOM     10  H7  <0> d          -4.260   1.810  -1.893  0.00  0.00     0.066 H 
ATOM     11  H5  <0> d          -2.182  -0.345  -1.391  0.00  0.00     0.078 H 
ENDBRANCH   1   7
BRANCH   1  12
ATOM     12  N1  <0> d          -1.121   1.848   0.017  0.00  0.00    -0.342 N 
ATOM     13  C7  <0> d          -0.013   1.076   0.008  0.00  0.00     0.066 A 
ATOM     14  N2  <0> d           1.037   1.851   0.002  0.00  0.00    -0.255 NA
ATOM     15  H10 <0> d           0.002  -0.004   0.002  0.00  0.00     0.143 H 
ATOM     16  C6  <0> d           0.641   3.132   0.013  0.00  0.00     0.018 A 
ATOM     17  C5  <0> d          -0.705   3.152   0.026  0.00  0.00    -0.002 A 
ATOM     18  H9  <0> d           1.289   3.997   0.011  0.00  0.00     0.117 H 
ATOM     19  H8  <0> d          -1.336   4.029   0.036  0.00  0.00     0.113 H 
ENDBRANCH   1  12
TORSDOF 3
