REMARK  2 active torsions:
REMARK  status: ('A' for Active; 'I' for Inactive)
REMARK    1  A    between atoms: C4_6  and  C5_7 
REMARK    2  A    between atoms: C5_7  and  O1_8 
ROOT
ATOM      1  C1  <0> d          -0.013   1.076   0.008  0.00  0.00    -0.040 A 
ATOM      2  C2  <0> d           1.168   1.802   0.001  0.00  0.00     0.005 A 
ATOM      3  N1  <0> d           1.111   3.124   0.008  0.00  0.00    -0.254 NA
ATOM      4  C3  <0> d          -0.049   3.749   0.023  0.00  0.00     0.086 A 
ATOM      5  N2  <0> d          -1.191   3.092   0.030  0.00  0.00    -0.244 NA
ATOM      6  C4  <0> d          -1.212   1.769   0.017  0.00  0.00     0.060 A 
ATOM      7  H1  <0> d           0.002  -0.004   0.002  0.00  0.00     0.088 H 
ATOM      8  H2  <0> d           2.122   1.295  -0.012  0.00  0.00     0.114 H 
ATOM      9  H3  <0> d          -0.064   4.829   0.029  0.00  0.00     0.146 H 
ENDROOT
BRANCH   6  10
ATOM     10  C5  <0> d          -2.524   1.026   0.019  0.00  0.00     0.057 C 
ATOM     11  H4  <0> d          -3.089   1.290   0.913  0.00  0.00     0.083 H 
ATOM     12  H5  <0> d          -3.097   1.299  -0.867  0.00  0.00     0.083 H 
BRANCH  10  13
ATOM     13  O1  <0> d          -2.274  -0.381   0.011  0.00  0.00    -0.395 OA
ATOM     14  H6  <0> d          -3.075  -0.922   0.011  0.00  0.00     0.209 HD
ENDBRANCH  10  13
ENDBRANCH   6  10
TORSDOF 2
