REMARK  2 active torsions:
REMARK  status: ('A' for Active; 'I' for Inactive)
REMARK    1  A    between atoms: C1_1  and  S1_2 
REMARK    2  A    between atoms: S1_2  and  C2_3 
ROOT
ATOM      1  C2  <0> d           1.179   2.086   0.002  0.00  0.00    -0.000 A 
ATOM      2  C3  <0> d          -0.017   1.372   0.010  0.00  0.00    -0.065 A 
ATOM      3  C4  <0> d           0.002  -0.004   0.002  0.00  0.00    -0.062 A 
ATOM      4  C5  <0> d           1.223  -0.685  -0.013  0.00  0.00     0.044 A 
ATOM      5  C6  <0> d           2.422   0.035  -0.021  0.00  0.00    -0.062 A 
ATOM      6  C7  <0> d           2.397   1.411  -0.013  0.00  0.00    -0.065 A 
ATOM      7  C8  <0> d           1.246  -2.117  -0.021  0.00  0.00     0.099 C 
ATOM      8  N1  <0> d           1.264  -3.253  -0.027  0.00  0.00    -0.191 NA
ATOM      9  H4  <0> d          -0.959   1.899   0.017  0.00  0.00     0.085 H 
ATOM     10  H5  <0> d          -0.925  -0.557   0.008  0.00  0.00     0.085 H 
ATOM     11  H6  <0> d           3.367  -0.488  -0.033  0.00  0.00     0.085 H 
ATOM     12  H7  <0> d           3.322   1.967  -0.020  0.00  0.00     0.085 H 
ENDROOT
BRANCH   1  13
ATOM     13  S1  <0> d           1.151   3.848   0.012  0.00  0.00    -0.134 SA
BRANCH  13  14
ATOM     14  C1  <0> d           2.904   4.315  -0.003  0.00  0.00    -0.030 C 
ATOM     15  H1  <0> d           3.395   3.907   0.881  0.00  0.00     0.042 H 
ATOM     16  H2  <0> d           3.378   3.917  -0.899  0.00  0.00     0.042 H 
ATOM     17  H3  <0> d           2.990   5.401   0.003  0.00  0.00     0.042 H 
ENDBRANCH  13  14
ENDBRANCH   1  13
TORSDOF 2
