REMARK  2 active torsions:
REMARK  status: ('A' for Active; 'I' for Inactive)
REMARK    1  A    between atoms: C1_1  and  C2_2 
REMARK    2  A    between atoms: C3_3  and  N3_8 
ROOT
ATOM      1  C2  <0> d          -0.718   1.572   1.248  0.00  0.00     0.075 A 
ATOM      2  C3  <0> d           0.005   1.808   2.415  0.00  0.00     0.145 A 
ATOM      3  N1  <0> d          -0.620   2.236   3.504  0.00  0.00    -0.240 NA
ATOM      4  C4  <0> d          -1.927   2.437   3.477  0.00  0.00     0.021 A 
ATOM      5  C5  <0> d          -2.641   2.201   2.318  0.00  0.00     0.019 A 
ATOM      6  N2  <0> d          -2.021   1.780   1.228  0.00  0.00    -0.261 NA
ATOM      7  H4  <0> d          -2.437   2.786   4.363  0.00  0.00     0.117 H 
ATOM      8  H5  <0> d          -3.708   2.367   2.300  0.00  0.00     0.117 H 
ENDROOT
BRANCH   1   9
ATOM      9  C1  <0> d          -0.013   1.086   0.008  0.00  0.00    -0.032 C 
ATOM     10  H1  <0> d           0.002  -0.004   0.002  0.00  0.00     0.035 H 
ATOM     11  H2  <0> d           1.010   1.463   0.000  0.00  0.00     0.035 H 
ATOM     12  H3  <0> d          -0.540   1.447  -0.875  0.00  0.00     0.035 H 
ENDBRANCH   1   9
BRANCH   2  13
ATOM     13  N3  <0> d           1.379   1.595   2.439  0.00  0.00    -0.382 N 
ATOM     14  H6  <0> d           1.835   1.281   1.642  0.00  0.00     0.157 HD
ATOM     15  H7  <0> d           1.881   1.760   3.252  0.00  0.00     0.157 HD
ENDBRANCH   2  13
TORSDOF 2
