REMARK  3 active torsions:
REMARK  status: ('A' for Active; 'I' for Inactive)
REMARK    1  A    between atoms: C1_1  and  C2_2 
REMARK    2  A    between atoms: C4_4  and  N2_7 
REMARK    3  A    between atoms: N2_7  and  C5_8 
ROOT
ATOM      1  C2  <0> d          -0.016   1.300   0.009  0.00  0.00     0.062 A 
ATOM      2  C3  <0> d           1.193   1.991   0.001  0.00  0.00     0.104 A 
ATOM      3  C4  <0> d           2.339   1.189  -0.014  0.00  0.00     0.111 A 
ATOM      4  S1  <0> d           1.662  -0.406  -0.016  0.00  0.00     0.030 SA
ATOM      5  N1  <0> d           0.002  -0.004   0.002  0.00  0.00    -0.213 NA
ATOM      6  C6  <0> d           1.259   3.421   0.008  0.00  0.00     0.104 C 
ATOM      7  N3  <0> d           1.310   4.556   0.013  0.00  0.00    -0.191 NA
ENDROOT
BRANCH   1   8
ATOM      8  C1  <0> d          -1.324   2.047   0.019  0.00  0.00    -0.033 C 
ATOM      9  H1  <0> d          -1.635   2.222   1.050  0.00  0.00     0.035 H 
ATOM     10  H2  <0> d          -1.201   3.003  -0.490  0.00  0.00     0.035 H 
ATOM     11  H3  <0> d          -2.084   1.457  -0.494  0.00  0.00     0.035 H 
ENDBRANCH   1   8
BRANCH   3  12
ATOM     12  N2  <0> d           3.667   1.570  -0.025  0.00  0.00    -0.386 N 
ATOM     13  H4  <0> d           3.902   2.511  -0.022  0.00  0.00     0.159 HD
BRANCH  12  14
ATOM     14  C5  <0> d           4.721   0.552  -0.040  0.00  0.00    -0.020 C 
ATOM     15  H5  <0> d           4.617  -0.065  -0.932  0.00  0.00     0.056 H 
ATOM     16  H6  <0> d           5.696   1.039  -0.046  0.00  0.00     0.056 H 
ATOM     17  H7  <0> d           4.634  -0.074   0.848  0.00  0.00     0.056 H 
ENDBRANCH  12  14
ENDBRANCH   3  12
TORSDOF 3
