REMARK  2 active torsions:
REMARK  status: ('A' for Active; 'I' for Inactive)
REMARK    1  A    between atoms: C1_1  and  C2_2 
REMARK    2  A    between atoms: C7_8  and  N2_12 
ROOT
ATOM      1  C2  <0> d           0.553  -0.000   0.010  0.00  0.00    -0.031 A 
ATOM      2  C3  <0> d           0.707  -0.689  -1.156  0.00  0.00     0.008 A 
ATOM      3  N1  <0> d           0.712  -2.014  -1.190  0.00  0.00    -0.272 NA
ATOM      4  C4  <0> d           0.569  -2.753  -0.115  0.00  0.00     0.013 A 
ATOM      5  C5  <0> d           0.403  -2.141   1.138  0.00  0.00    -0.006 A 
ATOM      6  C6  <0> d           0.400  -0.723   1.205  0.00  0.00     0.009 A 
ATOM      7  C7  <0> d           0.240  -0.088   2.452  0.00  0.00     0.037 A 
ATOM      8  C8  <0> d           0.095  -0.859   3.587  0.00  0.00    -0.057 A 
ATOM      9  C9  <0> d           0.106  -2.248   3.510  0.00  0.00    -0.080 A 
ATOM     10  C10 <0> d           0.247  -2.888   2.316  0.00  0.00    -0.071 A 
ATOM     11  H4  <0> d           0.830  -0.139  -2.077  0.00  0.00     0.115 H 
ATOM     12  H5  <0> d           0.579  -3.830  -0.194  0.00  0.00     0.116 H 
ATOM     13  H6  <0> d          -0.028  -0.378   4.546  0.00  0.00     0.086 H 
ATOM     14  H7  <0> d          -0.009  -2.830   4.413  0.00  0.00     0.083 H 
ATOM     15  H8  <0> d           0.252  -3.967   2.277  0.00  0.00     0.084 H 
ENDROOT
BRANCH   1  16
ATOM     16  C1  <0> d           0.551   1.507   0.019  0.00  0.00    -0.049 C 
ATOM     17  H1  <0> d           1.545   1.869   0.282  0.00  0.00     0.033 H 
ATOM     18  H2  <0> d           0.280   1.875  -0.970  0.00  0.00     0.033 H 
ATOM     19  H3  <0> d          -0.172   1.865   0.751  0.00  0.00     0.033 H 
ENDBRANCH   1  16
BRANCH   7  20
ATOM     20  N2  <0> d           0.230   1.303   2.538  0.00  0.00    -0.398 N 
ATOM     21  H9  <0> d          -0.412   1.748   3.113  0.00  0.00     0.156 HD
ATOM     22  H10 <0> d           0.864   1.826   2.024  0.00  0.00     0.156 HD
ENDBRANCH   7  20
TORSDOF 2
