REMARK  4 active torsions:
REMARK  status: ('A' for Active; 'I' for Inactive)
REMARK    1  A    between atoms: C1_1  and  C2_2 
REMARK    2  A    between atoms: C6_6  and  O1_10 
REMARK    3  A    between atoms: C7_7  and  S1_8 
REMARK    4  A    between atoms: S1_8  and  C8_9 
ROOT
ATOM      1  C2  <0> d          -0.017   1.378   0.010  0.00  0.00    -0.043 A 
ATOM      2  C3  <0> d           0.002  -0.004   0.002  0.00  0.00    -0.076 A 
ATOM      3  C4  <0> d           1.206  -0.682  -0.013  0.00  0.00    -0.080 A 
ATOM      4  C5  <0> d           2.399   0.018  -0.020  0.00  0.00    -0.050 A 
ATOM      5  C6  <0> d           2.390   1.403  -0.013  0.00  0.00     0.083 A 
ATOM      6  C7  <0> d           1.176   2.088   0.002  0.00  0.00     0.039 A 
ATOM      7  H4  <0> d          -0.927  -0.555   0.008  0.00  0.00     0.084 H 
ATOM      8  H5  <0> d           1.216  -1.762  -0.019  0.00  0.00     0.083 H 
ATOM      9  H6  <0> d           3.338  -0.515  -0.031  0.00  0.00     0.087 H 
ENDROOT
BRANCH   6  10
ATOM     10  S1  <0> d           1.155   3.850   0.011  0.00  0.00    -0.131 SA
BRANCH  10  11
ATOM     11  C8  <0> d           1.167   4.279   1.773  0.00  0.00    -0.030 C 
ATOM     12  H7  <0> d           2.066   3.877   2.240  0.00  0.00     0.042 H 
ATOM     13  H8  <0> d           1.155   5.364   1.883  0.00  0.00     0.042 H 
ATOM     14  H9  <0> d           0.286   3.856   2.256  0.00  0.00     0.042 H 
ENDBRANCH  10  11
ENDBRANCH   6  10
BRANCH   1  15
ATOM     15  C1  <0> d          -1.332   2.114   0.020  0.00  0.00    -0.050 C 
ATOM     16  H1  <0> d          -1.644   2.286   1.050  0.00  0.00     0.033 H 
ATOM     17  H2  <0> d          -1.216   3.071  -0.489  0.00  0.00     0.033 H 
ATOM     18  H3  <0> d          -2.086   1.518  -0.494  0.00  0.00     0.033 H 
ENDBRANCH   1  15
BRANCH   5  19
ATOM     19  O1  <0> d           3.562   2.092  -0.019  0.00  0.00    -0.359 OA
ATOM     20  H10 <0> d           3.893   2.297  -0.905  0.00  0.00     0.217 HD
ENDBRANCH   5  19
TORSDOF 4
