REMARK  2 active torsions:
REMARK  status: ('A' for Active; 'I' for Inactive)
REMARK    1  A    between atoms: C2_2  and  C3_3 
REMARK    2  A    between atoms: C3_3  and  N1_4 
REMARK       I    between atoms: N1_4  and  C4_5 
REMARK       I    between atoms: C4_5  and  N2_7 
ROOT
ATOM      1  C3  <0> d          -1.295   2.059   0.019  0.00  0.00     0.011 C 
ATOM      2  H4  <0> d          -1.867   1.792  -0.869  0.00  0.00     0.070 H 
ATOM      3  H5  <0> d          -1.859   1.783   0.911  0.00  0.00     0.070 H 
ENDROOT
BRANCH   1   4
ATOM      4  C2  <0> d          -1.040   3.544   0.026  0.00  0.00    -0.095 C 
ATOM      5  C1  <0> d          -1.574   4.305  -0.896  0.00  0.00    -0.123 C 
ATOM      6  H1  <0> d          -2.198   3.868  -1.662  0.00  0.00     0.066 H 
ATOM      7  H2  <0> d          -1.391   5.369  -0.891  0.00  0.00     0.066 H 
ATOM      8  H3  <0> d          -0.416   3.981   0.792  0.00  0.00     0.078 H 
ENDBRANCH   1   4
BRANCH   1   9
ATOM      9  N1  <0> d          -0.016   1.344   0.009  0.00  0.00    -0.340 N 
ATOM     10  C4  <0> d           0.002  -0.004   0.002  0.00  0.00     0.314 C 
ATOM     11  O1  <0> d          -1.042  -0.626   0.009  0.00  0.00    -0.248 OA
ATOM     12  N2  <0> d           1.178  -0.662  -0.013  0.00  0.00    -0.352 N 
ATOM     13  H7  <0> d           2.012  -0.166  -0.018  0.00  0.00     0.160 HD
ATOM     14  H8  <0> d           1.191  -1.632  -0.018  0.00  0.00     0.160 HD
ATOM     15  H6  <0> d           0.817   1.840   0.004  0.00  0.00     0.164 HD
ENDBRANCH   1   9
TORSDOF 2
