REMARK  2 active torsions:
REMARK  status: ('A' for Active; 'I' for Inactive)
REMARK    1  A    between atoms: C1_1  and  N1_2 
REMARK    2  A    between atoms: C6_9  and  N4_11 
ROOT
ATOM      1  N1  <0> d           0.002  -0.004   0.002  0.00  0.00    -0.329 N 
ATOM      2  C2  <0> d           0.009  -0.803  -1.099  0.00  0.00     0.068 A 
ATOM      3  N2  <0> d           0.027  -2.055  -0.744  0.00  0.00    -0.240 NA
ATOM      4  C3  <0> d           0.034  -2.142   0.611  0.00  0.00     0.106 A 
ATOM      5  C4  <0> d           0.024  -0.827   1.110  0.00  0.00     0.159 A 
ATOM      6  N3  <0> d           0.033  -0.604   2.414  0.00  0.00    -0.239 NA
ATOM      7  C5  <0> d           0.054  -1.592   3.284  0.00  0.00     0.030 A 
ATOM      8  C6  <0> d           0.069  -2.921   2.869  0.00  0.00     0.045 A 
ATOM      9  C7  <0> d           0.052  -3.210   1.512  0.00  0.00    -0.025 A 
ATOM     10  H4  <0> d          -0.001  -0.450  -2.120  0.00  0.00     0.143 H 
ATOM     11  H5  <0> d           0.061  -1.368   4.341  0.00  0.00     0.118 H 
ATOM     12  H6  <0> d           0.064  -4.232   1.161  0.00  0.00     0.090 H 
ENDROOT
BRANCH   1  13
ATOM     13  C1  <0> d          -0.018   1.461   0.010  0.00  0.00    -0.012 C 
ATOM     14  H1  <0> d           1.005   1.838   0.002  0.00  0.00     0.057 H 
ATOM     15  H2  <0> d          -0.545   1.822  -0.873  0.00  0.00     0.057 H 
ATOM     16  H3  <0> d          -0.528   1.812   0.907  0.00  0.00     0.057 H 
ENDBRANCH   1  13
BRANCH   8  17
ATOM     17  N4  <0> d           0.092  -3.955   3.811  0.00  0.00    -0.398 N 
ATOM     18  H7  <0> d           0.098  -3.748   4.759  0.00  0.00     0.156 HD
ATOM     19  H8  <0> d           0.102  -4.879   3.517  0.00  0.00     0.156 HD
ENDBRANCH   8  17
TORSDOF 2
