REMARK  2 active torsions:
REMARK  status: ('A' for Active; 'I' for Inactive)
REMARK    1  A    between atoms: C1_1  and  C2_2 
REMARK    2  A    between atoms: C2_2  and  C3_4 
ROOT
ATOM      1  C3  <0> d          -0.013   1.086   0.008  0.00  0.00     0.033 C 
ATOM      2  H1  <0> d          -0.011   0.086   0.019  0.00  0.00     0.055 H 
ATOM      3  C4  <0> d          -0.613   1.631  -1.307  0.00  0.00     0.027 C 
ATOM      4  C5  <0> d           0.340   2.746  -1.698  0.00  0.00     0.259 C 
ATOM      5  O2  <0> d           0.057   3.752  -2.304  0.00  0.00    -0.265 OA
ATOM      6  O3  <0> d           1.558   2.404  -1.241  0.00  0.00    -0.321 OA
ATOM      7  C6  <0> d           1.423   1.650  -0.003  0.00  0.00     0.039 C 
ATOM      8  H5  <0> d          -0.629   0.855  -2.072  0.00  0.00     0.049 H 
ATOM      9  H6  <0> d          -1.615   2.025  -1.137  0.00  0.00     0.049 H 
ATOM     10  H7  <0> d           1.573   2.308   0.854  0.00  0.00     0.076 H 
ATOM     11  H8  <0> d           2.146   0.835   0.020  0.00  0.00     0.076 H 
ENDROOT
BRANCH   1  12
ATOM     12  C2  <0> d          -0.778   1.599   1.200  0.00  0.00     0.129 C 
ATOM     13  O1  <0> d          -1.429   2.613   1.109  0.00  0.00    -0.298 OA
BRANCH  12  14
ATOM     14  C1  <0> d          -0.731   0.849   2.506  0.00  0.00    -0.021 C 
ATOM     15  H2  <0> d          -0.151   0.041   2.406  0.00  0.00     0.037 H 
ATOM     16  H3  <0> d          -0.322   1.496   3.282  0.00  0.00     0.037 H 
ATOM     17  H4  <0> d          -1.739   0.540   2.784  0.00  0.00     0.037 H 
ENDBRANCH  12  14
ENDBRANCH   1  12
TORSDOF 2
