REMARK  4 active torsions:
REMARK  status: ('A' for Active; 'I' for Inactive)
REMARK    1  A    between atoms: C1_1  and  C2_2 
REMARK    2  A    between atoms: C2_2  and  C7_11 
REMARK    3  A    between atoms: C4_4  and  O2_10 
REMARK    4  A    between atoms: C5_6  and  O1_9 
ROOT
ATOM      1  C2  <0> d           0.002  -0.004   0.002  0.00  0.00    -0.043 C 
ATOM      2  C3  <0> d          -0.019   1.534   0.011  0.00  0.00    -0.032 C 
ATOM      3  C4  <0> d           1.453   1.995  -0.001  0.00  0.00     0.061 C 
ATOM      4  H1  <0> d           1.800   2.190   1.014  0.00  0.00     0.086 H 
ATOM      5  C5  <0> d           2.221   0.799  -0.616  0.00  0.00     0.061 C 
ATOM      6  H2  <0> d           2.137   0.804  -1.703  0.00  0.00     0.086 H 
ATOM      7  C6  <0> d           1.486  -0.425  -0.014  0.00  0.00    -0.032 C 
ATOM      8  H6  <0> d          -0.533   1.906  -0.876  0.00  0.00     0.037 H 
ATOM      9  H7  <0> d          -0.516   1.896   0.910  0.00  0.00     0.037 H 
ATOM     10  H8  <0> d           1.838  -0.621   0.998  0.00  0.00     0.037 H 
ATOM     11  H9  <0> d           1.627  -1.304  -0.643  0.00  0.00     0.037 H 
ENDROOT
BRANCH   1  12
ATOM     12  C1  <0> d          -0.682  -0.544   1.260  0.00  0.00    -0.069 C 
ATOM     13  H3  <0> d          -1.716  -0.200   1.287  0.00  0.00     0.028 H 
ATOM     14  H4  <0> d          -0.662  -1.634   1.244  0.00  0.00     0.028 H 
ATOM     15  H5  <0> d          -0.155  -0.184   2.143  0.00  0.00     0.028 H 
ENDBRANCH   1  12
BRANCH   1  16
ATOM     16  C7  <0> d          -0.706  -0.531  -1.248  0.00  0.00    -0.069 C 
ATOM     17  H12 <0> d          -0.196  -0.161  -2.137  0.00  0.00     0.028 H 
ATOM     18  H13 <0> d          -0.686  -1.621  -1.245  0.00  0.00     0.028 H 
ATOM     19  H14 <0> d          -1.740  -0.187  -1.252  0.00  0.00     0.028 H 
ENDBRANCH   1  16
BRANCH   5  20
ATOM     20  O1  <0> d           3.593   0.813  -0.216  0.00  0.00    -0.393 OA
ATOM     21  H10 <0> d           4.097   1.560  -0.567  0.00  0.00     0.210 HD
ENDBRANCH   5  20
BRANCH   3  22
ATOM     22  O2  <0> d           1.607   3.160  -0.815  0.00  0.00    -0.393 OA
ATOM     23  H11 <0> d           2.513   3.493  -0.858  0.00  0.00     0.210 HD
ENDBRANCH   3  22
TORSDOF 4
