REMARK  4 active torsions:
REMARK  status: ('A' for Active; 'I' for Inactive)
REMARK    1  A    between atoms: C2_2  and  C7_9 
REMARK    2  A    between atoms: C4_4  and  O2_8 
REMARK    3  A    between atoms: C6_6  and  O1_7 
REMARK    4  A    between atoms: C7_9  and  O3_10 
ROOT
ATOM      1  C1  <0> d           2.403   0.035  -0.021  0.00  0.00    -0.043 A 
ATOM      2  C2  <0> d           2.382   1.417  -0.013  0.00  0.00    -0.029 A 
ATOM      3  C3  <0> d           1.176   2.091   0.002  0.00  0.00    -0.043 A 
ATOM      4  C4  <0> d          -0.017   1.382   0.010  0.00  0.00     0.068 A 
ATOM      5  C5  <0> d           0.002  -0.004   0.002  0.00  0.00    -0.019 A 
ATOM      6  C6  <0> d           1.213  -0.678  -0.013  0.00  0.00     0.068 A 
ATOM      7  H1  <0> d           3.347  -0.490  -0.033  0.00  0.00     0.088 H 
ATOM      8  H2  <0> d           1.162   3.171   0.008  0.00  0.00     0.088 H 
ATOM      9  H3  <0> d          -0.925  -0.558   0.008  0.00  0.00     0.092 H 
ENDROOT
BRANCH   2  10
ATOM     10  C7  <0> d           3.676   2.189  -0.023  0.00  0.00     0.041 C 
ATOM     11  H6  <0> d           3.537   3.137   0.497  0.00  0.00     0.081 H 
ATOM     12  H7  <0> d           4.449   1.609   0.480  0.00  0.00     0.081 H 
BRANCH  10  13
ATOM     13  O3  <0> d           4.071   2.440  -1.373  0.00  0.00    -0.396 OA
ATOM     14  H8  <0> d           4.898   2.934  -1.455  0.00  0.00     0.209 HD
ENDBRANCH  10  13
ENDBRANCH   2  10
BRANCH   6  15
ATOM     15  O1  <0> d           1.235  -2.037  -0.021  0.00  0.00    -0.361 OA
ATOM     16  H4  <0> d           1.233  -2.425  -0.907  0.00  0.00     0.217 HD
ENDBRANCH   6  15
BRANCH   4  17
ATOM     17  O2  <0> d          -1.202   2.046   0.019  0.00  0.00    -0.361 OA
ATOM     18  H5  <0> d          -1.541   2.233   0.905  0.00  0.00     0.217 HD
ENDBRANCH   4  17
TORSDOF 4
