REMARK  4 active torsions:
REMARK  status: ('A' for Active; 'I' for Inactive)
REMARK    1  A    between atoms: C1_1  and  C2_2 
REMARK    2  A    between atoms: C5_5  and  O1_9 
REMARK    3  A    between atoms: C6_6  and  N1_8 
REMARK    4  A    between atoms: O1_9  and  C8_10 
ROOT
ATOM      1  C2  <0> d           0.002  -0.004   0.002  0.00  0.00    -0.060 A 
ATOM      2  C3  <0> d           0.006  -0.687  -1.200  0.00  0.00    -0.074 A 
ATOM      3  C4  <0> d           0.025  -2.070  -1.214  0.00  0.00    -0.048 A 
ATOM      4  C5  <0> d           0.041  -2.775  -0.022  0.00  0.00     0.094 A 
ATOM      5  C6  <0> d           0.037  -2.087   1.190  0.00  0.00     0.060 A 
ATOM      6  C7  <0> d           0.023  -0.700   1.196  0.00  0.00    -0.049 A 
ATOM      7  H4  <0> d          -0.007  -0.139  -2.131  0.00  0.00     0.084 H 
ATOM      8  H5  <0> d           0.027  -2.600  -2.155  0.00  0.00     0.087 H 
ATOM      9  H6  <0> d           0.025  -0.164   2.134  0.00  0.00     0.087 H 
ENDROOT
BRANCH   4  10
ATOM     10  O1  <0> d           0.059  -4.134  -0.034  0.00  0.00    -0.354 OA
BRANCH  10  11
ATOM     11  C8  <0> d           0.061  -4.772  -1.313  0.00  0.00     0.010 C 
ATOM     12  H9  <0> d           0.944  -4.462  -1.872  0.00  0.00     0.066 H 
ATOM     13  H10 <0> d           0.076  -5.854  -1.180  0.00  0.00     0.066 H 
ATOM     14  H11 <0> d          -0.836  -4.486  -1.863  0.00  0.00     0.066 H 
ENDBRANCH  10  11
ENDBRANCH   4  10
BRANCH   5  15
ATOM     15  N1  <0> d           0.052  -2.794   2.398  0.00  0.00    -0.397 N 
ATOM     16  H7  <0> d           0.065  -3.764   2.392  0.00  0.00     0.156 HD
ATOM     17  H8  <0> d           0.050  -2.314   3.241  0.00  0.00     0.156 HD
ENDBRANCH   5  15
BRANCH   1  18
ATOM     18  C1  <0> d          -0.018   1.503   0.010  0.00  0.00    -0.051 C 
ATOM     19  H1  <0> d           1.004   1.880   0.003  0.00  0.00     0.033 H 
ATOM     20  H2  <0> d          -0.545   1.864  -0.873  0.00  0.00     0.033 H 
ATOM     21  H3  <0> d          -0.529   1.854   0.907  0.00  0.00     0.033 H 
ENDBRANCH   1  18
TORSDOF 4
