REMARK  5 active torsions:
REMARK  status: ('A' for Active; 'I' for Inactive)
REMARK    1  A    between atoms: C1_1  and  C2_2 
REMARK    2  A    between atoms: C5_5  and  C9_9 
REMARK    3  A    between atoms: C7_7  and  C8_8 
REMARK    4  A    between atoms: C9_9  and  C10_11 
REMARK    5  A    between atoms: C9_9  and  O1_12 
ROOT
ATOM      1  C2  <0> d          -1.238   3.133   0.030  0.00  0.00    -0.056 A 
ATOM      2  C3  <0> d          -1.219   1.750   0.017  0.00  0.00    -0.076 A 
ATOM      3  C4  <0> d          -0.013   1.076   0.008  0.00  0.00    -0.074 A 
ATOM      4  C5  <0> d           1.175   1.783   0.000  0.00  0.00    -0.029 A 
ATOM      5  C6  <0> d           1.157   3.165   0.008  0.00  0.00    -0.068 A 
ATOM      6  C7  <0> d          -0.050   3.840   0.023  0.00  0.00    -0.056 A 
ATOM      7  H5  <0> d          -2.147   1.198   0.019  0.00  0.00     0.084 H 
ATOM      8  H6  <0> d           0.002  -0.004   0.002  0.00  0.00     0.084 H 
ATOM      9  H7  <0> d           2.084   3.718   0.002  0.00  0.00     0.085 H 
ENDROOT
BRANCH   4  10
ATOM     10  C9  <0> d           2.490   1.048  -0.016  0.00  0.00     0.057 C 
ATOM     11  H1  <0> d           3.276   1.715  -0.372  0.00  0.00     0.089 H 
BRANCH  10  12
ATOM     12  C10 <0> d           2.827   0.572   1.399  0.00  0.00    -0.049 C 
ATOM     13  H11 <0> d           2.042  -0.095   1.754  0.00  0.00     0.031 H 
ATOM     14  H12 <0> d           3.778   0.040   1.387  0.00  0.00     0.031 H 
ATOM     15  H13 <0> d           2.900   1.433   2.063  0.00  0.00     0.031 H 
ENDBRANCH  10  12
BRANCH  10  16
ATOM     16  O1  <0> d           2.394  -0.081  -0.887  0.00  0.00    -0.391 OA
ATOM     17  H14 <0> d           1.714  -0.719  -0.631  0.00  0.00     0.210 HD
ENDBRANCH  10  16
ENDBRANCH   4  10
BRANCH   6  18
ATOM     18  C8  <0> d          -0.070   5.347   0.032  0.00  0.00    -0.051 C 
ATOM     19  H8  <0> d          -0.085   5.716  -0.994  0.00  0.00     0.033 H 
ATOM     20  H9  <0> d          -0.961   5.695   0.556  0.00  0.00     0.033 H 
ATOM     21  H10 <0> d           0.819   5.720   0.539  0.00  0.00     0.033 H 
ENDBRANCH   6  18
BRANCH   1  22
ATOM     22  C1  <0> d          -2.553   3.869   0.047  0.00  0.00    -0.051 C 
ATOM     23  H2  <0> d          -2.880   4.052  -0.976  0.00  0.00     0.033 H 
ATOM     24  H3  <0> d          -3.299   3.266   0.565  0.00  0.00     0.033 H 
ATOM     25  H4  <0> d          -2.430   4.820   0.566  0.00  0.00     0.033 H 
ENDBRANCH   1  22
TORSDOF 5
