REMARK  3 active torsions:
REMARK  status: ('A' for Active; 'I' for Inactive)
REMARK    1  A    between atoms: C2_2  and  C3_3 
REMARK    2  A    between atoms: C3_3  and  O1_4 
REMARK    3  A    between atoms: O1_4  and  C4_5 
ROOT
ATOM      1  C1  <0> d           2.461   6.710  -0.007  0.00  0.00    -0.152 C 
ATOM      2  C2  <0> d           2.561   5.543  -0.078  0.00  0.00    -0.091 C 
ATOM      3  H2  <0> d           2.372   7.755   0.057  0.00  0.00     0.166 H 
ENDROOT
BRANCH   2   4
ATOM      4  C3  <0> d           2.685   4.079  -0.167  0.00  0.00     0.076 C 
ATOM      5  H3  <0> d           3.393   3.728   0.584  0.00  0.00     0.094 H 
ATOM      6  H4  <0> d           3.043   3.804  -1.159  0.00  0.00     0.094 H 
BRANCH   4   7
ATOM      7  O1  <0> d           1.410   3.477   0.064  0.00  0.00    -0.350 OA
BRANCH   7   8
ATOM      8  C4  <0> d           1.420   2.050  -0.001  0.00  0.00     0.132 C 
ATOM      9  H1  <0> d           1.916   1.731  -0.917  0.00  0.00     0.129 H 
ATOM     10  O2  <0> d           2.124   1.527   1.128  0.00  0.00    -0.361 OA
ATOM     11  C8  <0> d           2.216   0.101   1.149  0.00  0.00     0.023 C 
ATOM     12  C7  <0> d           0.809  -0.499   1.206  0.00  0.00    -0.045 C 
ATOM     13  H11 <0> d           2.782  -0.214   2.026  0.00  0.00     0.074 H 
ATOM     14  H12 <0> d           2.723  -0.244   0.247  0.00  0.00     0.074 H 
ATOM     15  C6  <0> d           0.002  -0.004   0.002  0.00  0.00    -0.059 C 
ATOM     16  H9  <0> d           0.318  -0.188   2.127  0.00  0.00     0.036 H 
ATOM     17  H10 <0> d           0.876  -1.587   1.177  0.00  0.00     0.036 H 
ATOM     18  C5  <0> d          -0.019   1.528   0.010  0.00  0.00    -0.019 C 
ATOM     19  H7  <0> d          -1.018  -0.383   0.066  0.00  0.00     0.033 H 
ATOM     20  H8  <0> d           0.465  -0.357  -0.919  0.00  0.00     0.033 H 
ATOM     21  H5  <0> d          -0.544   1.890  -0.873  0.00  0.00     0.040 H 
ATOM     22  H6  <0> d          -0.527   1.880   0.908  0.00  0.00     0.040 H 
ENDBRANCH   7   8
ENDBRANCH   4   7
ENDBRANCH   2   4
TORSDOF 3
