REMARK  2 active torsions:
REMARK  status: ('A' for Active; 'I' for Inactive)
REMARK    1  A    between atoms: C8_8  and  O1_9 
REMARK    2  A    between atoms: C9_10  and  N1_12 
ROOT
ATOM      1  C1  <0> d           1.936   1.826   3.607  0.00  0.00    -0.080 A 
ATOM      2  C2  <0> d           1.280   1.535   2.450  0.00  0.00    -0.069 A 
ATOM      3  C3  <0> d           1.876   1.829   1.212  0.00  0.00     0.009 A 
ATOM      4  C4  <0> d           3.163   2.418   1.180  0.00  0.00     0.003 A 
ATOM      5  C5  <0> d           3.760   2.705  -0.058  0.00  0.00    -0.070 A 
ATOM      6  C6  <0> d           3.099   2.411  -1.212  0.00  0.00    -0.079 A 
ATOM      7  C7  <0> d           1.835   1.827  -1.186  0.00  0.00    -0.050 A 
ATOM      8  C8  <0> d           1.222   1.532  -0.001  0.00  0.00     0.076 A 
ATOM      9  C9  <0> d           3.820   2.710   2.395  0.00  0.00     0.037 A 
ATOM     10  C10 <0> d           3.199   2.411   3.589  0.00  0.00    -0.057 A 
ATOM     11  H1  <0> d           1.469   1.601   4.554  0.00  0.00     0.083 H 
ATOM     12  H2  <0> d           0.300   1.082   2.484  0.00  0.00     0.085 H 
ATOM     13  H3  <0> d           4.739   3.159  -0.095  0.00  0.00     0.084 H 
ATOM     14  H4  <0> d           3.562   2.634  -2.162  0.00  0.00     0.083 H 
ATOM     15  H5  <0> d           1.333   1.603  -2.116  0.00  0.00     0.087 H 
ATOM     16  H7  <0> d           3.698   2.632   4.520  0.00  0.00     0.086 H 
ENDROOT
BRANCH   9  17
ATOM     17  N1  <0> d           5.085   3.295   2.387  0.00  0.00    -0.398 N 
ATOM     18  H8  <0> d           5.518   3.504   1.544  0.00  0.00     0.156 HD
ATOM     19  H9  <0> d           5.532   3.494   3.224  0.00  0.00     0.156 HD
ENDBRANCH   9  17
BRANCH   8  20
ATOM     20  O1  <0> d          -0.011   0.963   0.007  0.00  0.00    -0.360 OA
ATOM     21  H6  <0> d           0.002  -0.004   0.002  0.00  0.00     0.217 HD
ENDBRANCH   8  20
TORSDOF 2
