REMARK  2 active torsions:
REMARK  status: ('A' for Active; 'I' for Inactive)
REMARK    1  A    between atoms: C1_1  and  C2_2 
REMARK    2  A    between atoms: C7_7  and  C8_8 
REMARK       I    between atoms: C8_8  and  N1_10 
ROOT
ATOM      1  C2  <0> d           1.197   1.822   0.009  0.00  0.00    -0.046 A 
ATOM      2  C3  <0> d           0.050   1.103   0.275  0.00  0.00    -0.073 A 
ATOM      3  C4  <0> d          -1.181   1.733   0.276  0.00  0.00    -0.045 A 
ATOM      4  C5  <0> d          -1.270   3.093   0.022  0.00  0.00     0.117 A 
ATOM      5  C6  <0> d          -0.129   3.824  -0.245  0.00  0.00    -0.030 A 
ATOM      6  C7  <0> d           1.115   3.191  -0.253  0.00  0.00     0.040 A 
ATOM      7  F1  <0> d          -2.476   3.703   0.030  0.00  0.00    -0.206 F 
ATOM      8  H4  <0> d           0.113   0.044   0.478  0.00  0.00     0.084 H 
ATOM      9  H5  <0> d          -2.077   1.164   0.481  0.00  0.00     0.088 H 
ATOM     10  H6  <0> d          -0.199   4.882  -0.448  0.00  0.00     0.089 H 
ENDROOT
BRANCH   6  11
ATOM     11  C8  <0> d           2.341   3.966  -0.538  0.00  0.00     0.249 C 
ATOM     12  O1  <0> d           3.407   3.395  -0.657  0.00  0.00    -0.268 OA
ATOM     13  N1  <0> d           2.276   5.306  -0.666  0.00  0.00    -0.366 N 
ATOM     14  H7  <0> d           1.425   5.762  -0.571  0.00  0.00     0.159 HD
ATOM     15  H8  <0> d           3.080   5.815  -0.853  0.00  0.00     0.159 HD
ENDBRANCH   6  11
BRANCH   1  16
ATOM     16  C1  <0> d           2.536   1.131   0.002  0.00  0.00    -0.050 C 
ATOM     17  H1  <0> d           2.805   0.870  -1.021  0.00  0.00     0.033 H 
ATOM     18  H2  <0> d           3.291   1.799   0.417  0.00  0.00     0.033 H 
ATOM     19  H3  <0> d           2.481   0.226   0.606  0.00  0.00     0.033 H 
ENDBRANCH   1  16
TORSDOF 2
