REMARK  1 active torsions:
REMARK  status: ('A' for Active; 'I' for Inactive)
REMARK    1  A    between atoms: C3_4  and  C4_7 
ROOT
ATOM      1  C1  <0> d           1.992   5.118   0.011  0.00  0.00    -0.004 A 
ATOM      2  C2  <0> d           0.636   5.133   0.024  0.00  0.00     0.019 A 
ATOM      3  N1  <0> d           0.203   3.875   0.015  0.00  0.00    -0.236 NA
ATOM      4  C3  <0> d           1.239   3.063   0.007  0.00  0.00     0.205 A 
ATOM      5  N2  <0> d           2.377   3.820  -0.000  0.00  0.00    -0.344 N 
ATOM      6  H1  <0> d           3.317   3.479  -0.011  0.00  0.00     0.167 HD
ATOM      7  H2  <0> d           2.643   5.980   0.009  0.00  0.00     0.113 H 
ATOM      8  H3  <0> d           0.013   6.016   0.035  0.00  0.00     0.117 H 
ENDROOT
BRANCH   4   9
ATOM      9  C4  <0> d           1.182   1.591  -0.001  0.00  0.00     0.247 C 
ATOM     10  O1  <0> d           2.210   0.943  -0.014  0.00  0.00    -0.642 OA
ATOM     11  O2  <0> d          -0.011   0.963   0.007  0.00  0.00    -0.642 OA
ENDBRANCH   4   9
TORSDOF 1
