REMARK  5 active torsions:
REMARK  status: ('A' for Active; 'I' for Inactive)
REMARK    1  A    between atoms: C1_1  and  C2_2 
REMARK    2  A    between atoms: C2_2  and  C3_4 
REMARK    3  A    between atoms: C2_2  and  C6_8 
REMARK    4  A    between atoms: C3_4  and  C4_5 
REMARK    5  A    between atoms: C4_5  and  C5_6 
ROOT
ATOM      1  C2  <0> d          -1.329   1.940   0.019  0.00  0.00     0.027 C 
ATOM      2  H1  <0> d          -1.400   2.570  -0.867  0.00  0.00     0.056 H 
ENDROOT
BRANCH   1   3
ATOM      3  C1  <0> d          -1.417   2.811   1.273  0.00  0.00    -0.064 C 
ATOM      4  H2  <0> d          -1.346   2.181   2.160  0.00  0.00     0.028 H 
ATOM      5  H3  <0> d          -0.598   3.531   1.273  0.00  0.00     0.028 H 
ATOM      6  H4  <0> d          -2.368   3.344   1.281  0.00  0.00     0.028 H 
ENDBRANCH   1   3
BRANCH   1   7
ATOM      7  C3  <0> d          -2.479   0.930   0.019  0.00  0.00    -0.044 C 
ATOM      8  H5  <0> d          -2.367   0.252  -0.827  0.00  0.00     0.035 H 
ATOM      9  H6  <0> d          -2.461   0.359   0.947  0.00  0.00     0.035 H 
BRANCH   7  10
ATOM     10  C4  <0> d          -3.811   1.673  -0.097  0.00  0.00     0.017 C 
ATOM     11  H7  <0> d          -3.923   2.351   0.750  0.00  0.00     0.049 H 
ATOM     12  H8  <0> d          -3.829   2.244  -1.025  0.00  0.00     0.049 H 
BRANCH  10  13
ATOM     13  C5  <0> d          -4.943   0.678  -0.097  0.00  0.00     0.172 C 
ATOM     14  O1  <0> d          -4.708  -0.504  -0.013  0.00  0.00    -0.648 OA
ATOM     15  O3  <0> d          -6.212   1.106  -0.190  0.00  0.00    -0.648 OA
ENDBRANCH  10  13
ENDBRANCH   7  10
ENDBRANCH   1   7
BRANCH   1  16
ATOM     16  C6  <0> d          -0.014   1.204   0.009  0.00  0.00     0.176 C 
ATOM     17  O2  <0> d           0.002  -0.004   0.002  0.00  0.00    -0.648 OA
ATOM     18  O4  <0> d           1.139   1.891   0.001  0.00  0.00    -0.648 OA
ENDBRANCH   1  16
TORSDOF 5
