REMARK  2 active torsions:
REMARK  status: ('A' for Active; 'I' for Inactive)
REMARK    1  A    between atoms: N4_5  and  C2_6 
REMARK    2  A    between atoms: C2_6  and  C3_7 
ROOT
ATOM      1  C1  <0> d          -0.210   2.825   2.135  0.00  0.00     0.108 A 
ATOM      2  N1  <0> d          -1.144   2.983   3.042  0.00  0.00    -0.122 NA
ATOM      3  N2  <0> d          -2.155   2.261   2.701  0.00  0.00    -0.024 NA
ATOM      4  N3  <0> d          -1.893   1.651   1.598  0.00  0.00    -0.044 NA
ATOM      5  N4  <0> d          -0.704   1.975   1.216  0.00  0.00    -0.232 N 
ATOM      6  H1  <0> d           0.765   3.288   2.127  0.00  0.00     0.149 H 
ENDROOT
BRANCH   5   7
ATOM      7  C2  <0> d          -0.018   1.503   0.010  0.00  0.00     0.099 C 
ATOM      8  H2  <0> d           1.004   1.880   0.003  0.00  0.00     0.084 H 
ATOM      9  H3  <0> d          -0.545   1.864  -0.873  0.00  0.00     0.084 H 
BRANCH   7  10
ATOM     10  C3  <0> d           0.002  -0.004   0.002  0.00  0.00     0.193 C 
ATOM     11  O1  <0> d          -0.504  -0.620   0.910  0.00  0.00    -0.647 OA
ATOM     12  O2  <0> d           0.583  -0.662  -1.014  0.00  0.00    -0.647 OA
ENDBRANCH   7  10
ENDBRANCH   5   7
TORSDOF 2
