REMARK  1 active torsions:
REMARK  status: ('A' for Active; 'I' for Inactive)
REMARK    1  A    between atoms: C2_2  and  C4_7 
ROOT
ATOM      1  C1  <0> d          -0.142   2.147   2.443  0.00  0.00     0.012 A 
ATOM      2  C2  <0> d          -0.722   1.881   1.250  0.00  0.00     0.083 A 
ATOM      3  C3  <0> d          -2.091   2.142   1.369  0.00  0.00     0.037 A 
ATOM      4  N1  <0> d          -2.326   2.541   2.592  0.00  0.00    -0.187 NA
ATOM      5  N2  <0> d          -1.111   2.557   3.288  0.00  0.00    -0.289 N 
ATOM      6  H1  <0> d          -0.858   2.828   4.324  0.00  0.00     0.188 HD
ATOM      7  H2  <0> d           0.908   2.050   2.676  0.00  0.00     0.115 H 
ATOM      8  H3  <0> d          -2.828   2.030   0.587  0.00  0.00     0.118 H 
ENDROOT
BRANCH   2   9
ATOM      9  C4  <0> d          -0.017   1.395   0.010  0.00  0.00     0.420 C 
ATOM     10  F1  <0> d           0.002  -0.004   0.002  0.00  0.00    -0.166 F 
ATOM     11  F2  <0> d           1.296   1.879  -0.000  0.00  0.00    -0.166 F 
ATOM     12  F3  <0> d          -0.694   1.858  -1.124  0.00  0.00    -0.166 F 
ENDBRANCH   2   9
TORSDOF 1
