REMARK  2 active torsions:
REMARK  status: ('A' for Active; 'I' for Inactive)
REMARK    1  A    between atoms: C1_1  and  N1_2 
REMARK    2  A    between atoms: N1_2  and  C2_3 
ROOT
ATOM      1  C2  <0> d          -0.016   1.347   0.009  0.00  0.00     0.237 C 
ATOM      2  N2  <0> d           1.171   1.883   0.001  0.00  0.00    -0.243 NA
ATOM      3  C3  <0> d           2.148   0.786  -0.017  0.00  0.00     0.062 C 
ATOM      4  H1  <0> d           2.441   0.601   1.017  0.00  0.00     0.080 H 
ATOM      5  C4  <0> d           3.382   1.094  -0.801  0.00  0.00    -0.042 C 
ATOM      6  C5  <0> d           3.273   0.897  -2.299  0.00  0.00    -0.063 C 
ATOM      7  C6  <0> d           2.616  -0.443  -2.622  0.00  0.00    -0.063 C 
ATOM      8  C7  <0> d           1.214  -0.453  -2.014  0.00  0.00    -0.038 C 
ATOM      9  C8  <0> d           1.310  -0.405  -0.490  0.00  0.00     0.070 C 
ATOM     10  H2  <0> d           1.643  -1.353  -0.068  0.00  0.00     0.087 H 
ATOM     11  O1  <0> d           0.002  -0.004   0.002  0.00  0.00    -0.313 OA
ATOM     12  H7  <0> d           4.189   0.461  -0.432  0.00  0.00     0.036 H 
ATOM     13  H8  <0> d           3.652   2.133  -0.613  0.00  0.00     0.036 H 
ATOM     14  H9  <0> d           4.271   0.922  -2.738  0.00  0.00     0.033 H 
ATOM     15  H10 <0> d           2.674   1.702  -2.724  0.00  0.00     0.033 H 
ATOM     16  H11 <0> d           3.207  -1.253  -2.195  0.00  0.00     0.033 H 
ATOM     17  H12 <0> d           2.548  -0.566  -3.703  0.00  0.00     0.033 H 
ATOM     18  H13 <0> d           0.695  -1.363  -2.316  0.00  0.00     0.036 H 
ATOM     19  H14 <0> d           0.659   0.415  -2.370  0.00  0.00     0.036 H 
ENDROOT
BRANCH   1  20
ATOM     20  N1  <0> d          -1.175   2.084   0.019  0.00  0.00    -0.359 N 
ATOM     21  H6  <0> d          -2.035   1.635   0.021  0.00  0.00     0.162 HD
BRANCH  20  22
ATOM     22  C1  <0> d          -1.113   3.547   0.027  0.00  0.00    -0.018 C 
ATOM     23  H3  <0> d          -0.579   3.883   0.916  0.00  0.00     0.056 H 
ATOM     24  H4  <0> d          -0.588   3.893  -0.864  0.00  0.00     0.056 H 
ATOM     25  H5  <0> d          -2.124   3.954   0.034  0.00  0.00     0.056 H 
ENDBRANCH  20  22
ENDBRANCH   1  20
TORSDOF 2
