REMARK  2 active torsions:
REMARK  status: ('A' for Active; 'I' for Inactive)
REMARK    1  A    between atoms: C1_1  and  N1_2 
REMARK    2  A    between atoms: C5_6  and  C6_7 
ROOT
ATOM      1  N1  <0> d           2.711   3.980   0.091  0.00  0.00    -0.360 N 
ATOM      2  C2  <0> d           2.542   5.315   0.273  0.00  0.00    -0.020 A 
ATOM      3  C3  <0> d           1.235   5.619   0.093  0.00  0.00    -0.066 A 
ATOM      4  C4  <0> d           0.558   4.434  -0.219  0.00  0.00    -0.054 A 
ATOM      5  C5  <0> d           1.491   3.420  -0.211  0.00  0.00     0.058 A 
ATOM      6  H4  <0> d           3.323   6.019   0.520  0.00  0.00     0.111 H 
ATOM      7  H5  <0> d           0.795   6.602   0.171  0.00  0.00     0.085 H 
ATOM      8  H6  <0> d          -0.497   4.334  -0.425  0.00  0.00     0.087 H 
ENDROOT
BRANCH   5   9
ATOM      9  C6  <0> d           1.232   2.002  -0.480  0.00  0.00     0.055 C 
ATOM     10  C9  <0> d           2.242   0.893  -0.284  0.00  0.00    -0.021 C 
ATOM     11  C8  <0> d           1.385  -0.396  -0.296  0.00  0.00    -0.043 C 
ATOM     12  H11 <0> d           2.723   1.030   0.582  0.00  0.00     0.042 H 
ATOM     13  H12 <0> d           2.963   0.881  -1.101  0.00  0.00     0.042 H 
ATOM     14  C7  <0> d           0.149   0.077  -1.095  0.00  0.00     0.015 C 
ATOM     15  H9  <0> d           1.108  -0.692   0.716  0.00  0.00     0.036 H 
ATOM     16  H10 <0> d           1.901  -1.205  -0.813  0.00  0.00     0.036 H 
ATOM     17  N2  <0> d           0.110   1.533  -0.918  0.00  0.00    -0.292 NA
ATOM     18  H7  <0> d          -0.757  -0.377  -0.694  0.00  0.00     0.067 H 
ATOM     19  H8  <0> d           0.263  -0.172  -2.150  0.00  0.00     0.067 H 
ENDBRANCH   5   9
BRANCH   1  20
ATOM     20  C1  <0> d           3.980   3.256   0.199  0.00  0.00    -0.014 C 
ATOM     21  H1  <0> d           4.417   3.140  -0.793  0.00  0.00     0.057 H 
ATOM     22  H2  <0> d           4.665   3.817   0.835  0.00  0.00     0.057 H 
ATOM     23  H3  <0> d           3.802   2.273   0.635  0.00  0.00     0.057 H 
ENDBRANCH   1  20
TORSDOF 2
