REMARK  3 active torsions:
REMARK  status: ('A' for Active; 'I' for Inactive)
REMARK    1  A    between atoms: C1_1  and  C2_2 
REMARK    2  A    between atoms: C3_3  and  C5_7 
REMARK    3  A    between atoms: C5_7  and  C6_9 
ROOT
ATOM      1  C2  <0> d           1.121  -0.678  -0.012  0.00  0.00     0.051 A 
ATOM      2  C3  <0> d           2.310   0.045  -0.020  0.00  0.00     0.075 A 
ATOM      3  S1  <0> d           1.673   1.716  -0.005  0.00  0.00    -0.077 SA
ATOM      4  C4  <0> d          -0.016   1.313   0.009  0.00  0.00     0.041 A 
ATOM      5  N1  <0> d           0.002  -0.004   0.002  0.00  0.00    -0.257 NA
ATOM      6  H4  <0> d          -0.868   1.977   0.017  0.00  0.00     0.126 H 
ENDROOT
BRANCH   2   7
ATOM      7  C5  <0> d           3.648  -0.412  -0.034  0.00  0.00     0.164 C 
ATOM      8  O1  <0> d           3.882  -1.604  -0.042  0.00  0.00    -0.292 OA
BRANCH   7   9
ATOM      9  C6  <0> d           4.783   0.579  -0.040  0.00  0.00    -0.016 C 
ATOM     10  H5  <0> d           4.415   1.508  -0.032  0.00  0.00     0.038 H 
ATOM     11  H6  <0> d           5.403   0.426   0.844  0.00  0.00     0.038 H 
ATOM     12  H7  <0> d           5.387   0.434  -0.936  0.00  0.00     0.038 H 
ENDBRANCH   7   9
ENDBRANCH   2   7
BRANCH   1  13
ATOM     13  C1  <0> d           1.125  -2.185  -0.020  0.00  0.00    -0.034 C 
ATOM     14  H1  <0> d           1.116  -2.544  -1.049  0.00  0.00     0.035 H 
ATOM     15  H2  <0> d           2.020  -2.549   0.484  0.00  0.00     0.035 H 
ATOM     16  H3  <0> d           0.240  -2.553   0.500  0.00  0.00     0.035 H 
ENDBRANCH   1  13
TORSDOF 3
