REMARK  4 active torsions:
REMARK  status: ('A' for Active; 'I' for Inactive)
REMARK    1  A    between atoms: C1_1  and  C2_2 
REMARK    2  A    between atoms: C2_2  and  C3_3 
REMARK    3  A    between atoms: C3_3  and  C4_4 
REMARK    4  A    between atoms: C4_4  and  C5_5 
ROOT
ATOM      1  C2  <0> d           0.002  -0.004   0.002  0.00  0.00     0.004 C 
ATOM      2  H4  <0> d           0.945  -0.531  -0.010  0.00  0.00     0.059 H 
ENDROOT
BRANCH   1   3
ATOM      3  C1  <0> d          -0.018   1.503   0.010  0.00  0.00    -0.062 C 
ATOM      4  H1  <0> d           1.004   1.880   0.003  0.00  0.00     0.029 H 
ATOM      5  H2  <0> d          -0.545   1.864  -0.873  0.00  0.00     0.029 H 
ATOM      6  H3  <0> d          -0.529   1.854   0.907  0.00  0.00     0.029 H 
ENDBRANCH   1   3
BRANCH   1   7
ATOM      7  C3  <0> d          -1.121  -0.673   0.009  0.00  0.00    -0.160 C 
BRANCH   7   8
ATOM      8  C4  <0> d          -2.244  -1.342   0.016  0.00  0.00     0.100 C 
ATOM      9  H5  <0> d          -2.716  -1.613  -0.916  0.00  0.00     0.077 H 
BRANCH   8  10
ATOM     10  C5  <0> d          -2.837  -1.709   1.240  0.00  0.00     0.190 C 
ATOM     11  O1  <0> d          -2.253  -1.374   2.390  0.00  0.00    -0.647 OA
ATOM     12  O2  <0> d          -3.982  -2.390   1.247  0.00  0.00    -0.647 OA
ENDBRANCH   8  10
ENDBRANCH   7   8
ENDBRANCH   1   7
TORSDOF 4
