REMARK  3 active torsions:
REMARK  status: ('A' for Active; 'I' for Inactive)
REMARK    1  A    between atoms: C1_1  and  C2_2 
REMARK    2  A    between atoms: C4_4  and  C9_11 
REMARK    3  A    between atoms: C5_5  and  N2_10 
ROOT
ATOM      1  C2  <0> d          -0.017   1.374   0.010  0.00  0.00    -0.060 A 
ATOM      2  C3  <0> d           1.170   2.090   0.002  0.00  0.00    -0.069 A 
ATOM      3  C4  <0> d           2.383   1.433  -0.013  0.00  0.00    -0.034 A 
ATOM      4  C5  <0> d           2.422   0.044  -0.021  0.00  0.00     0.052 A 
ATOM      5  C6  <0> d           1.222  -0.684  -0.013  0.00  0.00     0.071 A 
ATOM      6  C7  <0> d           0.002  -0.004   0.002  0.00  0.00    -0.055 A 
ATOM      7  C8  <0> d           1.249  -2.116  -0.022  0.00  0.00     0.102 C 
ATOM      8  N1  <0> d           1.270  -3.252  -0.028  0.00  0.00    -0.191 NA
ATOM      9  H4  <0> d           1.145   3.170   0.008  0.00  0.00     0.085 H 
ATOM     10  H5  <0> d          -0.925  -0.557   0.008  0.00  0.00     0.086 H 
ENDROOT
BRANCH   4  11
ATOM     11  N2  <0> d           3.643  -0.620  -0.035  0.00  0.00    -0.397 N 
ATOM     12  H6  <0> d           3.671  -1.720  -0.042  0.00  0.00     0.156 HD
ATOM     13  H7  <0> d           4.582  -0.046  -0.041  0.00  0.00     0.156 HD
ENDBRANCH   4  11
BRANCH   3  14
ATOM     14  C9  <0> d           3.667   2.222  -0.021  0.00  0.00    -0.049 C 
ATOM     15  H8  <0> d           4.522   1.530  -0.033  0.00  0.00     0.033 H 
ATOM     16  H9  <0> d           3.716   2.851   0.880  0.00  0.00     0.033 H 
ATOM     17  H10 <0> d           3.699   2.860  -0.916  0.00  0.00     0.033 H 
ENDBRANCH   3  14
BRANCH   1  18
ATOM     18  C1  <0> d          -1.334   2.105   0.020  0.00  0.00    -0.051 C 
ATOM     19  H1  <0> d          -1.151   3.190   0.025  0.00  0.00     0.033 H 
ATOM     20  H2  <0> d          -1.902   1.825   0.919  0.00  0.00     0.033 H 
ATOM     21  H3  <0> d          -1.911   1.835  -0.877  0.00  0.00     0.033 H 
ENDBRANCH   1  18
TORSDOF 3
