REMARK  5 active torsions:
REMARK  status: ('A' for Active; 'I' for Inactive)
REMARK    1  A    between atoms: C2_2  and  C3_3 
REMARK    2  A    between atoms: C3_3  and  O1_4 
REMARK    3  A    between atoms: O1_4  and  C4_5 
REMARK    4  A    between atoms: C4_5  and  C5_6 
REMARK    5  A    between atoms: C5_6  and  O2_7 
ROOT
ATOM      1  O1  <0> d           0.546   3.500   1.237  0.00  0.00    -0.385 OA
ENDROOT
BRANCH   1   2
ATOM      2  C3  <0> d           0.367   4.914   1.348  0.00  0.00     0.034 C 
ATOM      3  H4  <0> d           1.336   5.409   1.280  0.00  0.00     0.080 H 
ATOM      4  H5  <0> d          -0.277   5.263   0.542  0.00  0.00     0.080 H 
BRANCH   2   5
ATOM      5  C2  <0> d          -0.269   5.237   2.676  0.00  0.00    -0.090 C 
ATOM      6  C1  <0> d           0.196   6.223   3.402  0.00  0.00    -0.123 C 
ATOM      7  H1  <0> d           1.034   6.805   3.049  0.00  0.00     0.066 H 
ATOM      8  H2  <0> d          -0.260   6.455   4.353  0.00  0.00     0.066 H 
ATOM      9  H3  <0> d          -1.107   4.655   3.029  0.00  0.00     0.078 H 
ENDBRANCH   2   5
ENDBRANCH   1   2
BRANCH   1  10
ATOM     10  C4  <0> d           1.145   3.085   0.008  0.00  0.00     0.039 C 
ATOM     11  H6  <0> d           2.130   3.542  -0.089  0.00  0.00     0.077 H 
ATOM     12  H7  <0> d           0.516   3.397  -0.827  0.00  0.00     0.077 H 
BRANCH  10  13
ATOM     13  C5  <0> d           1.286   1.562  -0.002  0.00  0.00     0.036 C 
ATOM     14  H8  <0> d           1.840   1.243   0.881  0.00  0.00     0.077 H 
ATOM     15  H9  <0> d           1.823   1.252  -0.899  0.00  0.00     0.077 H 
BRANCH  13  16
ATOM     16  O2  <0> d          -0.011   0.963   0.007  0.00  0.00    -0.399 OA
ATOM     17  H10 <0> d           0.002  -0.004   0.002  0.00  0.00     0.209 HD
ENDBRANCH  13  16
ENDBRANCH  10  13
ENDBRANCH   1  10
TORSDOF 5
