REMARK  7 active torsions:
REMARK  status: ('A' for Active; 'I' for Inactive)
REMARK    1  A    between atoms: C1_1  and  C2_2 
REMARK    2  A    between atoms: C2_2  and  O1_3 
REMARK    3  A    between atoms: O1_3  and  C3_4 
REMARK    4  A    between atoms: C4_5  and  C5_6 
REMARK    5  A    between atoms: C5_6  and  C6_7 
REMARK    6  A    between atoms: C5_6  and  C7_8 
REMARK    7  A    between atoms: C5_6  and  O2_9 
ROOT
ATOM      1  C5  <0> d           1.286   1.562  -0.002  0.00  0.00     0.116 C 
ENDROOT
BRANCH   1   2
ATOM      2  C4  <0> d           2.034   1.131   1.191  0.00  0.00    -0.039 C 
ATOM      3  C3  <0> d           2.631   0.787   2.142  0.00  0.00     0.057 C 
BRANCH   3   4
ATOM      4  O1  <0> d           3.319   0.391   3.240  0.00  0.00    -0.304 OA
BRANCH   4   5
ATOM      5  C2  <0> d           4.637   0.936   3.328  0.00  0.00     0.032 C 
ATOM      6  H4  <0> d           5.216   0.629   2.457  0.00  0.00     0.075 H 
ATOM      7  H5  <0> d           4.578   2.024   3.360  0.00  0.00     0.075 H 
BRANCH   5   8
ATOM      8  C1  <0> d           5.317   0.423   4.599  0.00  0.00    -0.055 C 
ATOM      9  H1  <0> d           6.322   0.840   4.666  0.00  0.00     0.030 H 
ATOM     10  H2  <0> d           4.738   0.730   5.470  0.00  0.00     0.030 H 
ATOM     11  H3  <0> d           5.375  -0.664   4.566  0.00  0.00     0.030 H 
ENDBRANCH   5   8
ENDBRANCH   4   5
ENDBRANCH   3   4
ENDBRANCH   1   2
BRANCH   1  12
ATOM     12  C6  <0> d           2.040   1.127  -1.261  0.00  0.00    -0.038 C 
ATOM     13  H6  <0> d           1.486   1.446  -2.144  0.00  0.00     0.033 H 
ATOM     14  H7  <0> d           3.029   1.584  -1.268  0.00  0.00     0.033 H 
ATOM     15  H8  <0> d           2.140   0.042  -1.268  0.00  0.00     0.033 H 
ENDBRANCH   1  12
BRANCH   1  16
ATOM     16  C7  <0> d           1.145   3.085   0.008  0.00  0.00    -0.038 C 
ATOM     17  H9  <0> d           0.608   3.395   0.904  0.00  0.00     0.033 H 
ATOM     18  H10 <0> d           2.135   3.542   0.001  0.00  0.00     0.033 H 
ATOM     19  H11 <0> d           0.591   3.404  -0.875  0.00  0.00     0.033 H 
ENDBRANCH   1  16
BRANCH   1  20
ATOM     20  O2  <0> d          -0.011   0.963   0.007  0.00  0.00    -0.378 OA
ATOM     21  H12 <0> d           0.002  -0.004   0.002  0.00  0.00     0.211 HD
ENDBRANCH   1  20
TORSDOF 7
