REMARK  4 active torsions:
REMARK  status: ('A' for Active; 'I' for Inactive)
REMARK    1  A    between atoms: C3_3  and  O4_14 
REMARK    2  A    between atoms: C4_5  and  O3_13 
REMARK    3  A    between atoms: C5_7  and  O2_12 
REMARK    4  A    between atoms: C6_9  and  O1_11 
ROOT
ATOM      1  C1  <0> d          -1.943   2.033  -1.209  0.00  0.00    -0.074 C 
ATOM      2  C2  <0> d          -0.733   1.580  -1.212  0.00  0.00    -0.074 C 
ATOM      3  C3  <0> d          -0.013   1.086   0.008  0.00  0.00     0.079 C 
ATOM      4  H1  <0> d           0.002  -0.004   0.002  0.00  0.00     0.093 H 
ATOM      5  C4  <0> d          -0.723   1.577   1.271  0.00  0.00     0.091 C 
ATOM      6  H2  <0> d          -0.578   2.651   1.380  0.00  0.00     0.091 H 
ATOM      7  C5  <0> d          -2.220   1.266   1.138  0.00  0.00     0.091 C 
ATOM      8  H3  <0> d          -2.354   0.212   0.893  0.00  0.00     0.091 H 
ATOM      9  C6  <0> d          -2.797   2.136   0.020  0.00  0.00     0.079 C 
ATOM     10  H4  <0> d          -2.830   3.174   0.351  0.00  0.00     0.093 H 
ATOM     11  H5  <0> d          -2.366   2.357  -2.149  0.00  0.00     0.080 H 
ATOM     12  H6  <0> d          -0.207   1.557  -2.155  0.00  0.00     0.080 H 
ENDROOT
BRANCH   3  13
ATOM     13  O4  <0> d           1.329   1.578  -0.002  0.00  0.00    -0.389 OA
ATOM     14  H10 <0> d           1.843   1.303  -0.774  0.00  0.00     0.210 HD
ENDBRANCH   3  13
BRANCH   5  15
ATOM     15  O3  <0> d          -0.192   0.902   2.414  0.00  0.00    -0.390 OA
ATOM     16  H9  <0> d           0.755   1.042   2.548  0.00  0.00     0.210 HD
ENDBRANCH   5  15
BRANCH   7  17
ATOM     17  O2  <0> d          -2.883   1.561   2.369  0.00  0.00    -0.390 OA
ATOM     18  H8  <0> d          -3.834   1.387   2.354  0.00  0.00     0.210 HD
ENDBRANCH   7  17
BRANCH   9  19
ATOM     19  O1  <0> d          -4.121   1.695  -0.288  0.00  0.00    -0.389 OA
ATOM     20  H7  <0> d          -4.551   2.202  -0.990  0.00  0.00     0.210 HD
ENDBRANCH   9  19
TORSDOF 4
