REMARK  0 active torsions:
REMARK  status: ('A' for Active; 'I' for Inactive)
ROOT
ATOM      1  C1  <0> d           2.134   1.332  -1.170  0.00  0.00    -0.036 C 
ATOM      2  C2  <0> d           1.372   1.860  -0.001  0.00  0.00    -0.006 C 
ATOM      3  N1  <0> d          -0.017   1.398   0.010  0.00  0.00    -0.385 N 
ATOM      4  C3  <0> d           0.002  -0.004   0.002  0.00  0.00     0.114 A 
ATOM      5  C4  <0> d           0.787  -1.005  -0.516  0.00  0.00     0.114 A 
ATOM      6  C5  <0> d          -0.075  -2.051   0.060  0.00  0.00     0.252 A 
ATOM      7  O1  <0> d          -0.087  -3.268   0.071  0.00  0.00    -0.281 OA
ATOM      8  C6  <0> d          -0.919  -0.974   0.617  0.00  0.00     0.252 A 
ATOM      9  O2  <0> d          -1.932  -0.915   1.289  0.00  0.00    -0.281 OA
ATOM     10  N2  <0> d           1.952  -1.112  -1.289  0.00  0.00    -0.385 N 
ATOM     11  C7  <0> d           2.813   0.022  -0.952  0.00  0.00    -0.006 C 
ATOM     12  H1  <0> d           2.884   2.096  -1.423  0.00  0.00     0.037 H 
ATOM     13  H2  <0> d           1.413   1.238  -1.995  0.00  0.00     0.037 H 
ATOM     14  H3  <0> d           1.850   1.523   0.931  0.00  0.00     0.064 H 
ATOM     15  H4  <0> d           1.365   2.959  -0.034  0.00  0.00     0.064 H 
ATOM     16  H5  <0> d          -0.839   2.128   0.021  0.00  0.00     0.159 HD
ATOM     17  H6  <0> d           2.281  -1.849  -2.036  0.00  0.00     0.159 HD
ATOM     18  H7  <0> d           3.713  -0.033  -1.582  0.00  0.00     0.064 H 
ATOM     19  H8  <0> d           3.100  -0.070   0.106  0.00  0.00     0.064 H 
ENDROOT
TORSDOF 0
