REMARK  4 active torsions:
REMARK  status: ('A' for Active; 'I' for Inactive)
REMARK    1  A    between atoms: C2_2  and  C7_11 
REMARK    2  A    between atoms: C4_5  and  C6_9 
REMARK    3  A    between atoms: C6_9  and  O2_10 
REMARK    4  A    between atoms: C7_11  and  O3_12 
ROOT
ATOM      1  C1  <0> d           0.872   5.802   0.025  0.00  0.00    -0.011 A 
ATOM      2  C2  <0> d           2.123   5.292   0.010  0.00  0.00     0.031 A 
ATOM      3  C3  <0> d           2.296   3.888   0.001  0.00  0.00     0.191 A 
ATOM      4  O1  <0> d           3.416   3.397  -0.013  0.00  0.00    -0.287 OA
ATOM      5  C4  <0> d           1.147   3.062   0.008  0.00  0.00     0.031 A 
ATOM      6  C5  <0> d          -0.077   3.635   0.017  0.00  0.00    -0.011 A 
ATOM      7  N1  <0> d          -0.210   4.984   0.031  0.00  0.00    -0.374 N 
ATOM      8  H1  <0> d          -1.223   5.412   0.048  0.00  0.00     0.164 HD
ATOM      9  H2  <0> d           0.732   6.873   0.033  0.00  0.00     0.112 H 
ATOM     10  H3  <0> d          -0.958   3.011   0.017  0.00  0.00     0.112 H 
ENDROOT
BRANCH   2  11
ATOM     11  C7  <0> d           3.319   6.207   0.003  0.00  0.00     0.045 C 
ATOM     12  H7  <0> d           3.935   6.014   0.894  0.00  0.00     0.081 H 
ATOM     13  H8  <0> d           3.917   6.023  -0.902  0.00  0.00     0.081 H 
BRANCH  11  14
ATOM     14  O3  <0> d           2.879   7.567   0.015  0.00  0.00    -0.396 OA
ATOM     15  H9  <0> d           3.616   8.384   0.012  0.00  0.00     0.209 HD
ENDBRANCH  11  14
ENDBRANCH   2  11
BRANCH   5  16
ATOM     16  C6  <0> d           1.286   1.562  -0.002  0.00  0.00     0.045 C 
ATOM     17  H4  <0> d           1.828   1.250  -0.907  0.00  0.00     0.081 H 
ATOM     18  H5  <0> d           1.845   1.240   0.889  0.00  0.00     0.081 H 
BRANCH  16  19
ATOM     19  O2  <0> d          -0.011   0.963   0.007  0.00  0.00    -0.396 OA
ATOM     20  H6  <0> d          -0.111  -0.133   0.002  0.00  0.00     0.209 HD
ENDBRANCH  16  19
ENDBRANCH   5  16
TORSDOF 4
