REMARK  0 active torsions:
REMARK  status: ('A' for Active; 'I' for Inactive)
ROOT
ATOM      1  C1  <0> d          -0.019   1.519   0.010  0.00  0.00    -0.054 C 
ATOM      2  C2  <0> d           1.382   2.118   0.000  0.00  0.00    -0.027 C 
ATOM      3  C3  <0> d           2.363   1.185  -0.662  0.00  0.00     0.023 C 
ATOM      4  N1  <0> d           3.009   1.531  -1.715  0.00  0.00    -0.269 NA
ATOM      5  C4  <0> d           3.878   0.690  -2.337  0.00  0.00    -0.001 C 
ATOM      6  C5  <0> d           3.862  -0.614  -2.100  0.00  0.00    -0.085 C 
ATOM      7  C6  <0> d           2.854  -1.195  -1.140  0.00  0.00    -0.034 C 
ATOM      8  C7  <0> d           2.581  -0.177  -0.029  0.00  0.00     0.045 C 
ATOM      9  H1  <0> d           3.403  -0.149   0.686  0.00  0.00     0.061 H 
ATOM     10  C8  <0> d           1.264  -0.530   0.642  0.00  0.00     0.136 C 
ATOM     11  O1  <0> d           1.229  -1.203   1.644  0.00  0.00    -0.297 OA
ATOM     12  C9  <0> d           0.002  -0.004   0.002  0.00  0.00    -0.009 C 
ATOM     13  H2  <0> d          -0.542   1.860   0.904  0.00  0.00     0.034 H 
ATOM     14  H3  <0> d          -0.559   1.870  -0.869  0.00  0.00     0.034 H 
ATOM     15  H4  <0> d           1.364   3.063  -0.543  0.00  0.00     0.042 H 
ATOM     16  H5  <0> d           1.700   2.303   1.026  0.00  0.00     0.042 H 
ATOM     17  H6  <0> d           4.595   1.093  -3.037  0.00  0.00     0.114 H 
ATOM     18  H7  <0> d           4.572  -1.261  -2.595  0.00  0.00     0.079 H 
ATOM     19  H8  <0> d           1.927  -1.412  -1.672  0.00  0.00     0.040 H 
ATOM     20  H9  <0> d           3.251  -2.112  -0.706  0.00  0.00     0.040 H 
ATOM     21  H10 <0> d          -0.861  -0.377   0.553  0.00  0.00     0.044 H 
ATOM     22  H11 <0> d          -0.051  -0.357  -1.028  0.00  0.00     0.044 H 
ENDROOT
TORSDOF 0
