REMARK  1 active torsions:
REMARK  status: ('A' for Active; 'I' for Inactive)
REMARK    1  A    between atoms: C2_2  and  C3_3 
ROOT
ATOM      1  C1  <0> d           1.159   4.692   0.015  0.00  0.00    -0.149 C 
ATOM      2  C2  <0> d           1.170   3.519   0.009  0.00  0.00    -0.078 C 
ATOM      3  H1  <0> d           1.149   5.792   0.021  0.00  0.00     0.166 H 
ENDROOT
BRANCH   2   4
ATOM      4  C3  <0> d           1.184   2.087   0.002  0.00  0.00     0.017 A 
ATOM      5  C8  <0> d           2.397   1.398  -0.013  0.00  0.00    -0.062 A 
ATOM      6  C7  <0> d           2.405   0.019  -0.020  0.00  0.00    -0.044 A 
ATOM      7  H5  <0> d           3.329   1.944  -0.018  0.00  0.00     0.085 H 
ATOM      8  C6  <0> d           1.210  -0.683  -0.013  0.00  0.00     0.116 A 
ATOM      9  H4  <0> d           3.344  -0.515  -0.032  0.00  0.00     0.088 H 
ATOM     10  C5  <0> d           0.002  -0.004   0.002  0.00  0.00    -0.044 A 
ATOM     11  F1  <0> d           1.223  -2.034  -0.021  0.00  0.00    -0.206 F 
ATOM     12  C4  <0> d          -0.017   1.375   0.010  0.00  0.00    -0.062 A 
ATOM     13  H3  <0> d          -0.926  -0.556   0.008  0.00  0.00     0.088 H 
ATOM     14  H2  <0> d          -0.959   1.903   0.017  0.00  0.00     0.085 H 
ENDBRANCH   2   4
TORSDOF 1
