REMARK  0 active torsions:
REMARK  status: ('A' for Active; 'I' for Inactive)
ROOT
ATOM      1  C1  <0> d          -0.013   1.076   0.008  0.00  0.00    -0.080 A 
ATOM      2  C2  <0> d           1.179   1.783   0.000  0.00  0.00    -0.075 A 
ATOM      3  C3  <0> d           1.170   3.159   0.008  0.00  0.00    -0.034 A 
ATOM      4  C4  <0> d          -0.045   3.857   0.023  0.00  0.00     0.055 A 
ATOM      5  C5  <0> d          -1.248   3.129   0.031  0.00  0.00     0.130 A 
ATOM      6  C6  <0> d          -1.220   1.749   0.017  0.00  0.00    -0.045 A 
ATOM      7  F1  <0> d          -2.432   3.781   0.046  0.00  0.00    -0.205 F 
ATOM      8  C7  <0> d           0.585   5.192   0.024  0.00  0.00     0.167 A 
ATOM      9  O1  <0> d           0.208   6.345   0.034  0.00  0.00    -0.292 OA
ATOM     10  C8  <0> d           1.910   4.472   0.008  0.00  0.00     0.020 A 
ATOM     11  H1  <0> d           0.002  -0.004   0.002  0.00  0.00     0.083 H 
ATOM     12  H2  <0> d           2.119   1.251  -0.012  0.00  0.00     0.084 H 
ATOM     13  H3  <0> d          -2.145   1.192   0.019  0.00  0.00     0.088 H 
ATOM     14  H4  <0> d           2.521   4.511   0.798  0.00  0.00     0.052 H 
ATOM     15  H5  <0> d           2.484   4.643  -0.903  0.00  0.00     0.052 H 
ENDROOT
TORSDOF 0
