REMARK  2 active torsions:
REMARK  status: ('A' for Active; 'I' for Inactive)
REMARK    1  A    between atoms: C2_2  and  S1_3 
REMARK    2  A    between atoms: S1_3  and  N1_6 
ROOT
ATOM      1  S1  <0> d           1.501   1.978  -0.002  0.00  0.00     0.228 S 
ATOM      2  O1  <0> d           2.299   1.421  -1.038  0.00  0.00    -0.207 OA
ATOM      3  O2  <0> d           1.154   3.355   0.036  0.00  0.00    -0.207 OA
ENDROOT
BRANCH   1   4
ATOM      4  C2  <0> d          -0.013   1.076   0.008  0.00  0.00     0.013 C 
ATOM      5  C1  <0> d          -1.156   1.715   0.017  0.00  0.00    -0.110 C 
ATOM      6  H1  <0> d          -2.101   1.152   0.023  0.00  0.00     0.067 H 
ATOM      7  H2  <0> d          -1.171   2.815   0.018  0.00  0.00     0.067 H 
ATOM      8  H3  <0> d           0.002  -0.024   0.007  0.00  0.00     0.102 H 
ENDBRANCH   1   4
BRANCH   1   9
ATOM      9  N1  <0> d           2.278   1.646   1.423  0.00  0.00    -0.226 NA
ATOM     10  H4  <0> d           3.232   2.192   1.456  0.00  0.00     0.136 HD
ATOM     11  H5  <0> d           2.471   0.565   1.492  0.00  0.00     0.136 HD
ENDBRANCH   1   9
TORSDOF 2
