REMARK  0 active torsions:
REMARK  status: ('A' for Active; 'I' for Inactive)
ROOT
ATOM      1  C1  <0> d           0.002  -0.004   0.002  0.00  0.00    -0.044 C 
ATOM      2  C2  <0> d          -0.018   1.508   0.010  0.00  0.00    -0.106 C 
ATOM      3  C3  <0> d           1.042   2.256   0.004  0.00  0.00    -0.106 C 
ATOM      4  C4  <0> d           2.459   1.724   0.011  0.00  0.00    -0.038 C 
ATOM      5  C5  <0> d           2.394   0.282   0.473  0.00  0.00     0.039 C 
ATOM      6  H1  <0> d           2.047   0.232   1.506  0.00  0.00     0.056 H 
ATOM      7  C6  <0> d           1.379  -0.434  -0.475  0.00  0.00    -0.017 C 
ATOM      8  H2  <0> d           1.541  -0.177  -1.522  0.00  0.00     0.045 H 
ATOM      9  C7  <0> d           1.768  -1.885  -0.163  0.00  0.00     0.033 C 
ATOM     10  O1  <0> d           3.232  -1.812  -0.036  0.00  0.00    -0.321 OA
ATOM     11  C8  <0> d           3.623  -0.555   0.286  0.00  0.00     0.263 C 
ATOM     12  O2  <0> d           4.764  -0.175   0.403  0.00  0.00    -0.265 OA
ATOM     13  H3  <0> d          -0.177  -0.383   1.008  0.00  0.00     0.039 H 
ATOM     14  H4  <0> d          -0.761  -0.382  -0.678  0.00  0.00     0.039 H 
ATOM     15  H5  <0> d          -0.981   1.998   0.017  0.00  0.00     0.076 H 
ATOM     16  H6  <0> d           0.905   3.327  -0.007  0.00  0.00     0.076 H 
ATOM     17  H7  <0> d           3.071   2.308   0.699  0.00  0.00     0.040 H 
ATOM     18  H8  <0> d           2.880   1.774  -0.993  0.00  0.00     0.040 H 
ATOM     19  H9  <0> d           1.316  -2.213   0.773  0.00  0.00     0.075 H 
ATOM     20  H10 <0> d           1.485  -2.546  -0.982  0.00  0.00     0.075 H 
ENDROOT
TORSDOF 0
