REMARK  0 active torsions:
REMARK  status: ('A' for Active; 'I' for Inactive)
ROOT
ATOM      1  C1  <0> d          -0.013   1.076   0.008  0.00  0.00    -0.037 A 
ATOM      2  C2  <0> d          -1.222   1.752   0.017  0.00  0.00     0.120 A 
ATOM      3  C3  <0> d          -1.234   3.136   0.033  0.00  0.00    -0.006 A 
ATOM      4  C4  <0> d          -0.048   3.844   0.023  0.00  0.00     0.153 A 
ATOM      5  C5  <0> d           1.172   3.169   0.004  0.00  0.00     0.113 A 
ATOM      6  C6  <0> d           1.171   1.781   0.000  0.00  0.00    -0.017 A 
ATOM      7  C7  <0> d           2.621   1.335  -0.005  0.00  0.00    -0.018 C 
ATOM      8  C8  <0> d           3.357   2.634   0.400  0.00  0.00     0.030 C 
ATOM      9  O1  <0> d           2.442   3.662  -0.020  0.00  0.00    -0.347 OA
ATOM     10  F1  <0> d          -0.069   5.195   0.033  0.00  0.00    -0.203 F 
ATOM     11  F2  <0> d          -2.384   1.064   0.017  0.00  0.00    -0.206 F 
ATOM     12  H1  <0> d           0.002  -0.004   0.002  0.00  0.00     0.089 H 
ATOM     13  H2  <0> d          -2.175   3.666   0.047  0.00  0.00     0.093 H 
ATOM     14  H3  <0> d           2.789   0.547   0.729  0.00  0.00     0.043 H 
ATOM     15  H4  <0> d           2.924   1.009  -1.000  0.00  0.00     0.043 H 
ATOM     16  H5  <0> d           3.510   2.671   1.478  0.00  0.00     0.075 H 
ATOM     17  H6  <0> d           4.305   2.722  -0.130  0.00  0.00     0.075 H 
ENDROOT
TORSDOF 0
