REMARK  1 active torsions:
REMARK  status: ('A' for Active; 'I' for Inactive)
REMARK    1  A    between atoms: C1_1  and  C2_2 
ROOT
ATOM      1  C2  <0> d           0.002  -0.004   0.002  0.00  0.00    -0.061 A 
ATOM      2  C3  <0> d           0.006  -0.688  -1.201  0.00  0.00    -0.077 A 
ATOM      3  C4  <0> d           0.025  -2.071  -1.218  0.00  0.00    -0.081 A 
ATOM      4  C5  <0> d           0.040  -2.778  -0.033  0.00  0.00    -0.063 A 
ATOM      5  C6  <0> d           0.037  -2.095   1.184  0.00  0.00     0.045 A 
ATOM      6  C7  <0> d           0.023  -0.699   1.194  0.00  0.00    -0.057 A 
ATOM      7  C8  <0> d           0.053  -2.822   2.417  0.00  0.00     0.099 C 
ATOM      8  N1  <0> d           0.066  -3.400   3.396  0.00  0.00    -0.191 NA
ATOM      9  H4  <0> d          -0.006  -0.139  -2.131  0.00  0.00     0.084 H 
ATOM     10  H5  <0> d           0.026  -2.598  -2.160  0.00  0.00     0.083 H 
ATOM     11  H6  <0> d           0.054  -3.858  -0.048  0.00  0.00     0.085 H 
ATOM     12  H7  <0> d           0.024  -0.164   2.132  0.00  0.00     0.086 H 
ENDROOT
BRANCH   1  13
ATOM     13  C1  <0> d          -0.018   1.503   0.010  0.00  0.00    -0.051 C 
ATOM     14  H1  <0> d           1.004   1.880   0.003  0.00  0.00     0.033 H 
ATOM     15  H2  <0> d          -0.545   1.864  -0.873  0.00  0.00     0.033 H 
ATOM     16  H3  <0> d          -0.529   1.854   0.907  0.00  0.00     0.033 H 
ENDBRANCH   1  13
TORSDOF 1
