REMARK  1 active torsions:
REMARK  status: ('A' for Active; 'I' for Inactive)
REMARK    1  A    between atoms: C3_3  and  C6_9 
ROOT
ATOM      1  C1  <0> d          -0.019   1.525   0.010  0.00  0.00    -0.049 C 
ATOM      2  C2  <0> d           1.427   2.036  -0.001  0.00  0.00    -0.043 C 
ATOM      3  C3  <0> d           2.081   1.666   1.333  0.00  0.00     0.107 C 
ATOM      4  H1  <0> d           1.658   2.282   2.127  0.00  0.00     0.071 H 
ATOM      5  C4  <0> d           1.832   0.217   1.640  0.00  0.00     0.232 C 
ATOM      6  O1  <0> d           2.533  -0.322   2.471  0.00  0.00    -0.273 OA
ATOM      7  N1  <0> d           0.882  -0.508   1.049  0.00  0.00    -0.360 N 
ATOM      8  C5  <0> d           0.002  -0.004   0.002  0.00  0.00    -0.005 C 
ATOM      9  H2  <0> d          -0.525   1.879   0.909  0.00  0.00     0.035 H 
ATOM     10  H3  <0> d          -0.542   1.889  -0.874  0.00  0.00     0.035 H 
ATOM     11  H4  <0> d           1.975   1.569  -0.819  0.00  0.00     0.035 H 
ATOM     12  H5  <0> d           1.433   3.119  -0.125  0.00  0.00     0.035 H 
ATOM     13  H6  <0> d           0.771  -1.429   1.332  0.00  0.00     0.162 HD
ATOM     14  H7  <0> d          -1.008  -0.379   0.169  0.00  0.00     0.064 H 
ATOM     15  H8  <0> d           0.357  -0.354  -0.967  0.00  0.00     0.064 H 
ENDROOT
BRANCH   3  16
ATOM     16  C6  <0> d           3.566   1.910   1.248  0.00  0.00     0.186 C 
ATOM     17  O2  <0> d           4.160   2.391   2.197  0.00  0.00    -0.647 OA
ATOM     18  O3  <0> d           4.172   1.627   0.229  0.00  0.00    -0.647 OA
ENDBRANCH   3  16
TORSDOF 1
