REMARK  7 active torsions:
REMARK  status: ('A' for Active; 'I' for Inactive)
REMARK    1  A    between atoms: C1_1  and  C2_2 
REMARK    2  A    between atoms: C2_2  and  O1_3 
REMARK    3  A    between atoms: O1_3  and  C3_4 
REMARK       I    between atoms: C3_4  and  N1_6 
REMARK    4  A    between atoms: N1_6  and  C4_7 
REMARK    5  A    between atoms: C4_7  and  C5_8 
REMARK    6  A    between atoms: C5_8  and  C6_9 
REMARK    7  A    between atoms: C6_9  and  C8_11 
ROOT
ATOM      1  C4  <0> d           1.509  -3.748  -2.597  0.00  0.00     0.001 C 
ATOM      2  H7  <0> d           2.063  -4.173  -1.760  0.00  0.00     0.064 H 
ATOM      3  H8  <0> d           0.513  -4.189  -2.635  0.00  0.00     0.064 H 
ENDROOT
BRANCH   1   4
ATOM      4  N1  <0> d           1.395  -2.298  -2.422  0.00  0.00    -0.337 N 
ATOM      5  C3  <0> d           0.776  -1.798  -1.335  0.00  0.00     0.360 C 
ATOM      6  O2  <0> d           0.312  -2.549  -0.500  0.00  0.00    -0.239 OA
ATOM      7  H6  <0> d           1.765  -1.699  -3.088  0.00  0.00     0.164 HD
BRANCH   5   8
ATOM      8  O1  <0> d           0.671  -0.465  -1.174  0.00  0.00    -0.304 OA
BRANCH   8   9
ATOM      9  C2  <0> d           0.002  -0.004   0.002  0.00  0.00     0.027 C 
ATOM     10  H4  <0> d           0.529  -0.365   0.885  0.00  0.00     0.074 H 
ATOM     11  H5  <0> d          -1.020  -0.381   0.010  0.00  0.00     0.074 H 
BRANCH   9  12
ATOM     12  C1  <0> d          -0.019   1.526   0.010  0.00  0.00    -0.056 C 
ATOM     13  H1  <0> d           1.004   1.903   0.003  0.00  0.00     0.030 H 
ATOM     14  H2  <0> d          -0.546   1.887  -0.873  0.00  0.00     0.030 H 
ATOM     15  H3  <0> d          -0.529   1.877   0.907  0.00  0.00     0.030 H 
ENDBRANCH   9  12
ENDBRANCH   8   9
ENDBRANCH   5   8
ENDBRANCH   1   4
BRANCH   1  16
ATOM     16  C5  <0> d           2.249  -4.048  -3.902  0.00  0.00    -0.031 C 
ATOM     17  H9  <0> d           1.696  -3.623  -4.739  0.00  0.00     0.042 H 
ATOM     18  H10 <0> d           3.246  -3.607  -3.864  0.00  0.00     0.042 H 
BRANCH  16  19
ATOM     19  C6  <0> d           2.367  -5.539  -4.082  0.00  0.00    -0.092 C 
ATOM     20  C7  <0> d           1.482  -6.184  -4.802  0.00  0.00    -0.119 C 
ATOM     21  H11 <0> d           1.566  -7.253  -4.931  0.00  0.00     0.067 H 
ATOM     22  H12 <0> d           0.668  -5.646  -5.266  0.00  0.00     0.067 H 
BRANCH  19  23
ATOM     23  C8  <0> d           3.502  -6.290  -3.435  0.00  0.00    -0.055 C 
ATOM     24  H13 <0> d           3.201  -6.617  -2.440  0.00  0.00     0.033 H 
ATOM     25  H14 <0> d           3.756  -7.159  -4.042  0.00  0.00     0.033 H 
ATOM     26  H15 <0> d           4.371  -5.636  -3.355  0.00  0.00     0.033 H 
ENDBRANCH  19  23
ENDBRANCH  16  19
ENDBRANCH   1  16
TORSDOF 7
