REMARK  5 active torsions:
REMARK  status: ('A' for Active; 'I' for Inactive)
REMARK    1  A    between atoms: C1_1  and  C2_2 
REMARK    2  A    between atoms: C2_2  and  N1_3 
REMARK    3  A    between atoms: N1_3  and  C3_4 
REMARK    4  A    between atoms: C6_7  and  C10_11 
REMARK    5  A    between atoms: C8_9  and  C9_10 
ROOT
ATOM      1  C3  <0> d           0.832  -1.847  -1.433  0.00  0.00     0.034 A 
ATOM      2  C4  <0> d           0.326  -2.763  -0.520  0.00  0.00    -0.057 A 
ATOM      3  C5  <0> d           0.469  -4.117  -0.750  0.00  0.00    -0.075 A 
ATOM      4  C6  <0> d           1.116  -4.561  -1.889  0.00  0.00    -0.061 A 
ATOM      5  C7  <0> d           1.621  -3.652  -2.800  0.00  0.00    -0.069 A 
ATOM      6  C8  <0> d           1.477  -2.296  -2.578  0.00  0.00    -0.035 A 
ATOM      7  H7  <0> d          -0.180  -2.417   0.370  0.00  0.00     0.086 H 
ATOM      8  H8  <0> d           0.076  -4.829  -0.040  0.00  0.00     0.084 H 
ATOM      9  H9  <0> d           2.126  -4.002  -3.688  0.00  0.00     0.085 H 
ENDROOT
BRANCH   1  10
ATOM     10  N1  <0> d           0.688  -0.476  -1.203  0.00  0.00    -0.390 N 
ATOM     11  H6  <0> d           1.089   0.248  -1.927  0.00  0.00     0.159 HD
BRANCH  10  12
ATOM     12  C2  <0> d           0.002  -0.004   0.002  0.00  0.00    -0.011 C 
ATOM     13  H4  <0> d           0.534  -0.368   0.893  0.00  0.00     0.063 H 
ATOM     14  H5  <0> d          -1.030  -0.385   0.010  0.00  0.00     0.063 H 
BRANCH  12  15
ATOM     15  C1  <0> d          -0.019   1.526   0.010  0.00  0.00    -0.061 C 
ATOM     16  H1  <0> d          -0.534   1.881   0.915  0.00  0.00     0.029 H 
ATOM     17  H2  <0> d          -0.551   1.890  -0.881  0.00  0.00     0.029 H 
ATOM     18  H3  <0> d           1.013   1.907   0.003  0.00  0.00     0.029 H 
ENDBRANCH  12  15
ENDBRANCH  10  12
ENDBRANCH   1  10
BRANCH   6  19
ATOM     19  C9  <0> d           2.022  -1.306  -3.575  0.00  0.00    -0.049 C 
ATOM     20  H10 <0> d           2.494  -1.847  -4.408  0.00  0.00     0.033 H 
ATOM     21  H11 <0> d           2.769  -0.665  -3.084  0.00  0.00     0.033 H 
ATOM     22  H12 <0> d           1.201  -0.683  -3.960  0.00  0.00     0.033 H 
ENDBRANCH   6  19
BRANCH   4  23
ATOM     23  C10 <0> d           1.270  -6.039  -2.138  0.00  0.00    -0.051 C 
ATOM     24  H13 <0> d           1.806  -6.198  -3.085  0.00  0.00     0.033 H 
ATOM     25  H14 <0> d           0.276  -6.507  -2.196  0.00  0.00     0.033 H 
ATOM     26  H15 <0> d           1.841  -6.492  -1.313  0.00  0.00     0.033 H 
ENDBRANCH   4  23
TORSDOF 5
