REMARK  0 active torsions:
REMARK  status: ('A' for Active; 'I' for Inactive)
ROOT
ATOM      1  C1  <0> d          -0.013   1.076   0.008  0.00  0.00    -0.063 A 
ATOM      2  C2  <0> d          -1.218   1.761   0.017  0.00  0.00    -0.041 A 
ATOM      3  C3  <0> d          -1.189   3.148   0.029  0.00  0.00     0.156 A 
ATOM      4  C4  <0> d           0.036   3.797   0.021  0.00  0.00     0.164 A 
ATOM      5  N1  <0> d           1.162   3.110   0.007  0.00  0.00    -0.246 NA
ATOM      6  C5  <0> d           1.169   1.791   0.001  0.00  0.00     0.004 A 
ATOM      7 Cl1  <0> d           0.089   5.532   0.029  0.00  0.00    -0.059 Cl
ATOM      8  F1  <0> d          -2.339   3.857   0.044  0.00  0.00    -0.203 F 
ATOM      9  H1  <0> d           0.002  -0.004   0.002  0.00  0.00     0.085 H 
ATOM     10  H2  <0> d          -2.157   1.228   0.019  0.00  0.00     0.088 H 
ATOM     11  H3  <0> d           2.112   1.263  -0.011  0.00  0.00     0.114 H 
ENDROOT
TORSDOF 0
