REMARK  3 active torsions:
REMARK  status: ('A' for Active; 'I' for Inactive)
REMARK    1  A    between atoms: C1_1  and  C2_2 
REMARK    2  A    between atoms: C2_2  and  N1_3 
REMARK    3  A    between atoms: C6_7  and  C7_8 
ROOT
ATOM      1  N1  <0> d          -0.739   3.154   0.025  0.00  0.00    -0.352 N 
ATOM      2  C3  <0> d          -1.118   1.859   0.017  0.00  0.00    -0.020 A 
ATOM      3  C4  <0> d          -0.013   1.076   0.008  0.00  0.00    -0.066 A 
ATOM      4  C5  <0> d           1.106   1.914   0.002  0.00  0.00    -0.049 A 
ATOM      5  C6  <0> d           0.637   3.212   0.013  0.00  0.00     0.111 A 
ATOM      6  H6  <0> d          -2.138   1.504   0.019  0.00  0.00     0.111 H 
ATOM      7  H7  <0> d           0.002  -0.004   0.002  0.00  0.00     0.085 H 
ATOM      8  H8  <0> d           2.141   1.605  -0.009  0.00  0.00     0.087 H 
ENDROOT
BRANCH   1   9
ATOM      9  C2  <0> d          -1.642   4.308   0.040  0.00  0.00    -0.004 C 
ATOM     10  H4  <0> d          -2.595   4.017   0.482  0.00  0.00     0.064 H 
ATOM     11  H5  <0> d          -1.198   5.109   0.630  0.00  0.00     0.064 H 
BRANCH   9  12
ATOM     12  C1  <0> d          -1.871   4.795  -1.392  0.00  0.00    -0.061 C 
ATOM     13  H1  <0> d          -0.917   5.085  -1.834  0.00  0.00     0.029 H 
ATOM     14  H2  <0> d          -2.315   3.993  -1.982  0.00  0.00     0.029 H 
ATOM     15  H3  <0> d          -2.542   5.653  -1.381  0.00  0.00     0.029 H 
ENDBRANCH   9  12
ENDBRANCH   1   9
BRANCH   5  16
ATOM     16  C7  <0> d           1.452   4.429   0.012  0.00  0.00     0.227 C 
ATOM     17  O1  <0> d           2.666   4.347   0.001  0.00  0.00    -0.643 OA
ATOM     18  O2  <0> d           0.858   5.639   0.024  0.00  0.00    -0.643 OA
ENDBRANCH   5  16
TORSDOF 3
