REMARK  7 active torsions:
REMARK  status: ('A' for Active; 'I' for Inactive)
REMARK    1  A    between atoms: C1_1  and  C2_2 
REMARK    2  A    between atoms: C2_2  and  C3_3 
REMARK    3  A    between atoms: C2_2  and  C4_4 
REMARK    4  A    between atoms: C4_4  and  C5_6 
REMARK    5  A    between atoms: C4_4  and  C8_10 
REMARK    6  A    between atoms: C5_6  and  C6_7 
REMARK    7  A    between atoms: C8_10  and  C9_12 
ROOT
ATOM      1  C6  <0> d          -4.298   0.928  -0.016  0.00  0.00     0.015 C 
ATOM      2  C7  <0> d          -5.010   1.415  -1.209  0.00  0.00     0.059 C 
ATOM      3  N1  <0> d          -5.559   1.792  -2.129  0.00  0.00    -0.197 NA
ATOM      4  H11 <0> d          -4.205  -0.157  -0.067  0.00  0.00     0.054 H 
ATOM      5  H12 <0> d          -4.856   1.204   0.878  0.00  0.00     0.054 H 
ENDROOT
BRANCH   1   6
ATOM      6  C5  <0> d          -2.904   1.556   0.038  0.00  0.00    -0.044 C 
ATOM      7  H9  <0> d          -2.997   2.641   0.088  0.00  0.00     0.035 H 
ATOM      8  H10 <0> d          -2.346   1.281  -0.856  0.00  0.00     0.035 H 
BRANCH   6   9
ATOM      9  C4  <0> d          -2.164   1.050   1.278  0.00  0.00     0.007 C 
ATOM     10  H1  <0> d          -2.151   0.050   1.272  0.00  0.00     0.052 H 
BRANCH   9  11
ATOM     11  C2  <0> d          -0.729   1.579   1.267  0.00  0.00    -0.051 C 
ATOM     12  H5  <0> d          -0.744   2.669   1.273  0.00  0.00     0.040 H 
BRANCH  11  13
ATOM     13  C1  <0> d          -0.013   1.086   0.008  0.00  0.00    -0.072 C 
ATOM     14  H2  <0> d           0.002  -0.004   0.002  0.00  0.00     0.028 H 
ATOM     15  H3  <0> d           1.010   1.463   0.000  0.00  0.00     0.028 H 
ATOM     16  H4  <0> d          -0.540   1.447  -0.875  0.00  0.00     0.028 H 
ENDBRANCH  11  13
BRANCH  11  17
ATOM     17  C3  <0> d           0.011   1.072   2.506  0.00  0.00    -0.072 C 
ATOM     18  H6  <0> d           1.034   1.450   2.499  0.00  0.00     0.028 H 
ATOM     19  H7  <0> d          -0.499   1.424   3.403  0.00  0.00     0.028 H 
ATOM     20  H8  <0> d           0.026  -0.018   2.500  0.00  0.00     0.028 H 
ENDBRANCH  11  17
ENDBRANCH   9  11
BRANCH   9  21
ATOM     21  C8  <0> d          -2.870   1.536   2.518  0.00  0.00     0.127 C 
ATOM     22  O1  <0> d          -3.545   2.536   2.475  0.00  0.00    -0.298 OA
BRANCH  21  23
ATOM     23  C9  <0> d          -2.732   0.774   3.810  0.00  0.00    -0.021 C 
ATOM     24  H13 <0> d          -2.143  -0.021   3.668  0.00  0.00     0.037 H 
ATOM     25  H14 <0> d          -2.292   1.421   4.569  0.00  0.00     0.037 H 
ATOM     26  H15 <0> d          -3.716   0.441   4.143  0.00  0.00     0.037 H 
ENDBRANCH  21  23
ENDBRANCH   9  21
ENDBRANCH   6   9
ENDBRANCH   1   6
TORSDOF 7
