REMARK  1 active torsions:
REMARK  status: ('A' for Active; 'I' for Inactive)
REMARK    1  A    between atoms: C7_10  and  N3_11 
ROOT
ATOM      1  C1  <0> d          -4.850   1.833   0.036  0.00  0.00    -0.039 A 
ATOM      2  C2  <0> d          -5.245   0.523   0.031  0.00  0.00     0.004 A 
ATOM      3  N1  <0> d          -4.367  -0.466   0.021  0.00  0.00    -0.272 NA
ATOM      4  C3  <0> d          -3.067  -0.252   0.015  0.00  0.00     0.016 A 
ATOM      5  C4  <0> d          -2.575   1.051   0.020  0.00  0.00     0.036 A 
ATOM      6  C5  <0> d          -3.488   2.127   0.031  0.00  0.00     0.047 A 
ATOM      7  N2  <0> d          -2.755   3.285   0.034  0.00  0.00    -0.363 N 
ATOM      8  H1  <0> d          -3.128   4.180   0.041  0.00  0.00     0.165 HD
ATOM      9  C6  <0> d          -1.410   2.988   0.031  0.00  0.00     0.004 A 
ATOM     10  C7  <0> d          -1.239   1.653   0.017  0.00  0.00     0.055 A 
ATOM     11  H2  <0> d          -5.583   2.626   0.044  0.00  0.00     0.089 H 
ATOM     12  H3  <0> d          -6.299   0.291   0.035  0.00  0.00     0.114 H 
ATOM     13  H4  <0> d          -2.382  -1.087   0.007  0.00  0.00     0.116 H 
ATOM     14  H5  <0> d          -0.613   3.717   0.037  0.00  0.00     0.114 H 
ENDROOT
BRANCH  10  15
ATOM     15  N3  <0> d          -0.011   0.966   0.007  0.00  0.00    -0.397 N 
ATOM     16  H6  <0> d           0.002  -0.004   0.002  0.00  0.00     0.156 HD
ATOM     17  H7  <0> d           0.822   1.462   0.002  0.00  0.00     0.156 HD
ENDBRANCH  10  15
TORSDOF 1
