REMARK  3 active torsions:
REMARK  status: ('A' for Active; 'I' for Inactive)
REMARK    1  A    between atoms: C1_1  and  N1_2 
REMARK    2  A    between atoms: N1_2  and  C2_3 
REMARK    3  A    between atoms: C7_8  and  O1_9 
ROOT
ATOM      1  C2  <0> d           0.023  -0.709   1.204  0.00  0.00     0.061 A 
ATOM      2  C3  <0> d           0.042  -2.096   1.190  0.00  0.00    -0.055 A 
ATOM      3  C4  <0> d           0.040  -2.775  -0.014  0.00  0.00    -0.081 A 
ATOM      4  C5  <0> d           0.018  -2.074  -1.206  0.00  0.00    -0.080 A 
ATOM      5  C6  <0> d          -0.006  -0.692  -1.200  0.00  0.00    -0.049 A 
ATOM      6  C7  <0> d           0.002  -0.004   0.002  0.00  0.00     0.091 A 
ATOM      7  H5  <0> d           0.058  -2.645   2.119  0.00  0.00     0.087 H 
ATOM      8  H6  <0> d           0.054  -3.854  -0.024  0.00  0.00     0.083 H 
ATOM      9  H7  <0> d           0.016  -2.609  -2.145  0.00  0.00     0.083 H 
ATOM     10  H8  <0> d          -0.026  -0.148  -2.133  0.00  0.00     0.087 H 
ENDROOT
BRANCH   1  11
ATOM     11  N1  <0> d           0.025  -0.019   2.422  0.00  0.00    -0.392 N 
ATOM     12  H4  <0> d           0.011   0.951   2.430  0.00  0.00     0.159 HD
BRANCH  11  13
ATOM     13  C1  <0> d           0.047  -0.762   3.684  0.00  0.00    -0.021 C 
ATOM     14  H1  <0> d          -0.834  -1.402   3.745  0.00  0.00     0.056 H 
ATOM     15  H2  <0> d           0.946  -1.377   3.728  0.00  0.00     0.056 H 
ATOM     16  H3  <0> d           0.045  -0.061   4.518  0.00  0.00     0.056 H 
ENDBRANCH  11  13
ENDBRANCH   1  11
BRANCH   6  17
ATOM     17  O1  <0> d          -0.016   1.356   0.009  0.00  0.00    -0.358 OA
ATOM     18  H9  <0> d           0.862   1.761   0.003  0.00  0.00     0.217 HD
ENDBRANCH   6  17
TORSDOF 3
