REMARK  5 active torsions:
REMARK  status: ('A' for Active; 'I' for Inactive)
REMARK    1  A    between atoms: C1_1  and  N1_2 
REMARK       I    between atoms: N1_2  and  C2_3 
REMARK       I    between atoms: C2_3  and  N2_5 
REMARK    2  A    between atoms: N2_5  and  C3_6 
REMARK    3  A    between atoms: N2_5  and  C4_7 
REMARK    4  A    between atoms: C4_7  and  O2_8 
REMARK    5  A    between atoms: O2_8  and  C5_9 
ROOT
ATOM      1  N1  <0> d          -0.503  -1.476   3.333  0.00  0.00    -0.347 N 
ATOM      2  C2  <0> d          -0.742  -1.024   2.086  0.00  0.00     0.319 C 
ATOM      3  O1  <0> d          -1.863  -1.090   1.619  0.00  0.00    -0.247 OA
ATOM      4  N2  <0> d           0.262  -0.496   1.357  0.00  0.00    -0.317 N 
ATOM      5  H4  <0> d           0.391  -1.423   3.706  0.00  0.00     0.163 HD
ENDROOT
BRANCH   4   6
ATOM      6  C3  <0> d           1.612  -0.416   1.920  0.00  0.00    -0.013 C 
ATOM      7  H5  <0> d           1.733   0.535   2.438  0.00  0.00     0.056 H 
ATOM      8  H6  <0> d           1.762  -1.235   2.623  0.00  0.00     0.056 H 
ATOM      9  H7  <0> d           2.345  -0.488   1.117  0.00  0.00     0.056 H 
ENDBRANCH   4   6
BRANCH   4  10
ATOM     10  C4  <0> d           0.002  -0.004   0.002  0.00  0.00     0.082 C 
ATOM     11  H8  <0> d          -0.962  -0.379  -0.342  0.00  0.00     0.107 H 
ATOM     12  H9  <0> d           0.788  -0.353  -0.668  0.00  0.00     0.107 H 
BRANCH  10  13
ATOM     13  O2  <0> d          -0.017   1.425   0.010  0.00  0.00    -0.377 OA
BRANCH  13  14
ATOM     14  C5  <0> d           1.280   2.024   0.001  0.00  0.00     0.006 C 
ATOM     15  H10 <0> d           1.834   1.705   0.884  0.00  0.00     0.066 H 
ATOM     16  H11 <0> d           1.817   1.714  -0.896  0.00  0.00     0.066 H 
ATOM     17  H12 <0> d           1.179   3.109   0.007  0.00  0.00     0.066 H 
ENDBRANCH  13  14
ENDBRANCH  10  13
ENDBRANCH   4  10
BRANCH   1  18
ATOM     18  C1  <0> d          -1.594  -2.049   4.126  0.00  0.00    -0.017 C 
ATOM     19  H1  <0> d          -2.006  -2.914   3.605  0.00  0.00     0.056 H 
ATOM     20  H2  <0> d          -1.213  -2.358   5.099  0.00  0.00     0.056 H 
ATOM     21  H3  <0> d          -2.376  -1.302   4.262  0.00  0.00     0.056 H 
ENDBRANCH   1  18
TORSDOF 5
