REMARK  3 active torsions:
REMARK  status: ('A' for Active; 'I' for Inactive)
REMARK    1  A    between atoms: C1_1  and  N1_2 
REMARK    2  A    between atoms: N1_2  and  C2_3 
REMARK    3  A    between atoms: C7_8  and  N2_9 
ROOT
ATOM      1  C2  <0> d          -0.063   4.203   0.025  0.00  0.00     0.054 A 
ATOM      2  C3  <0> d          -1.255   3.489   0.033  0.00  0.00    -0.054 A 
ATOM      3  C4  <0> d          -1.236   2.111   0.019  0.00  0.00    -0.061 A 
ATOM      4  C5  <0> d          -0.017   1.428   0.010  0.00  0.00     0.046 A 
ATOM      5  C6  <0> d           1.183   2.144   0.002  0.00  0.00    -0.035 A 
ATOM      6  C7  <0> d           1.159   3.526   0.010  0.00  0.00     0.053 A 
ATOM      7  C8  <0> d           0.002  -0.004   0.002  0.00  0.00     0.099 C 
ATOM      8  N3  <0> d           0.018  -1.140  -0.004  0.00  0.00    -0.191 NA
ATOM      9  H5  <0> d          -2.198   4.015   0.046  0.00  0.00     0.087 H 
ATOM     10  H6  <0> d          -2.165   1.559   0.021  0.00  0.00     0.086 H 
ATOM     11  H7  <0> d           2.127   1.619  -0.010  0.00  0.00     0.089 H 
ENDROOT
BRANCH   6  12
ATOM     12  N2  <0> d           2.360   4.248   0.003  0.00  0.00    -0.397 N 
ATOM     13  H8  <0> d           3.208   3.778  -0.007  0.00  0.00     0.156 HD
ATOM     14  H9  <0> d           2.342   5.218   0.008  0.00  0.00     0.156 HD
ENDBRANCH   6  12
BRANCH   1  15
ATOM     15  N1  <0> d          -0.087   5.598   0.033  0.00  0.00    -0.392 N 
ATOM     16  H4  <0> d           0.745   6.097   0.028  0.00  0.00     0.159 HD
BRANCH  15  17
ATOM     17  C1  <0> d          -1.368   6.308   0.049  0.00  0.00    -0.021 C 
ATOM     18  H1  <0> d          -1.926   6.030   0.943  0.00  0.00     0.056 H 
ATOM     19  H2  <0> d          -1.187   7.383   0.053  0.00  0.00     0.056 H 
ATOM     20  H3  <0> d          -1.943   6.040  -0.837  0.00  0.00     0.056 H 
ENDBRANCH  15  17
ENDBRANCH   1  15
TORSDOF 3
