REMARK  3 active torsions:
REMARK  status: ('A' for Active; 'I' for Inactive)
REMARK    1  A    between atoms: C1_1  and  C2_2 
REMARK    2  A    between atoms: C4_4  and  C7_9 
REMARK    3  A    between atoms: C4_4  and  C8_10 
ROOT
ATOM      1  C2  <0> d          -1.941   2.507  -1.195  0.00  0.00    -0.075 C 
ATOM      2  C3  <0> d          -0.738   2.020  -1.211  0.00  0.00    -0.068 C 
ATOM      3  C4  <0> d          -0.019   1.526   0.010  0.00  0.00     0.081 C 
ATOM      4  O1  <0> d          -0.693   1.991   1.212  0.00  0.00    -0.306 OA
ATOM      5  C5  <0> d          -2.039   1.898   1.180  0.00  0.00     0.263 C 
ATOM      6  O2  <0> d          -2.651   1.248   1.994  0.00  0.00    -0.265 OA
ATOM      7  C6  <0> d          -2.743   2.650   0.071  0.00  0.00     0.036 C 
ATOM      8  H4  <0> d          -0.224   1.966  -2.159  0.00  0.00     0.081 H 
ATOM      9  H5  <0> d          -2.823   3.704   0.336  0.00  0.00     0.054 H 
ATOM     10  H6  <0> d          -3.739   2.232  -0.079  0.00  0.00     0.054 H 
ENDROOT
BRANCH   3  11
ATOM     11  C7  <0> d           0.002  -0.004   0.002  0.00  0.00    -0.044 C 
ATOM     12  H7  <0> d           0.529  -0.365   0.885  0.00  0.00     0.032 H 
ATOM     13  H8  <0> d          -1.020  -0.381   0.010  0.00  0.00     0.032 H 
ATOM     14  H9  <0> d           0.512  -0.356  -0.895  0.00  0.00     0.032 H 
ENDBRANCH   3  11
BRANCH   3  15
ATOM     15  C8  <0> d           1.418   2.052  -0.001  0.00  0.00    -0.044 C 
ATOM     16  H10 <0> d           1.927   1.699  -0.897  0.00  0.00     0.032 H 
ATOM     17  H11 <0> d           1.406   3.142   0.005  0.00  0.00     0.032 H 
ATOM     18  H12 <0> d           1.944   1.689   0.883  0.00  0.00     0.032 H 
ENDBRANCH   3  15
BRANCH   1  19
ATOM     19  C1  <0> d          -2.560   2.947  -2.496  0.00  0.00    -0.054 C 
ATOM     20  H1  <0> d          -3.093   2.110  -2.947  0.00  0.00     0.033 H 
ATOM     21  H2  <0> d          -3.257   3.763  -2.309  0.00  0.00     0.033 H 
ATOM     22  H3  <0> d          -1.777   3.286  -3.175  0.00  0.00     0.033 H 
ENDBRANCH   1  19
TORSDOF 3
