REMARK  1 active torsions:
REMARK  status: ('A' for Active; 'I' for Inactive)
REMARK    1  A    between atoms: C1_1  and  C2_2 
ROOT
ATOM      1  C2  <0> d           1.417   1.991  -0.001  0.00  0.00     0.036 C 
ATOM      2  H1  <0> d           1.421   3.064  -0.243  0.00  0.00     0.056 H 
ATOM      3  C3  <0> d          -0.018   1.460   0.010  0.00  0.00     0.008 C 
ATOM      4  N1  <0> d           0.002  -0.004   0.002  0.00  0.00    -0.342 N 
ATOM      5  C4  <0> d           0.939  -0.678  -0.685  0.00  0.00     0.322 C 
ATOM      6  O1  <0> d           0.866  -1.889  -0.756  0.00  0.00    -0.247 OA
ATOM      7  N2  <0> d           1.954  -0.045  -1.296  0.00  0.00    -0.279 N 
ATOM      8  C5  <0> d           2.211   1.252  -1.049  0.00  0.00     0.231 C 
ATOM      9  O2  <0> d           3.080   1.827  -1.669  0.00  0.00    -0.273 OA
ATOM     10  H5  <0> d          -0.533   1.814   0.915  0.00  0.00     0.065 H 
ATOM     11  H6  <0> d          -0.550   1.824  -0.881  0.00  0.00     0.065 H 
ATOM     12  H7  <0> d          -0.757  -0.568   0.564  0.00  0.00     0.164 HD
ATOM     13  H8  <0> d           2.591  -0.589  -2.010  0.00  0.00     0.173 HD
ENDROOT
BRANCH   1  14
ATOM     14  C1  <0> d           2.055   1.770   1.373  0.00  0.00    -0.063 C 
ATOM     15  H2  <0> d           1.475   2.309   2.137  0.00  0.00     0.028 H 
ATOM     16  H3  <0> d           3.088   2.147   1.362  0.00  0.00     0.028 H 
ATOM     17  H4  <0> d           2.059   0.695   1.607  0.00  0.00     0.028 H 
ENDBRANCH   1  14
TORSDOF 1
