REMARK  5 active torsions:
REMARK  status: ('A' for Active; 'I' for Inactive)
REMARK    1  A    between atoms: C1_1  and  C2_2 
REMARK    2  A    between atoms: C2_2  and  N1_3 
REMARK    3  A    between atoms: N1_3  and  C3_4 
REMARK    4  A    between atoms: C4_5  and  C10_11 
REMARK    5  A    between atoms: C8_9  and  C9_10 
ROOT
ATOM      1  C3  <0> d          -0.017   1.393   0.010  0.00  0.00     0.040 A 
ATOM      2  C4  <0> d          -1.228   2.072   0.019  0.00  0.00    -0.035 A 
ATOM      3  C5  <0> d          -1.243   3.453   0.031  0.00  0.00    -0.075 A 
ATOM      4  C6  <0> d          -0.054   4.159   0.024  0.00  0.00    -0.082 A 
ATOM      5  C7  <0> d           1.153   3.486   0.009  0.00  0.00    -0.075 A 
ATOM      6  C8  <0> d           1.176   2.105   0.002  0.00  0.00    -0.035 A 
ATOM      7  H7  <0> d          -2.185   3.982   0.042  0.00  0.00     0.084 H 
ATOM      8  H8  <0> d          -0.069   5.239   0.029  0.00  0.00     0.083 H 
ATOM      9  H9  <0> d           2.080   4.040   0.004  0.00  0.00     0.084 H 
ENDROOT
BRANCH   1  10
ATOM     10  N1  <0> d           0.002  -0.004   0.002  0.00  0.00    -0.389 N 
ATOM     11  H6  <0> d           0.432  -0.686  -0.746  0.00  0.00     0.159 HD
BRANCH  10  12
ATOM     12  C2  <0> d          -0.665  -0.546   1.193  0.00  0.00    -0.011 C 
ATOM     13  H4  <0> d          -1.712  -0.208   1.213  0.00  0.00     0.063 H 
ATOM     14  H5  <0> d          -0.148  -0.191   2.097  0.00  0.00     0.063 H 
BRANCH  12  15
ATOM     15  C1  <0> d          -0.624  -2.075   1.149  0.00  0.00    -0.061 C 
ATOM     16  H1  <0> d          -1.124  -2.481   2.041  0.00  0.00     0.029 H 
ATOM     17  H2  <0> d           0.422  -2.413   1.129  0.00  0.00     0.029 H 
ATOM     18  H3  <0> d          -1.142  -2.430   0.246  0.00  0.00     0.029 H 
ENDBRANCH  12  15
ENDBRANCH  10  12
ENDBRANCH   1  10
BRANCH   6  19
ATOM     19  C9  <0> d           2.492   1.372  -0.013  0.00  0.00    -0.049 C 
ATOM     20  H10 <0> d           3.317   2.100  -0.018  0.00  0.00     0.033 H 
ATOM     21  H11 <0> d           2.552   0.745  -0.915  0.00  0.00     0.033 H 
ATOM     22  H12 <0> d           2.568   0.736   0.881  0.00  0.00     0.033 H 
ENDBRANCH   6  19
BRANCH   2  23
ATOM     23  C10 <0> d          -2.525   1.304   0.021  0.00  0.00    -0.049 C 
ATOM     24  H13 <0> d          -3.369   2.009   0.029  0.00  0.00     0.033 H 
ATOM     25  H14 <0> d          -2.571   0.666   0.917  0.00  0.00     0.033 H 
ATOM     26  H15 <0> d          -2.580   0.675  -0.880  0.00  0.00     0.033 H 
ENDBRANCH   2  23
TORSDOF 5
