REMARK  2 active torsions:
REMARK  status: ('A' for Active; 'I' for Inactive)
REMARK    1  A    between atoms: C1_1  and  C2_2 
REMARK    2  A    between atoms: C3_3  and  C5_7 
ROOT
ATOM      1  C2  <0> d           1.135  -0.676  -0.012  0.00  0.00     0.043 A 
ATOM      2  C3  <0> d           2.299   0.023  -0.020  0.00  0.00     0.004 A 
ATOM      3  S1  <0> d           1.677   1.698  -0.005  0.00  0.00    -0.086 SA
ATOM      4  C4  <0> d          -0.016   1.309   0.009  0.00  0.00     0.040 A 
ATOM      5  N1  <0> d           0.002  -0.004   0.002  0.00  0.00    -0.258 NA
ATOM      6  H4  <0> d          -0.865   1.976   0.017  0.00  0.00     0.126 H 
ENDROOT
BRANCH   1   7
ATOM      7  C1  <0> d           1.138  -2.183  -0.020  0.00  0.00    -0.035 C 
ATOM      8  H1  <0> d           1.129  -2.541  -1.050  0.00  0.00     0.035 H 
ATOM      9  H2  <0> d           2.034  -2.546   0.484  0.00  0.00     0.035 H 
ATOM     10  H3  <0> d           0.254  -2.551   0.500  0.00  0.00     0.035 H 
ENDBRANCH   1   7
BRANCH   2  11
ATOM     11  C5  <0> d           3.720  -0.476  -0.036  0.00  0.00    -0.043 C 
ATOM     12  H5  <0> d           4.053  -0.591  -1.067  0.00  0.00     0.034 H 
ATOM     13  H6  <0> d           4.363   0.240   0.476  0.00  0.00     0.034 H 
ATOM     14  H7  <0> d           3.773  -1.439   0.472  0.00  0.00     0.034 H 
ENDBRANCH   2  11
TORSDOF 2
