REMARK  5 active torsions:
REMARK  status: ('A' for Active; 'I' for Inactive)
REMARK    1  A    between atoms: C2_2  and  C3_3 
REMARK    2  A    between atoms: C3_3  and  C4_5 
REMARK    3  A    between atoms: C3_3  and  O2_10 
REMARK    4  A    between atoms: C4_5  and  C5_7 
REMARK    5  A    between atoms: C4_5  and  O1_9 
ROOT
ATOM      1  C3  <0> d          -0.019   1.526   0.010  0.00  0.00     0.079 C 
ATOM      2  H1  <0> d           1.004   1.903   0.003  0.00  0.00     0.093 H 
ENDROOT
BRANCH   1   3
ATOM      3  C2  <0> d          -0.724   2.012   1.250  0.00  0.00    -0.082 C 
ATOM      4  C1  <0> d          -0.089   2.769   2.111  0.00  0.00    -0.122 C 
ATOM      5  H3  <0> d          -0.595   3.117   2.999  0.00  0.00     0.066 H 
ATOM      6  H4  <0> d           0.939   3.045   1.931  0.00  0.00     0.066 H 
ATOM      7  H5  <0> d          -1.753   1.736   1.430  0.00  0.00     0.079 H 
ENDBRANCH   1   3
BRANCH   1   8
ATOM      8  C4  <0> d           0.002  -0.004   0.002  0.00  0.00     0.079 C 
ATOM      9  H2  <0> d           0.604  -0.364   0.836  0.00  0.00     0.093 H 
BRANCH   8  10
ATOM     10  C5  <0> d           0.597  -0.491  -1.294  0.00  0.00    -0.082 C 
ATOM     11  C6  <0> d           1.679  -1.230  -1.281  0.00  0.00    -0.122 C 
ATOM     12  H7  <0> d           2.105  -1.579  -2.210  0.00  0.00     0.066 H 
ATOM     13  H8  <0> d           2.144  -1.490  -0.342  0.00  0.00     0.066 H 
ATOM     14  H6  <0> d           0.131  -0.232  -2.233  0.00  0.00     0.079 H 
ENDBRANCH   8  10
BRANCH   8  15
ATOM     15  O1  <0> d          -1.332  -0.499   0.130  0.00  0.00    -0.389 OA
ATOM     16  H9  <0> d          -1.926  -0.218  -0.580  0.00  0.00     0.210 HD
ENDBRANCH   8  15
ENDBRANCH   1   8
BRANCH   1  17
ATOM     17  O2  <0> d          -0.710   1.999  -1.147  0.00  0.00    -0.389 OA
ATOM     18  H10 <0> d          -1.628   1.702  -1.206  0.00  0.00     0.210 HD
ENDBRANCH   1  17
TORSDOF 5
