REMARK  2 active torsions:
REMARK  status: ('A' for Active; 'I' for Inactive)
REMARK    1  A    between atoms: C1_1  and  C2_2 
REMARK    2  A    between atoms: C2_2  and  C3_3 
ROOT
ATOM      1  C3  <0> d          -1.433  -0.534   0.013  0.00  0.00    -0.053 C 
ATOM      2  H1  <0> d          -1.972  -0.093  -0.826  0.00  0.00     0.040 H 
ATOM      3  C4  <0> d          -2.102  -0.094   1.303  0.00  0.00    -0.054 C 
ATOM      4  C5  <0> d          -3.596  -0.428   1.280  0.00  0.00     0.009 C 
ATOM      5  C6  <0> d          -3.775  -1.861   1.736  0.00  0.00     0.217 C 
ATOM      6  O1  <0> d          -4.265  -2.093   2.820  0.00  0.00    -0.274 OA
ATOM      7  N1  <0> d          -3.396  -2.868   0.948  0.00  0.00    -0.361 N 
ATOM      8  C7  <0> d          -2.806  -2.599  -0.374  0.00  0.00    -0.004 C 
ATOM      9  C8  <0> d          -1.395  -2.040  -0.172  0.00  0.00    -0.047 C 
ATOM     10  H7  <0> d          -1.633  -0.606   2.143  0.00  0.00     0.034 H 
ATOM     11  H8  <0> d          -1.976   0.982   1.424  0.00  0.00     0.034 H 
ATOM     12  H9  <0> d          -4.131   0.241   1.954  0.00  0.00     0.047 H 
ATOM     13  H10 <0> d          -3.981  -0.315   0.266  0.00  0.00     0.047 H 
ATOM     14  H11 <0> d          -3.510  -3.783   1.248  0.00  0.00     0.162 HD
ATOM     15  H12 <0> d          -2.755  -3.525  -0.947  0.00  0.00     0.064 H 
ATOM     16  H13 <0> d          -3.417  -1.871  -0.906  0.00  0.00     0.064 H 
ATOM     17  H14 <0> d          -0.789  -2.278  -1.046  0.00  0.00     0.035 H 
ATOM     18  H15 <0> d          -0.948  -2.498   0.709  0.00  0.00     0.035 H 
ENDROOT
BRANCH   1  19
ATOM     19  C2  <0> d           0.002  -0.004   0.002  0.00  0.00    -0.065 C 
ATOM     20  H5  <0> d           0.512  -0.356  -0.895  0.00  0.00     0.033 H 
ATOM     21  H6  <0> d           0.529  -0.365   0.885  0.00  0.00     0.033 H 
BRANCH  19  22
ATOM     22  C1  <0> d          -0.019   1.526   0.010  0.00  0.00    -0.076 C 
ATOM     23  H2  <0> d           1.004   1.903   0.003  0.00  0.00     0.027 H 
ATOM     24  H3  <0> d          -0.546   1.887  -0.873  0.00  0.00     0.027 H 
ATOM     25  H4  <0> d          -0.529   1.877   0.907  0.00  0.00     0.027 H 
ENDBRANCH  19  22
ENDBRANCH   1  19
TORSDOF 2
