REMARK  2 active torsions:
REMARK  status: ('A' for Active; 'I' for Inactive)
REMARK    1  A    between atoms: C2_2  and  C6_8 
REMARK    2  A    between atoms: C4_5  and  C5_6 
ROOT
ATOM      1  C1  <0> d           0.606   3.229   0.013  0.00  0.00    -0.025 A 
ATOM      2  C2  <0> d           1.095   1.898   0.002  0.00  0.00     0.066 A 
ATOM      3  C3  <0> d          -0.013   1.076   0.008  0.00  0.00     0.036 A 
ATOM      4  O1  <0> d          -1.105   1.842   0.017  0.00  0.00    -0.315 OA
ATOM      5  C4  <0> d          -0.753   3.144   0.025  0.00  0.00     0.152 A 
ATOM      6  H1  <0> d           1.196   4.133   0.011  0.00  0.00     0.089 H 
ATOM      7  H2  <0> d           0.002  -0.004   0.002  0.00  0.00     0.125 H 
ENDROOT
BRANCH   2   8
ATOM      8  C6  <0> d           2.506   1.477  -0.013  0.00  0.00     0.211 C 
ATOM      9  O3  <0> d           3.390   2.312  -0.018  0.00  0.00    -0.644 OA
ATOM     10  O5  <0> d           2.818   0.166  -0.022  0.00  0.00    -0.644 OA
ENDBRANCH   2   8
BRANCH   5  11
ATOM     11  C5  <0> d          -1.679   4.280   0.038  0.00  0.00     0.234 C 
ATOM     12  O2  <0> d          -1.247   5.417   0.040  0.00  0.00    -0.642 OA
ATOM     13  O4  <0> d          -3.010   4.065   0.050  0.00  0.00    -0.642 OA
ENDBRANCH   5  11
TORSDOF 2
