REMARK  3 active torsions:
REMARK  status: ('A' for Active; 'I' for Inactive)
REMARK    1  A    between atoms: C1_1  and  O1_2 
REMARK    2  A    between atoms: O1_2  and  C2_3 
REMARK    3  A    between atoms: C2_3  and  C3_5 
ROOT
ATOM      1  C3  <0> d           1.430   2.031  -0.001  0.00  0.00     0.034 C 
ATOM      2  H1  <0> d           1.990   1.554   0.803  0.00  0.00     0.056 H 
ATOM      3  C4  <0> d          -0.019   1.526   0.010  0.00  0.00    -0.050 C 
ATOM      4  C5  <0> d           0.002  -0.004   0.002  0.00  0.00    -0.049 C 
ATOM      5  C6  <0> d           0.915  -0.503  -1.080  0.00  0.00    -0.106 C 
ATOM      6  C7  <0> d           1.812   0.225  -1.664  0.00  0.00    -0.106 C 
ATOM      7  C8  <0> d           2.057   1.672  -1.350  0.00  0.00    -0.038 C 
ATOM      8  H5  <0> d          -0.540   1.890  -0.875  0.00  0.00     0.034 H 
ATOM      9  H6  <0> d          -0.523   1.881   0.909  0.00  0.00     0.034 H 
ATOM     10  H7  <0> d           0.355  -0.366   0.968  0.00  0.00     0.038 H 
ATOM     11  H8  <0> d          -1.006  -0.378  -0.178  0.00  0.00     0.038 H 
ATOM     12  H9  <0> d           0.817  -1.532  -1.390  0.00  0.00     0.076 H 
ATOM     13  H10 <0> d           2.421  -0.238  -2.426  0.00  0.00     0.076 H 
ATOM     14  H11 <0> d           3.131   1.856  -1.309  0.00  0.00     0.040 H 
ATOM     15  H12 <0> d           1.615   2.291  -2.130  0.00  0.00     0.040 H 
ENDROOT
BRANCH   1  16
ATOM     16  C2  <0> d           1.446   3.527   0.183  0.00  0.00     0.262 C 
ATOM     17  O2  <0> d           0.408   4.131   0.310  0.00  0.00    -0.265 OA
BRANCH  16  18
ATOM     18  O1  <0> d           2.615   4.187   0.205  0.00  0.00    -0.326 OA
BRANCH  18  19
ATOM     19  C1  <0> d           2.554   5.627   0.386  0.00  0.00     0.013 C 
ATOM     20  H2  <0> d           1.982   6.072  -0.428  0.00  0.00     0.067 H 
ATOM     21  H3  <0> d           2.071   5.854   1.337  0.00  0.00     0.067 H 
ATOM     22  H4  <0> d           3.565   6.035   0.385  0.00  0.00     0.067 H 
ENDBRANCH  18  19
ENDBRANCH  16  18
ENDBRANCH   1  16
TORSDOF 3
