REMARK  1 active torsions:
REMARK  status: ('A' for Active; 'I' for Inactive)
REMARK    1  A    between atoms: C1_1  and  C2_2 
ROOT
ATOM      1  C2  <0> d          -1.195   1.731   0.017  0.00  0.00    -0.044 A 
ATOM      2  C3  <0> d          -1.226   3.134   0.031  0.00  0.00    -0.072 A 
ATOM      3  C4  <0> d          -0.059   3.834   0.023  0.00  0.00    -0.034 A 
ATOM      4  C5  <0> d           1.161   3.135   0.008  0.00  0.00     0.175 A 
ATOM      5  N1  <0> d           2.432   3.512  -0.002  0.00  0.00    -0.109 NA
ATOM      6  N2  <0> d           3.201   2.481  -0.015  0.00  0.00    -0.022 NA
ATOM      7  N3  <0> d           2.509   1.393  -0.014  0.00  0.00    -0.040 NA
ATOM      8  N4  <0> d           1.158   1.766   0.001  0.00  0.00    -0.205 N 
ATOM      9  C6  <0> d          -0.013   1.076   0.008  0.00  0.00     0.013 A 
ATOM     10  H4  <0> d          -2.172   3.655   0.042  0.00  0.00     0.084 H 
ATOM     11  H5  <0> d          -0.069   4.914   0.029  0.00  0.00     0.089 H 
ATOM     12  H6  <0> d           0.002  -0.004   0.002  0.00  0.00     0.115 H 
ENDROOT
BRANCH   1  13
ATOM     13  C1  <0> d          -2.485   0.951   0.019  0.00  0.00    -0.050 C 
ATOM     14  H1  <0> d          -2.791   0.758   1.047  0.00  0.00     0.033 H 
ATOM     15  H2  <0> d          -3.258   1.528  -0.488  0.00  0.00     0.033 H 
ATOM     16  H3  <0> d          -2.338   0.004  -0.501  0.00  0.00     0.033 H 
ENDBRANCH   1  13
TORSDOF 1
