REMARK  3 active torsions:
REMARK  status: ('A' for Active; 'I' for Inactive)
REMARK    1  A    between atoms: C1_1  and  O1_2 
REMARK    2  A    between atoms: O1_2  and  C2_3 
REMARK    3  A    between atoms: C7_8  and  O2_9 
ROOT
ATOM      1  C2  <0> d           1.156   3.176   0.008  0.00  0.00     0.102 A 
ATOM      2  C3  <0> d          -0.056   3.847   0.023  0.00  0.00    -0.027 A 
ATOM      3  C4  <0> d          -1.241   3.134   0.031  0.00  0.00     0.036 A 
ATOM      4  C5  <0> d          -1.219   1.751   0.017  0.00  0.00    -0.059 A 
ATOM      5  C6  <0> d          -0.013   1.076   0.008  0.00  0.00    -0.047 A 
ATOM      6  C7  <0> d           1.178   1.785   0.000  0.00  0.00     0.099 A 
ATOM      7 Cl1  <0> d          -2.759   3.976   0.049  0.00  0.00    -0.084 Cl
ATOM      8  H4  <0> d          -0.075   4.927   0.029  0.00  0.00     0.090 H 
ATOM      9  H5  <0> d          -2.146   1.197   0.018  0.00  0.00     0.086 H 
ATOM     10  H6  <0> d           0.002  -0.004   0.002  0.00  0.00     0.087 H 
ENDROOT
BRANCH   1  11
ATOM     11  O1  <0> d           2.322   3.876   0.001  0.00  0.00    -0.353 OA
BRANCH  11  12
ATOM     12  C1  <0> d           2.224   5.301   0.010  0.00  0.00     0.010 C 
ATOM     13  H1  <0> d           3.224   5.735   0.003  0.00  0.00     0.066 H 
ATOM     14  H2  <0> d           1.678   5.633  -0.874  0.00  0.00     0.066 H 
ATOM     15  H3  <0> d           1.694   5.623   0.906  0.00  0.00     0.066 H 
ENDBRANCH  11  12
ENDBRANCH   1  11
BRANCH   6  16
ATOM     16  O2  <0> d           2.365   1.122  -0.015  0.00  0.00    -0.358 OA
ATOM     17  H7  <0> d           2.700   0.935  -0.903  0.00  0.00     0.217 HD
ENDBRANCH   6  16
TORSDOF 3
