REMARK  1 active torsions:
REMARK  status: ('A' for Active; 'I' for Inactive)
REMARK    1  A    between atoms: C1_1  and  N1_2 
ROOT
ATOM      1  N1  <0> d          -0.789   1.606  -1.139  0.00  0.00    -0.286 NA
ATOM      2  C2  <0> d          -0.013   1.086   0.008  0.00  0.00    -0.013 C 
ATOM      3  C3  <0> d          -0.802   1.617   1.228  0.00  0.00    -0.027 C 
ATOM      4  C4  <0> d          -1.501   2.837   0.665  0.00  0.00    -0.015 A 
ATOM      5  C5  <0> d          -1.441   2.764  -0.727  0.00  0.00     0.037 A 
ATOM      6  C6  <0> d          -2.016   3.812  -1.448  0.00  0.00     0.045 A 
ATOM      7  N2  <0> d          -2.588   4.809  -0.802  0.00  0.00    -0.161 NA
ATOM      8  N3  <0> d          -2.643   4.863   0.478  0.00  0.00    -0.162 NA
ATOM      9  C7  <0> d          -2.123   3.919   1.246  0.00  0.00     0.032 A 
ATOM     10  H4  <0> d           0.002  -0.004   0.002  0.00  0.00     0.056 H 
ATOM     11  H5  <0> d           1.002   1.484   0.001  0.00  0.00     0.056 H 
ATOM     12  H6  <0> d          -1.528   0.879   1.569  0.00  0.00     0.042 H 
ATOM     13  H7  <0> d          -0.124   1.894   2.035  0.00  0.00     0.042 H 
ATOM     14  H8  <0> d          -1.992   3.806  -2.527  0.00  0.00     0.120 H 
ATOM     15  H9  <0> d          -2.187   3.997   2.322  0.00  0.00     0.118 H 
ENDROOT
BRANCH   1  16
ATOM     16  C1  <0> d           0.085   1.875  -2.289  0.00  0.00    -0.029 C 
ATOM     17  H1  <0> d           0.581   0.953  -2.592  0.00  0.00     0.048 H 
ATOM     18  H2  <0> d          -0.511   2.257  -3.118  0.00  0.00     0.048 H 
ATOM     19  H3  <0> d           0.835   2.616  -2.009  0.00  0.00     0.048 H 
ENDBRANCH   1  16
TORSDOF 1
