REMARK  1 active torsions:
REMARK  status: ('A' for Active; 'I' for Inactive)
REMARK    1  A    between atoms: C4_5  and  C6_7 
ROOT
ATOM      1  C1  <0> d           0.002  -0.004   0.002  0.00  0.00    -0.079 A 
ATOM      2  C2  <0> d          -0.017   1.385   0.010  0.00  0.00    -0.066 A 
ATOM      3  C3  <0> d           1.178   2.080   0.002  0.00  0.00     0.003 A 
ATOM      4  N1  <0> d           2.332   1.443  -0.013  0.00  0.00    -0.258 NA
ATOM      5  C4  <0> d           2.394   0.116  -0.020  0.00  0.00     0.091 A 
ATOM      6  C5  <0> d           1.226  -0.648  -0.013  0.00  0.00    -0.052 A 
ATOM      7  H1  <0> d          -0.919  -0.569   0.007  0.00  0.00     0.083 H 
ATOM      8  H2  <0> d          -0.957   1.917   0.017  0.00  0.00     0.085 H 
ATOM      9  H3  <0> d           1.165   3.160   0.007  0.00  0.00     0.114 H 
ATOM     10  H4  <0> d           1.277  -1.727  -0.019  0.00  0.00     0.087 H 
ENDROOT
BRANCH   5  11
ATOM     11  C6  <0> d           3.709  -0.556  -0.036  0.00  0.00     0.123 A 
ATOM     12  O1  <0> d           3.933  -1.888  -0.039  0.00  0.00    -0.300 OA
ATOM     13  C8  <0> d           5.259  -2.079  -0.058  0.00  0.00     0.103 A 
ATOM     14  N2  <0> d           5.856  -0.919  -0.058  0.00  0.00    -0.246 NA
ATOM     15  H6  <0> d           5.754  -3.038  -0.068  0.00  0.00     0.155 H 
ATOM     16  C7  <0> d           4.927   0.048  -0.044  0.00  0.00     0.039 A 
ATOM     17  H5  <0> d           5.112   1.111  -0.040  0.00  0.00     0.119 H 
ENDBRANCH   5  11
TORSDOF 1
