REMARK  2 active torsions:
REMARK  status: ('A' for Active; 'I' for Inactive)
REMARK    1  A    between atoms: C1_1  and  C2_2 
REMARK    2  A    between atoms: C3_3  and  N2_7 
ROOT
ATOM      1  C2  <0> d           1.212   1.990   0.001  0.00  0.00     0.066 A 
ATOM      2  C3  <0> d          -0.016   1.359   0.009  0.00  0.00     0.059 A 
ATOM      3  C4  <0> d           0.002  -0.004   0.002  0.00  0.00     0.000 A 
ATOM      4  S1  <0> d           1.701  -0.345  -0.016  0.00  0.00     0.002 SA
ATOM      5  N1  <0> d           2.298   1.256  -0.013  0.00  0.00    -0.215 NA
ATOM      6  H4  <0> d          -0.829  -0.694   0.007  0.00  0.00     0.100 H 
ENDROOT
BRANCH   1   7
ATOM      7  C1  <0> d           1.303   3.494   0.008  0.00  0.00    -0.033 C 
ATOM      8  H1  <0> d           0.290   3.923   0.020  0.00  0.00     0.035 H 
ATOM      9  H2  <0> d           1.834   3.834  -0.893  0.00  0.00     0.035 H 
ATOM     10  H3  <0> d           1.851   3.824   0.903  0.00  0.00     0.035 H 
ENDBRANCH   1   7
BRANCH   2  11
ATOM     11  N2  <0> d          -1.223   2.085   0.019  0.00  0.00    -0.397 N 
ATOM     12  H5  <0> d          -2.185   1.552   0.026  0.00  0.00     0.156 HD
ATOM     13  H6  <0> d          -1.203   3.185   0.021  0.00  0.00     0.156 HD
ENDBRANCH   2  11
TORSDOF 2
