REMARK  3 active torsions:
REMARK  status: ('A' for Active; 'I' for Inactive)
REMARK    1  A    between atoms: C1_1  and  N1_2 
REMARK    2  A    between atoms: C5_6  and  C6_7 
REMARK    3  A    between atoms: C6_7  and  C7_9 
ROOT
ATOM      1  C7  <0> d          -0.013   1.086   0.008  0.00  0.00     0.075 C 
ATOM      2  C8  <0> d          -0.725   1.573  -1.185  0.00  0.00     0.067 C 
ATOM      3  N2  <0> d          -1.274   1.950  -2.105  0.00  0.00    -0.197 NA
ATOM      4  H7  <0> d           0.001   0.086   0.003  0.00  0.00     0.067 H 
ATOM      5  H8  <0> d           1.010   1.463   0.000  0.00  0.00     0.067 H 
ENDROOT
BRANCH   1   6
ATOM      6  C6  <0> d          -0.718   1.572   1.248  0.00  0.00     0.188 C 
ATOM      7  O1  <0> d          -1.716   2.257   1.150  0.00  0.00    -0.290 OA
BRANCH   6   8
ATOM      8  C5  <0> d          -0.218   1.230   2.525  0.00  0.00     0.081 A 
ATOM      9  N1  <0> d          -0.754   1.606   3.739  0.00  0.00    -0.358 N 
ATOM     10  C2  <0> d           0.001   1.082   4.726  0.00  0.00    -0.020 A 
ATOM     11  C3  <0> d           1.023   0.380   4.176  0.00  0.00    -0.066 A 
ATOM     12  H4  <0> d          -0.177   1.205   5.784  0.00  0.00     0.111 H 
ATOM     13  C4  <0> d           0.902   0.461   2.788  0.00  0.00    -0.052 A 
ATOM     14  H5  <0> d           1.794  -0.149   4.717  0.00  0.00     0.085 H 
ATOM     15  H6  <0> d           1.558   0.010   2.058  0.00  0.00     0.087 H 
BRANCH   9  16
ATOM     16  C1  <0> d          -1.948   2.435   3.925  0.00  0.00    -0.014 C 
ATOM     17  H1  <0> d          -2.829   1.796   3.975  0.00  0.00     0.057 H 
ATOM     18  H2  <0> d          -1.856   3.000   4.853  0.00  0.00     0.057 H 
ATOM     19  H3  <0> d          -2.045   3.125   3.087  0.00  0.00     0.057 H 
ENDBRANCH   9  16
ENDBRANCH   6   8
ENDBRANCH   1   6
TORSDOF 3
