REMARK  0 active torsions:
REMARK  status: ('A' for Active; 'I' for Inactive)
ROOT
ATOM      1  C1  <0> d          -1.125   1.764   0.016  0.00  0.00    -0.004 A 
ATOM      2  C2  <0> d          -0.691   3.038   0.024  0.00  0.00     0.020 A 
ATOM      3  N1  <0> d           0.651   3.021   0.011  0.00  0.00    -0.235 NA
ATOM      4  C3  <0> d           1.065   1.782   0.002  0.00  0.00     0.175 A 
ATOM      5  N2  <0> d          -0.011   0.966   0.007  0.00  0.00    -0.344 N 
ATOM      6  H1  <0> d           0.003  -0.034   0.006  0.00  0.00     0.167 HD
ATOM      7 Br1  <0> d           2.872   1.225  -0.017  0.00  0.00    -0.009 Br
ATOM      8  H2  <0> d          -2.153   1.434   0.019  0.00  0.00     0.113 H 
ATOM      9  H3  <0> d          -1.314   3.920   0.033  0.00  0.00     0.117 H 
ENDROOT
TORSDOF 0
