REMARK  3 active torsions:
REMARK  status: ('A' for Active; 'I' for Inactive)
REMARK    1  A    between atoms: C1_1  and  C2_2 
REMARK    2  A    between atoms: C3_3  and  C6_8 
REMARK    3  A    between atoms: C4_5  and  C5_7 
ROOT
ATOM      1  C2  <0> d          -2.493   1.253   0.021  0.00  0.00     0.016 A 
ATOM      2  C3  <0> d          -1.298   1.929   0.019  0.00  0.00     0.146 A 
ATOM      3  N1  <0> d          -1.345   3.263   0.032  0.00  0.00    -0.238 NA
ATOM      4  C4  <0> d          -2.500   3.876   0.036  0.00  0.00     0.072 A 
ATOM      5  S1  <0> d          -3.632   2.562   0.034  0.00  0.00    -0.077 SA
ENDROOT
BRANCH   1   6
ATOM      6  C1  <0> d          -2.747  -0.232   0.013  0.00  0.00    -0.043 C 
ATOM      7  H1  <0> d          -2.803  -0.597   1.039  0.00  0.00     0.034 H 
ATOM      8  H2  <0> d          -3.688  -0.437  -0.497  0.00  0.00     0.034 H 
ATOM      9  H3  <0> d          -1.933  -0.738  -0.507  0.00  0.00     0.034 H 
ENDBRANCH   1   6
BRANCH   2  10
ATOM     10  C6  <0> d          -0.014   1.211   0.009  0.00  0.00     0.230 C 
ATOM     11  O1  <0> d           0.002  -0.004   0.002  0.00  0.00    -0.643 OA
ATOM     12  O2  <0> d           1.144   1.901   0.001  0.00  0.00    -0.643 OA
ENDBRANCH   2  10
BRANCH   4  13
ATOM     13  C5  <0> d          -2.779   5.357   0.046  0.00  0.00    -0.029 C 
ATOM     14  H4  <0> d          -2.841   5.707   1.076  0.00  0.00     0.036 H 
ATOM     15  H5  <0> d          -1.974   5.881  -0.469  0.00  0.00     0.036 H 
ATOM     16  H6  <0> d          -3.724   5.552  -0.462  0.00  0.00     0.036 H 
ENDBRANCH   4  13
TORSDOF 3
