REMARK  4 active torsions:
REMARK  status: ('A' for Active; 'I' for Inactive)
REMARK    1  A    between atoms: C1_1  and  N1_2 
REMARK    2  A    between atoms: N1_2  and  C2_3 
REMARK    3  A    between atoms: N1_2  and  C3_4 
REMARK    4  A    between atoms: C4_5  and  C5_6 
ROOT
ATOM      1  N1  <0> d           0.002  -0.004   0.002  0.00  0.00    -0.252 NA
ENDROOT
BRANCH   1   2
ATOM      2  C1  <0> d          -0.018   1.465   0.010  0.00  0.00    -0.022 C 
ATOM      3  H1  <0> d           1.005   1.842   0.002  0.00  0.00     0.049 H 
ATOM      4  H2  <0> d          -0.545   1.826  -0.873  0.00  0.00     0.049 H 
ATOM      5  H3  <0> d          -0.528   1.816   0.907  0.00  0.00     0.049 H 
ENDBRANCH   1   2
BRANCH   1   6
ATOM      6  C2  <0> d           0.786  -0.526   1.129  0.00  0.00    -0.022 C 
ATOM      7  H4  <0> d           0.344  -0.188   2.067  0.00  0.00     0.049 H 
ATOM      8  H5  <0> d           0.784  -1.616   1.099  0.00  0.00     0.049 H 
ATOM      9  H6  <0> d           1.811  -0.162   1.059  0.00  0.00     0.049 H 
ENDBRANCH   1   6
BRANCH   1  10
ATOM     10  C3  <0> d          -1.326  -0.535   0.012  0.00  0.00    -0.013 C 
ATOM     11  C4  <0> d          -2.416  -0.970   0.020  0.00  0.00    -0.062 C 
BRANCH  11  12
ATOM     12  C5  <0> d          -3.746  -1.502   0.030  0.00  0.00    -0.041 C 
ATOM     13  C6  <0> d          -3.936  -2.819   0.025  0.00  0.00    -0.114 C 
ATOM     14  H8  <0> d          -3.088  -3.487   0.013  0.00  0.00     0.067 H 
ATOM     15  H9  <0> d          -4.939  -3.220   0.032  0.00  0.00     0.067 H 
ATOM     16  H7  <0> d          -4.594  -0.833   0.041  0.00  0.00     0.096 H 
ENDBRANCH  11  12
ENDBRANCH   1  10
TORSDOF 4
