REMARK  1 active torsions:
REMARK  status: ('A' for Active; 'I' for Inactive)
REMARK    1  A    between atoms: C1_1  and  C2_2 
ROOT
ATOM      1  C2  <0> d           0.002  -0.004   0.002  0.00  0.00     0.235 A 
ATOM      2  H1  <0> d           0.500  -0.361  -0.899  0.00  0.00     0.126 H 
ATOM      3  N1  <0> d          -1.367  -0.517   0.046  0.00  0.00    -0.327 N 
ATOM      4  C3  <0> d          -1.547  -1.271   1.146  0.00  0.00     0.261 A 
ATOM      5  O1  <0> d          -2.577  -1.831   1.456  0.00  0.00    -0.270 OA
ATOM      6  C4  <0> d          -0.264  -1.305   1.927  0.00  0.00     0.277 A 
ATOM      7  N2  <0> d           0.712  -0.498   1.190  0.00  0.00     0.349 N 
ATOM      8  C5  <0> d          -0.474  -0.738   3.341  0.00  0.00    -0.020 C 
ATOM      9  C6  <0> d          -0.673  -1.994   4.226  0.00  0.00    -0.062 C 
ATOM     10  C7  <0> d           0.321  -3.010   3.609  0.00  0.00    -0.062 C 
ATOM     11  C8  <0> d           0.238  -2.746   2.090  0.00  0.00    -0.020 C 
ATOM     12  H5  <0> d          -2.048  -0.340  -0.622  0.00  0.00     0.164 HD
ATOM     13  H6  <0> d           0.405  -0.179   3.663  0.00  0.00     0.037 H 
ATOM     14  H7  <0> d          -1.362  -0.105   3.370  0.00  0.00     0.037 H 
ATOM     15  H8  <0> d          -0.414  -1.781   5.263  0.00  0.00     0.033 H 
ATOM     16  H9  <0> d          -1.697  -2.361   4.151  0.00  0.00     0.033 H 
ATOM     17  H10 <0> d           1.331  -2.825   3.974  0.00  0.00     0.033 H 
ATOM     18  H11 <0> d           0.013  -4.031   3.836  0.00  0.00     0.033 H 
ATOM     19  H12 <0> d          -0.463  -3.441   1.627  0.00  0.00     0.037 H 
ATOM     20  H13 <0> d           1.224  -2.852   1.638  0.00  0.00     0.037 H 
ENDROOT
BRANCH   1  21
ATOM     21  C1  <0> d          -0.019   1.526   0.010  0.00  0.00    -0.029 C 
ATOM     22  H2  <0> d           1.004   1.903   0.003  0.00  0.00     0.033 H 
ATOM     23  H3  <0> d          -0.546   1.887  -0.873  0.00  0.00     0.033 H 
ATOM     24  H4  <0> d          -0.529   1.877   0.907  0.00  0.00     0.033 H 
ENDBRANCH   1  21
TORSDOF 1
