REMARK  0 active torsions:
REMARK  status: ('A' for Active; 'I' for Inactive)
ROOT
ATOM      1  C1  <0> d          -0.017   1.381   0.010  0.00  0.00    -0.082 A 
ATOM      2  C2  <0> d           1.169   2.092   0.002  0.00  0.00    -0.082 A 
ATOM      3  C3  <0> d           2.382   1.423  -0.013  0.00  0.00    -0.074 A 
ATOM      4  C4  <0> d           2.398   0.050  -0.021  0.00  0.00    -0.021 A 
ATOM      5  C5  <0> d           1.205  -0.665  -0.013  0.00  0.00    -0.021 A 
ATOM      6  C6  <0> d           0.002  -0.004   0.002  0.00  0.00    -0.074 A 
ATOM      7  C7  <0> d           1.608  -2.136  -0.026  0.00  0.00     0.065 C 
ATOM      8  H1  <0> d           0.859  -2.834   0.347  0.00  0.00     0.091 H 
ATOM      9  C8  <0> d           2.126  -2.408  -1.473  0.00  0.00    -0.034 C 
ATOM     10  C9  <0> d           3.456  -1.611  -1.501  0.00  0.00    -0.034 C 
ATOM     11  C10 <0> d           3.505  -0.999  -0.037  0.00  0.00     0.065 C 
ATOM     12  H2  <0> d           4.480  -0.661   0.313  0.00  0.00     0.091 H 
ATOM     13  O1  <0> d           2.868  -2.079   0.729  0.00  0.00    -0.371 OA
ATOM     14  H3  <0> d          -0.960   1.907   0.026  0.00  0.00     0.083 H 
ATOM     15  H4  <0> d           1.150   3.172   0.008  0.00  0.00     0.083 H 
ATOM     16  H5  <0> d           3.309   1.977  -0.020  0.00  0.00     0.084 H 
ATOM     17  H6  <0> d          -0.924  -0.560   0.008  0.00  0.00     0.084 H 
ATOM     18  H7  <0> d           2.308  -3.472  -1.626  0.00  0.00     0.037 H 
ATOM     19  H8  <0> d           1.426  -2.022  -2.214  0.00  0.00     0.037 H 
ATOM     20  H9  <0> d           4.304  -2.275  -1.668  0.00  0.00     0.037 H 
ATOM     21  H10 <0> d           3.422  -0.826  -2.257  0.00  0.00     0.037 H 
ENDROOT
TORSDOF 0
