REMARK  4 active torsions:
REMARK  status: ('A' for Active; 'I' for Inactive)
REMARK    1  A    between atoms: C1_1  and  C2_2 
REMARK    2  A    between atoms: C4_4  and  O2_9 
REMARK    3  A    between atoms: C6_7  and  O1_8 
REMARK    4  A    between atoms: O2_9  and  C7_10 
ROOT
ATOM      1  C2  <0> d           1.171   1.793   0.001  0.00  0.00    -0.023 A 
ATOM      2  C3  <0> d          -0.013   1.076   0.008  0.00  0.00    -0.024 A 
ATOM      3  C4  <0> d          -1.219   1.762   0.017  0.00  0.00     0.164 A 
ATOM      4  N1  <0> d          -1.245   3.084   0.030  0.00  0.00    -0.234 NA
ATOM      5  C5  <0> d          -0.136   3.799   0.023  0.00  0.00     0.037 A 
ATOM      6  C6  <0> d           1.105   3.183   0.008  0.00  0.00     0.089 A 
ATOM      7  H4  <0> d           0.002  -0.004   0.002  0.00  0.00     0.091 H 
ATOM      8  H5  <0> d          -0.196   4.878   0.028  0.00  0.00     0.119 H 
ENDROOT
BRANCH   3   9
ATOM      9  O2  <0> d          -2.386   1.068   0.019  0.00  0.00    -0.339 OA
BRANCH   9  10
ATOM     10  C7  <0> d          -3.595   1.831   0.029  0.00  0.00     0.012 C 
ATOM     11  H7  <0> d          -4.458   1.150   0.030  0.00  0.00     0.067 H 
ATOM     12  H8  <0> d          -3.632   2.470  -0.865  0.00  0.00     0.067 H 
ATOM     13  H9  <0> d          -3.623   2.461   0.931  0.00  0.00     0.067 H 
ENDBRANCH   9  10
ENDBRANCH   3   9
BRANCH   1  14
ATOM     14  C1  <0> d           2.502   1.085  -0.015  0.00  0.00    -0.048 C 
ATOM     15  H1  <0> d           2.338  -0.003  -0.019  0.00  0.00     0.033 H 
ATOM     16  H2  <0> d           3.077   1.365   0.879  0.00  0.00     0.033 H 
ATOM     17  H3  <0> d           3.061   1.375  -0.917  0.00  0.00     0.033 H 
ENDBRANCH   1  14
BRANCH   6  18
ATOM     18  O1  <0> d           2.243   3.927   0.002  0.00  0.00    -0.359 OA
ATOM     19  H6  <0> d           2.182   5.025   0.008  0.00  0.00     0.217 HD
ENDBRANCH   6  18
TORSDOF 4
