REMARK  1 active torsions:
REMARK  status: ('A' for Active; 'I' for Inactive)
REMARK    1  A    between atoms: C3_4  and  C4_6 
ROOT
ATOM      1  C1  <0> d           0.642   5.130   0.024  0.00  0.00     0.027 A 
ATOM      2  C2  <0> d           1.995   5.098   0.010  0.00  0.00     0.038 A 
ATOM      3  O1  <0> d           2.361   3.806  -0.000  0.00  0.00    -0.298 OA
ATOM      4  C3  <0> d           1.239   3.063   0.007  0.00  0.00     0.247 A 
ATOM      5  N1  <0> d           0.203   3.870   0.015  0.00  0.00    -0.229 NA
ATOM      6  H1  <0> d           0.027   6.018   0.034  0.00  0.00     0.117 H 
ATOM      7  H2  <0> d           2.656   5.951   0.008  0.00  0.00     0.125 H 
ENDROOT
BRANCH   4   8
ATOM      8  C4  <0> d           1.182   1.591  -0.001  0.00  0.00     0.254 C 
ATOM      9  O2  <0> d           2.210   0.943  -0.014  0.00  0.00    -0.641 OA
ATOM     10  O3  <0> d          -0.011   0.963   0.007  0.00  0.00    -0.641 OA
ENDBRANCH   4   8
TORSDOF 1
