REMARK  1 active torsions:
REMARK  status: ('A' for Active; 'I' for Inactive)
REMARK    1  A    between atoms: C4_5  and  C8_11 
ROOT
ATOM      1  C1  <0> d           1.383   1.810  -0.001  0.00  0.00    -0.051 C 
ATOM      2  C2  <0> d          -0.013   1.086   0.008  0.00  0.00    -0.036 C 
ATOM      3  H1  <0> d           0.002  -0.004   0.002  0.00  0.00     0.046 H 
ATOM      4  C3  <0> d          -0.696   1.775  -1.216  0.00  0.00    -0.045 C 
ATOM      5  C4  <0> d          -0.175   3.258  -1.130  0.00  0.00     0.038 C 
ATOM      6  H2  <0> d           0.398   3.524  -2.018  0.00  0.00     0.057 H 
ATOM      7  C5  <0> d           0.744   3.241   0.133  0.00  0.00    -0.025 C 
ATOM      8  H3  <0> d           1.435   4.077   0.238  0.00  0.00     0.047 H 
ATOM      9  C6  <0> d          -0.207   2.993   1.309  0.00  0.00    -0.101 C 
ATOM     10  C7  <0> d          -0.643   1.751   1.238  0.00  0.00    -0.102 C 
ATOM     11  H4  <0> d           1.997   1.545   0.859  0.00  0.00     0.035 H 
ATOM     12  H5  <0> d           1.916   1.677  -0.943  0.00  0.00     0.035 H 
ATOM     13  H6  <0> d          -0.382   1.303  -2.146  0.00  0.00     0.035 H 
ATOM     14  H7  <0> d          -1.781   1.744  -1.116  0.00  0.00     0.035 H 
ATOM     15  H8  <0> d          -0.475   3.713   2.068  0.00  0.00     0.077 H 
ATOM     16  H9  <0> d          -1.329   1.281   1.927  0.00  0.00     0.076 H 
ENDROOT
BRANCH   5  17
ATOM     17  C8  <0> d          -1.323   4.215  -0.936  0.00  0.00     0.177 C 
ATOM     18  O1  <0> d          -1.425   4.836   0.096  0.00  0.00    -0.648 OA
ATOM     19  O2  <0> d          -2.233   4.378  -1.909  0.00  0.00    -0.648 OA
ENDBRANCH   5  17
TORSDOF 1
