REMARK  2 active torsions:
REMARK  status: ('A' for Active; 'I' for Inactive)
REMARK    1  A    between atoms: C1_1  and  C2_2 
REMARK    2  A    between atoms: C5_6  and  C6_8 
ROOT
ATOM      1  C2  <0> d           2.299  -0.058  -0.020  0.00  0.00     0.035 A 
ATOM      2  C3  <0> d           2.322   1.327  -0.013  0.00  0.00    -0.020 A 
ATOM      3  C4  <0> d           1.113   2.007   0.002  0.00  0.00     0.130 A 
ATOM      4  N1  <0> d          -0.016   1.314   0.009  0.00  0.00    -0.222 NA
ATOM      5  C5  <0> d           0.002  -0.004   0.002  0.00  0.00     0.124 A 
ATOM      6  N2  <0> d           1.132  -0.683  -0.012  0.00  0.00    -0.239 NA
ATOM      7 Cl1  <0> d           1.079   3.743   0.011  0.00  0.00    -0.062 Cl
ATOM      8  H4  <0> d           3.259   1.864  -0.019  0.00  0.00     0.091 H 
ENDROOT
BRANCH   1   9
ATOM      9  C1  <0> d           3.585  -0.843  -0.036  0.00  0.00    -0.035 C 
ATOM     10  H1  <0> d           3.885  -1.027  -1.068  0.00  0.00     0.035 H 
ATOM     11  H2  <0> d           4.364  -0.276   0.473  0.00  0.00     0.035 H 
ATOM     12  H3  <0> d           3.436  -1.795   0.474  0.00  0.00     0.035 H 
ENDBRANCH   1   9
BRANCH   5  13
ATOM     13  C6  <0> d          -1.304  -0.755   0.011  0.00  0.00    -0.019 C 
ATOM     14  H5  <0> d          -1.630  -0.931  -1.014  0.00  0.00     0.037 H 
ATOM     15  H6  <0> d          -1.171  -1.711   0.518  0.00  0.00     0.037 H 
ATOM     16  H7  <0> d          -2.058  -0.168   0.535  0.00  0.00     0.037 H 
ENDBRANCH   5  13
TORSDOF 2
