REMARK  6 active torsions:
REMARK  status: ('A' for Active; 'I' for Inactive)
REMARK    1  A    between atoms: C1_1  and  C2_2 
REMARK    2  A    between atoms: C2_2  and  C3_4 
REMARK    3  A    between atoms: C2_2  and  O1_8 
REMARK    4  A    between atoms: C3_4  and  C4_5 
REMARK    5  A    between atoms: C3_4  and  C5_6 
REMARK    6  A    between atoms: C3_4  and  C6_7 
ROOT
ATOM      1  C3  <0> d          -0.729   1.579   1.267  0.00  0.00    -0.026 C 
ENDROOT
BRANCH   1   2
ATOM      2  C2  <0> d          -2.164   1.050   1.278  0.00  0.00     0.038 C 
ATOM      3  H1  <0> d          -2.691   1.411   0.395  0.00  0.00     0.083 H 
BRANCH   2   4
ATOM      4  C1  <0> d          -2.143  -0.480   1.269  0.00  0.00    -0.052 C 
ATOM      5  H2  <0> d          -1.616  -0.841   2.152  0.00  0.00     0.030 H 
ATOM      6  H3  <0> d          -3.166  -0.858   1.277  0.00  0.00     0.030 H 
ATOM      7  H4  <0> d          -1.633  -0.832   0.372  0.00  0.00     0.030 H 
ENDBRANCH   2   4
BRANCH   2   8
ATOM      8  O1  <0> d          -2.833   1.510   2.453  0.00  0.00    -0.395 OA
ATOM      9  H14 <0> d          -2.418   1.226   3.279  0.00  0.00     0.210 HD
ENDBRANCH   2   8
ENDBRANCH   1   2
BRANCH   1  10
ATOM     10  C4  <0> d          -0.013   1.086   0.008  0.00  0.00    -0.067 C 
ATOM     11  H5  <0> d           0.002  -0.004   0.002  0.00  0.00     0.028 H 
ATOM     12  H6  <0> d           1.010   1.463   0.000  0.00  0.00     0.028 H 
ATOM     13  H7  <0> d          -0.540   1.447  -0.875  0.00  0.00     0.028 H 
ENDBRANCH   1  10
BRANCH   1  14
ATOM     14  C5  <0> d           0.011   1.072   2.506  0.00  0.00    -0.067 C 
ATOM     15  H8  <0> d           1.034   1.450   2.499  0.00  0.00     0.028 H 
ATOM     16  H9  <0> d          -0.499   1.424   3.403  0.00  0.00     0.028 H 
ATOM     17  H10 <0> d           0.026  -0.018   2.500  0.00  0.00     0.028 H 
ENDBRANCH   1  14
BRANCH   1  18
ATOM     18  C6  <0> d          -0.750   3.109   1.275  0.00  0.00    -0.067 C 
ATOM     19  H11 <0> d          -1.277   3.470   0.392  0.00  0.00     0.028 H 
ATOM     20  H12 <0> d          -1.260   3.461   2.172  0.00  0.00     0.028 H 
ATOM     21  H13 <0> d           0.273   3.486   1.268  0.00  0.00     0.028 H 
ENDBRANCH   1  18
TORSDOF 6
