REMARK  1 active torsions:
REMARK  status: ('A' for Active; 'I' for Inactive)
REMARK    1  A    between atoms: C10_12  and  O1_14 
ROOT
ATOM      1  C1  <0> d           1.165   2.096   0.002  0.00  0.00    -0.082 A 
ATOM      2  C2  <0> d           2.374   1.426  -0.014  0.00  0.00    -0.082 A 
ATOM      3  C3  <0> d           2.395   0.046  -0.021  0.00  0.00    -0.074 A 
ATOM      4  C4  <0> d           1.207  -0.672  -0.014  0.00  0.00    -0.023 A 
ATOM      5  C5  <0> d           0.002  -0.004   0.002  0.00  0.00    -0.045 A 
ATOM      6  C6  <0> d          -0.017   1.384   0.010  0.00  0.00    -0.076 A 
ATOM      7  C7  <0> d          -1.146  -0.985   0.010  0.00  0.00    -0.021 A 
ATOM      8  H1  <0> d          -1.992  -0.754   0.657  0.00  0.00     0.048 H 
ATOM      9  C8  <0> d          -1.350  -1.924  -1.222  0.00  0.00    -0.051 A 
ATOM     10  C9  <0> d          -0.535  -2.392  -0.015  0.00  0.00    -0.017 A 
ATOM     11  H2  <0> d          -0.922  -3.193   0.615  0.00  0.00     0.045 H 
ATOM     12  C10 <0> d           0.983  -2.165  -0.021  0.00  0.00     0.065 A 
ATOM     13  H3  <0> d           1.428  -2.612   0.868  0.00  0.00     0.091 H 
ATOM     14  H4  <0> d           1.146   3.176   0.008  0.00  0.00     0.083 H 
ATOM     15  H5  <0> d           3.300   1.981  -0.019  0.00  0.00     0.083 H 
ATOM     16  H6  <0> d           3.339  -0.477  -0.034  0.00  0.00     0.084 H 
ATOM     17  H7  <0> d          -0.961   1.908   0.017  0.00  0.00     0.084 H 
ATOM     18  H8  <0> d          -0.806  -1.700  -2.140  0.00  0.00     0.034 H 
ATOM     19  H9  <0> d          -2.342  -2.356  -1.358  0.00  0.00     0.034 H 
ENDROOT
BRANCH  12  20
ATOM     20  O1  <0> d           1.555  -2.738  -1.198  0.00  0.00    -0.390 OA
ATOM     21  H10 <0> d           2.512  -2.616  -1.270  0.00  0.00     0.210 HD
ENDBRANCH  12  20
TORSDOF 1
