REMARK  4 active torsions:
REMARK  status: ('A' for Active; 'I' for Inactive)
REMARK    1  A    between atoms: C1_1  and  C2_2 
REMARK    2  A    between atoms: C2_2  and  C3_3 
REMARK    3  A    between atoms: C4_4  and  O1_9 
REMARK    4  A    between atoms: O1_9  and  C7_10 
ROOT
ATOM      1  C3  <0> d           2.272   1.417  -0.012  0.00  0.00     0.086 A 
ATOM      2  C4  <0> d           2.294   0.026  -0.020  0.00  0.00     0.189 A 
ATOM      3  N1  <0> d           1.155  -0.651  -0.013  0.00  0.00    -0.234 NA
ATOM      4  C5  <0> d           0.002  -0.004   0.002  0.00  0.00     0.022 A 
ATOM      5  C6  <0> d          -0.017   1.378   0.010  0.00  0.00     0.019 A 
ATOM      6  N2  <0> d           1.118   2.057   0.002  0.00  0.00    -0.260 NA
ATOM      7  H6  <0> d          -0.926  -0.556   0.008  0.00  0.00     0.117 H 
ATOM      8  H7  <0> d          -0.960   1.904   0.017  0.00  0.00     0.117 H 
ENDROOT
BRANCH   1   9
ATOM      9  C2  <0> d           3.564   2.192  -0.020  0.00  0.00    -0.024 C 
ATOM     10  H4  <0> d           3.423   3.140   0.501  0.00  0.00     0.042 H 
ATOM     11  H5  <0> d           4.338   1.613   0.484  0.00  0.00     0.042 H 
BRANCH   9  12
ATOM     12  C1  <0> d           3.988   2.463  -1.465  0.00  0.00    -0.071 C 
ATOM     13  H1  <0> d           4.129   1.516  -1.985  0.00  0.00     0.028 H 
ATOM     14  H2  <0> d           3.214   3.042  -1.968  0.00  0.00     0.028 H 
ATOM     15  H3  <0> d           4.923   3.023  -1.470  0.00  0.00     0.028 H 
ENDBRANCH   9  12
ENDBRANCH   1   9
BRANCH   2  16
ATOM     16  O1  <0> d           3.478  -0.635  -0.035  0.00  0.00    -0.338 OA
BRANCH  16  17
ATOM     17  C7  <0> d           3.424  -2.063  -0.042  0.00  0.00     0.012 C 
ATOM     18  H8  <0> d           2.906  -2.411   0.851  0.00  0.00     0.067 H 
ATOM     19  H9  <0> d           2.889  -2.402  -0.929  0.00  0.00     0.067 H 
ATOM     20  H10 <0> d           4.438  -2.465  -0.054  0.00  0.00     0.067 H 
ENDBRANCH  16  17
ENDBRANCH   2  16
TORSDOF 4
