REMARK  2 active torsions:
REMARK  status: ('A' for Active; 'I' for Inactive)
REMARK    1  A    between atoms: C2_2  and  N3_9 
REMARK    2  A    between atoms: C5_6  and  N2_7 
ROOT
ATOM      1  C1  <0> d           2.381   1.362  -0.013  0.00  0.00    -0.028 A 
ATOM      2  C2  <0> d           1.167   2.042   0.002  0.00  0.00     0.045 A 
ATOM      3  C3  <0> d          -0.016   1.315   0.009  0.00  0.00     0.029 A 
ATOM      4  N1  <0> d           0.002  -0.004   0.002  0.00  0.00    -0.244 NA
ATOM      5  C4  <0> d           1.131  -0.684  -0.012  0.00  0.00     0.151 A 
ATOM      6  C5  <0> d           2.358  -0.029  -0.021  0.00  0.00     0.069 A 
ATOM      7 Cl1  <0> d           1.087  -2.420  -0.021  0.00  0.00    -0.060 Cl
ATOM      8  H1  <0> d           3.317   1.900  -0.020  0.00  0.00     0.090 H 
ATOM      9  H2  <0> d          -0.962   1.835   0.017  0.00  0.00     0.118 H 
ENDROOT
BRANCH   2  10
ATOM     10  N3  <0> d           1.138   3.440   0.009  0.00  0.00    -0.398 N 
ATOM     11  H5  <0> d           0.175   3.970   0.021  0.00  0.00     0.156 HD
ATOM     12  H6  <0> d           2.079   4.009   0.003  0.00  0.00     0.156 HD
ENDBRANCH   2  10
BRANCH   6  13
ATOM     13  N2  <0> d           3.551  -0.757  -0.035  0.00  0.00    -0.396 N 
ATOM     14  H3  <0> d           3.524  -1.857  -0.041  0.00  0.00     0.156 HD
ATOM     15  H4  <0> d           4.517  -0.231  -0.041  0.00  0.00     0.156 HD
ENDBRANCH   6  13
TORSDOF 2
