REMARK  4 active torsions:
REMARK  status: ('A' for Active; 'I' for Inactive)
REMARK    1  A    between atoms: C1_1  and  C2_2 
REMARK    2  A    between atoms: C5_5  and  C7_8 
REMARK    3  A    between atoms: C7_8  and  C8_9 
REMARK    4  A    between atoms: C8_9  and  O1_10 
ROOT
ATOM      1  C2  <0> d           0.002  -0.004   0.002  0.00  0.00    -0.044 A 
ATOM      2  C3  <0> d          -0.017   1.383   0.010  0.00  0.00    -0.074 A 
ATOM      3  C4  <0> d           1.193   2.059   0.002  0.00  0.00    -0.059 A 
ATOM      4  C5  <0> d           2.370   1.334  -0.013  0.00  0.00     0.036 A 
ATOM      5  N1  <0> d           2.350   0.015  -0.020  0.00  0.00    -0.265 NA
ATOM      6  C6  <0> d           1.218  -0.661  -0.013  0.00  0.00     0.008 A 
ATOM      7  H4  <0> d          -0.952   1.923   0.017  0.00  0.00     0.084 H 
ATOM      8  H5  <0> d           1.216   3.139   0.007  0.00  0.00     0.086 H 
ATOM      9  H6  <0> d           1.241  -1.741  -0.019  0.00  0.00     0.115 H 
ENDROOT
BRANCH   4  10
ATOM     10  C7  <0> d           3.691   2.058  -0.021  0.00  0.00    -0.005 C 
ATOM     11  H7  <0> d           4.210   1.857  -0.958  0.00  0.00     0.045 H 
ATOM     12  H8  <0> d           3.518   3.130   0.076  0.00  0.00     0.045 H 
BRANCH  10  13
ATOM     13  C8  <0> d           4.547   1.572   1.150  0.00  0.00     0.022 C 
ATOM     14  H9  <0> d           4.028   1.773   2.087  0.00  0.00     0.074 H 
ATOM     15  H10 <0> d           4.720   0.500   1.053  0.00  0.00     0.074 H 
BRANCH  13  16
ATOM     16  O1  <0> d           5.800   2.259   1.142  0.00  0.00    -0.400 OA
ATOM     17  H11 <0> d           6.395   2.000   1.859  0.00  0.00     0.209 HD
ENDBRANCH  13  16
ENDBRANCH  10  13
ENDBRANCH   4  10
BRANCH   1  18
ATOM     18  C1  <0> d          -1.287  -0.785   0.010  0.00  0.00    -0.050 C 
ATOM     19  H1  <0> d          -1.607  -0.967  -1.016  0.00  0.00     0.033 H 
ATOM     20  H2  <0> d          -1.132  -1.737   0.517  0.00  0.00     0.033 H 
ATOM     21  H3  <0> d          -2.054  -0.214   0.534  0.00  0.00     0.033 H 
ENDBRANCH   1  18
TORSDOF 4
