REMARK  3 active torsions:
REMARK  status: ('A' for Active; 'I' for Inactive)
REMARK    1  A    between atoms: C1_1  and  C2_2 
REMARK    2  A    between atoms: C4_5  and  C6_10 
REMARK    3  A    between atoms: C6_10  and  C7_12 
ROOT
ATOM      1  C2  <0> d          -0.832   3.194  -0.734  0.00  0.00     0.045 C 
ATOM      2  H1  <0> d          -1.031   3.035  -1.794  0.00  0.00     0.083 H 
ATOM      3  C3  <0> d           0.670   3.469  -0.506  0.00  0.00    -0.022 C 
ATOM      4  C4  <0> d           1.200   2.110   0.002  0.00  0.00     0.090 C 
ATOM      5  H2  <0> d           1.916   1.780  -0.613  0.00  0.00     0.067 H 
ATOM      6  C5  <0> d          -0.014   1.204   0.009  0.00  0.00     0.270 C 
ATOM      7  O1  <0> d           0.002  -0.004   0.002  0.00  0.00    -0.264 OA
ATOM      8  O2  <0> d          -1.114   1.979   0.018  0.00  0.00    -0.316 OA
ATOM      9  H6  <0> d           0.810   4.244   0.248  0.00  0.00     0.038 H 
ATOM     10  H7  <0> d           1.157   3.747  -1.441  0.00  0.00     0.038 H 
ENDROOT
BRANCH   4  11
ATOM     11  C6  <0> d           1.760   2.249   1.394  0.00  0.00     0.136 C 
ATOM     12  O3  <0> d           1.348   3.116   2.127  0.00  0.00    -0.297 OA
BRANCH  11  13
ATOM     13  C7  <0> d           2.833   1.305   1.873  0.00  0.00    -0.020 C 
ATOM     14  H8  <0> d           3.053   0.655   1.145  0.00  0.00     0.037 H 
ATOM     15  H9  <0> d           3.725   1.873   2.135  0.00  0.00     0.037 H 
ATOM     16  H10 <0> d           2.476   0.763   2.748  0.00  0.00     0.037 H 
ENDBRANCH  11  13
ENDBRANCH   4  11
BRANCH   1  17
ATOM     17  C1  <0> d          -1.671   4.359  -0.206  0.00  0.00    -0.052 C 
ATOM     18  H3  <0> d          -1.394   5.274  -0.730  0.00  0.00     0.030 H 
ATOM     19  H4  <0> d          -2.728   4.151  -0.373  0.00  0.00     0.030 H 
ATOM     20  H5  <0> d          -1.490   4.483   0.862  0.00  0.00     0.030 H 
ENDBRANCH   1  17
TORSDOF 3
