REMARK  4 active torsions:
REMARK  status: ('A' for Active; 'I' for Inactive)
REMARK    1  A    between atoms: C1_1  and  O1_2 
REMARK    2  A    between atoms: O1_2  and  C2_3 
REMARK    3  A    between atoms: C2_3  and  N1_4 
REMARK    4  A    between atoms: C5_7  and  C6_9 
ROOT
ATOM      1  N1  <0> d          -0.656   3.155   0.025  0.00  0.00    -0.257 N 
ATOM      2  C3  <0> d          -1.101   1.880   0.017  0.00  0.00     0.003 A 
ATOM      3  C4  <0> d          -0.013   1.076   0.008  0.00  0.00    -0.030 A 
ATOM      4  C5  <0> d           1.102   1.948   0.002  0.00  0.00     0.154 A 
ATOM      5  N2  <0> d           0.628   3.178   0.013  0.00  0.00    -0.164 NA
ATOM      6  H6  <0> d          -2.133   1.562   0.019  0.00  0.00     0.114 H 
ATOM      7  H7  <0> d           0.002  -0.004   0.002  0.00  0.00     0.089 H 
ENDROOT
BRANCH   1   8
ATOM      8  C2  <0> d          -1.515   4.342   0.038  0.00  0.00     0.098 C 
ATOM      9  H4  <0> d          -1.304   4.933   0.929  0.00  0.00     0.110 H 
ATOM     10  H5  <0> d          -1.320   4.942  -0.851  0.00  0.00     0.110 H 
BRANCH   8  11
ATOM     11  O1  <0> d          -2.886   3.938   0.048  0.00  0.00    -0.375 OA
BRANCH  11  12
ATOM     12  C1  <0> d          -3.812   5.026   0.062  0.00  0.00     0.006 C 
ATOM     13  H1  <0> d          -4.830   4.636   0.069  0.00  0.00     0.066 H 
ATOM     14  H2  <0> d          -3.648   5.631   0.954  0.00  0.00     0.066 H 
ATOM     15  H3  <0> d          -3.664   5.640  -0.826  0.00  0.00     0.066 H 
ENDBRANCH  11  12
ENDBRANCH   8  11
ENDBRANCH   1   8
BRANCH   4  16
ATOM     16  C6  <0> d           2.525   1.555  -0.013  0.00  0.00     0.230 C 
ATOM     17  O2  <0> d           2.830   0.379  -0.022  0.00  0.00    -0.643 OA
ATOM     18  O3  <0> d           3.485   2.500  -0.017  0.00  0.00    -0.643 OA
ENDBRANCH   4  16
TORSDOF 4
