REMARK  3 active torsions:
REMARK  status: ('A' for Active; 'I' for Inactive)
REMARK    1  A    between atoms: C1_1  and  C2_2 
REMARK    2  A    between atoms: C2_2  and  C8_8 
REMARK    3  A    between atoms: C8_8  and  O1_9 
ROOT
ATOM      1  C2  <0> d          -0.747   1.590  -1.236  0.00  0.00    -0.019 C 
ATOM      2  C3  <0> d          -2.241   1.278  -1.078  0.00  0.00    -0.053 C 
ATOM      3  C4  <0> d          -2.797   2.136   0.060  0.00  0.00    -0.049 C 
ATOM      4  C5  <0> d          -1.919   2.020   1.272  0.00  0.00    -0.106 C 
ATOM      5  C6  <0> d          -0.710   1.567   1.247  0.00  0.00    -0.106 C 
ATOM      6  C7  <0> d          -0.013   1.086   0.008  0.00  0.00    -0.042 C 
ATOM      7  H4  <0> d          -2.764   1.513  -2.004  0.00  0.00     0.034 H 
ATOM      8  H5  <0> d          -2.371   0.222  -0.838  0.00  0.00     0.034 H 
ATOM      9  H6  <0> d          -2.836   3.178  -0.259  0.00  0.00     0.038 H 
ATOM     10  H7  <0> d          -3.803   1.799   0.309  0.00  0.00     0.038 H 
ATOM     11  H8  <0> d          -2.324   2.333   2.223  0.00  0.00     0.076 H 
ATOM     12  H9  <0> d          -0.166   1.533   2.179  0.00  0.00     0.076 H 
ATOM     13  H10 <0> d           0.002  -0.004   0.002  0.00  0.00     0.040 H 
ATOM     14  H11 <0> d           1.011   1.461   0.000  0.00  0.00     0.040 H 
ENDROOT
BRANCH   1  15
ATOM     15  C1  <0> d          -0.550   3.101  -1.373  0.00  0.00    -0.067 C 
ATOM     16  H1  <0> d           0.514   3.321  -1.467  0.00  0.00     0.028 H 
ATOM     17  H2  <0> d          -1.074   3.457  -2.260  0.00  0.00     0.028 H 
ATOM     18  H3  <0> d          -0.948   3.601  -0.490  0.00  0.00     0.028 H 
ENDBRANCH   1  15
BRANCH   1  19
ATOM     19  C8  <0> d          -0.199   0.885  -2.478  0.00  0.00     0.024 C 
ATOM     20  H12 <0> d          -0.348  -0.190  -2.381  0.00  0.00     0.075 H 
ATOM     21  H13 <0> d          -0.724   1.246  -3.363  0.00  0.00     0.075 H 
BRANCH  19  22
ATOM     22  O1  <0> d           1.197   1.163  -2.606  0.00  0.00    -0.400 OA
ATOM     23  H14 <0> d           1.612   0.747  -3.374  0.00  0.00     0.209 HD
ENDBRANCH  19  22
ENDBRANCH   1  19
TORSDOF 3
