REMARK  0 active torsions:
REMARK  status: ('A' for Active; 'I' for Inactive)
ROOT
ATOM      1  C1  <0> d          -0.013   1.076   0.008  0.00  0.00    -0.080 A 
ATOM      2  C2  <0> d          -1.220   1.750   0.017  0.00  0.00    -0.080 A 
ATOM      3  C3  <0> d          -1.243   3.131   0.030  0.00  0.00    -0.048 A 
ATOM      4  C4  <0> d          -0.054   3.846   0.022  0.00  0.00     0.102 A 
ATOM      5  C5  <0> d           1.160   3.169   0.009  0.00  0.00     0.102 A 
ATOM      6  C6  <0> d           1.175   1.782   0.000  0.00  0.00    -0.048 A 
ATOM      7  O1  <0> d           2.338   3.850   0.009  0.00  0.00    -0.346 OA
ATOM      8  C7  <0> d           2.281   5.233  -0.357  0.00  0.00     0.046 C 
ATOM      9  C8  <0> d           1.113   5.883   0.398  0.00  0.00     0.046 C 
ATOM     10  O2  <0> d          -0.092   5.206   0.025  0.00  0.00    -0.346 OA
ATOM     11  H1  <0> d           0.002  -0.004   0.002  0.00  0.00     0.083 H 
ATOM     12  H2  <0> d          -2.147   1.195   0.020  0.00  0.00     0.083 H 
ATOM     13  H3  <0> d          -2.187   3.655   0.041  0.00  0.00     0.087 H 
ATOM     14  H4  <0> d           2.117   1.253  -0.012  0.00  0.00     0.087 H 
ATOM     15  H5  <0> d           2.120   5.323  -1.431  0.00  0.00     0.078 H 
ATOM     16  H6  <0> d           3.215   5.725  -0.082  0.00  0.00     0.078 H 
ATOM     17  H7  <0> d           1.042   6.937   0.128  0.00  0.00     0.078 H 
ATOM     18  H8  <0> d           1.271   5.789   1.472  0.00  0.00     0.078 H 
ENDROOT
TORSDOF 0
