REMARK  4 active torsions:
REMARK  status: ('A' for Active; 'I' for Inactive)
REMARK    1  A    between atoms: C1_1  and  N6_10 
REMARK    2  A    between atoms: C2_2  and  N5_9 
REMARK    3  A    between atoms: C3_3  and  N4_8 
REMARK    4  A    between atoms: C4_6  and  N3_7 
ROOT
ATOM      1  C1  <0> d          -2.434   0.933   0.019  0.00  0.00     0.104 A 
ATOM      2  C2  <0> d          -3.623   1.664   0.029  0.00  0.00     0.104 A 
ATOM      3  C3  <0> d          -3.531   3.060   0.036  0.00  0.00     0.172 A 
ATOM      4  N1  <0> d          -2.343   3.640   0.034  0.00  0.00    -0.128 NA
ATOM      5  N2  <0> d          -1.250   2.969   0.030  0.00  0.00    -0.128 NA
ATOM      6  C4  <0> d          -1.230   1.648   0.017  0.00  0.00     0.172 A 
ENDROOT
BRANCH   1   7
ATOM      7  N6  <0> d          -2.444  -0.466   0.010  0.00  0.00    -0.394 N 
ATOM      8  H7  <0> d          -1.608  -0.957   0.003  0.00  0.00     0.156 HD
ATOM      9  H8  <0> d          -3.288  -0.945   0.012  0.00  0.00     0.156 HD
ENDBRANCH   1   7
BRANCH   6  10
ATOM     10  N3  <0> d          -0.011   0.966   0.007  0.00  0.00    -0.381 N 
ATOM     11  H1  <0> d           0.002  -0.004   0.002  0.00  0.00     0.157 HD
ATOM     12  H2  <0> d           0.822   1.462   0.002  0.00  0.00     0.157 HD
ENDBRANCH   6  10
BRANCH   2  13
ATOM     13  N5  <0> d          -4.867   1.021   0.031  0.00  0.00    -0.394 N 
ATOM     14  H5  <0> d          -4.912   0.052   0.025  0.00  0.00     0.156 HD
ATOM     15  H6  <0> d          -5.683   1.545   0.038  0.00  0.00     0.156 HD
ENDBRANCH   2  13
BRANCH   3  16
ATOM     16  N4  <0> d          -4.691   3.839   0.046  0.00  0.00    -0.381 N 
ATOM     17  H3  <0> d          -5.561   3.412   0.048  0.00  0.00     0.157 HD
ATOM     18  H4  <0> d          -4.625   4.807   0.051  0.00  0.00     0.157 HD
ENDBRANCH   3  16
TORSDOF 4
