REMARK  1 active torsions:
REMARK  status: ('A' for Active; 'I' for Inactive)
REMARK    1  A    between atoms: C1_1  and  C2_2 
ROOT
ATOM      1  C2  <0> d           1.128  -0.686  -0.012  0.00  0.00     0.051 A 
ATOM      2  C3  <0> d           2.358  -0.023  -0.021  0.00  0.00     0.075 A 
ATOM      3  C4  <0> d           2.369   1.377  -0.013  0.00  0.00    -0.028 A 
ATOM      4  C5  <0> d           1.160   2.046   0.002  0.00  0.00    -0.033 A 
ATOM      5  C6  <0> d          -0.016   1.315   0.009  0.00  0.00     0.009 A 
ATOM      6  N1  <0> d           0.002  -0.004   0.002  0.00  0.00    -0.264 NA
ATOM      7  C7  <0> d           1.404   3.539   0.007  0.00  0.00    -0.039 C 
ATOM      8  C8  <0> d           2.879   3.706   0.430  0.00  0.00    -0.058 C 
ATOM      9  C9  <0> d           3.508   2.369  -0.019  0.00  0.00    -0.039 C 
ATOM     10  C10 <0> d           3.584  -0.762  -0.036  0.00  0.00     0.102 C 
ATOM     11  N2  <0> d           4.557  -1.348  -0.049  0.00  0.00    -0.191 NA
ATOM     12  H4  <0> d          -0.963   1.833   0.017  0.00  0.00     0.115 H 
ATOM     13  H5  <0> d           0.747   4.027   0.726  0.00  0.00     0.040 H 
ATOM     14  H6  <0> d           1.248   3.951  -0.990  0.00  0.00     0.040 H 
ATOM     15  H7  <0> d           2.961   3.829   1.510  0.00  0.00     0.033 H 
ATOM     16  H8  <0> d           3.340   4.545  -0.091  0.00  0.00     0.033 H 
ATOM     17  H9  <0> d           4.282   2.060   0.683  0.00  0.00     0.040 H 
ATOM     18  H10 <0> d           3.922   2.464  -1.023  0.00  0.00     0.040 H 
ENDROOT
BRANCH   1  19
ATOM     19  C1  <0> d           1.091  -2.192  -0.020  0.00  0.00    -0.034 C 
ATOM     20  H1  <0> d           1.072  -2.550  -1.050  0.00  0.00     0.035 H 
ATOM     21  H2  <0> d           1.976  -2.580   0.483  0.00  0.00     0.035 H 
ATOM     22  H3  <0> d           0.197  -2.536   0.500  0.00  0.00     0.035 H 
ENDBRANCH   1  19
TORSDOF 1
