REMARK  1 active torsions:
REMARK  status: ('A' for Active; 'I' for Inactive)
REMARK    1  A    between atoms: C4_4  and  C7_8 
ROOT
ATOM      1  C1  <0> d          -1.242   3.406   0.032  0.00  0.00    -0.077 A 
ATOM      2  C2  <0> d          -0.060   4.125   0.025  0.00  0.00    -0.044 A 
ATOM      3  C3  <0> d           1.154   3.464   0.010  0.00  0.00     0.136 A 
ATOM      4  C4  <0> d           1.185   2.065   0.002  0.00  0.00     0.117 A 
ATOM      5  C5  <0> d          -0.016   1.347   0.009  0.00  0.00     0.136 A 
ATOM      6  C6  <0> d          -1.221   2.024   0.019  0.00  0.00    -0.044 A 
ATOM      7  F1  <0> d           0.002  -0.004   0.002  0.00  0.00    -0.205 F 
ATOM      8  F2  <0> d           2.308   4.168   0.002  0.00  0.00    -0.205 F 
ATOM      9  H1  <0> d          -2.188   3.929   0.044  0.00  0.00     0.083 H 
ATOM     10  H2  <0> d          -0.086   5.204   0.031  0.00  0.00     0.088 H 
ATOM     11  H3  <0> d          -2.149   1.471   0.020  0.00  0.00     0.088 H 
ENDROOT
BRANCH   4  12
ATOM     12  C7  <0> d           2.475   1.352  -0.015  0.00  0.00     0.215 C 
ATOM     13  O1  <0> d           2.997   1.064  -1.074  0.00  0.00    -0.644 OA
ATOM     14  O2  <0> d           3.076   1.020   1.144  0.00  0.00    -0.644 OA
ENDBRANCH   4  12
TORSDOF 1
