REMARK  2 active torsions:
REMARK  status: ('A' for Active; 'I' for Inactive)
REMARK    1  A    between atoms: C1_1  and  O1_2 
REMARK    2  A    between atoms: O1_2  and  C2_3 
ROOT
ATOM      1  C2  <0> d          -1.200  -0.638   0.010  0.00  0.00     0.087 A 
ATOM      2  C3  <0> d          -1.264  -2.025   0.009  0.00  0.00    -0.028 A 
ATOM      3  C4  <0> d          -2.526  -2.630   0.018  0.00  0.00     0.064 A 
ATOM      4  C5  <0> d          -3.663  -1.820   0.027  0.00  0.00     0.022 A 
ATOM      5  N1  <0> d          -3.554  -0.508   0.027  0.00  0.00    -0.269 NA
ATOM      6  C6  <0> d          -2.380   0.094   0.025  0.00  0.00     0.034 A 
ATOM      7  C7  <0> d          -2.649  -4.057   0.016  0.00  0.00     0.101 C 
ATOM      8  N2  <0> d          -2.746  -5.188   0.015  0.00  0.00    -0.191 NA
ATOM      9  H4  <0> d          -0.363  -2.621   0.001  0.00  0.00     0.090 H 
ATOM     10  H5  <0> d          -4.643  -2.274   0.033  0.00  0.00     0.117 H 
ATOM     11  H6  <0> d          -2.336   1.173   0.031  0.00  0.00     0.119 H 
ENDROOT
BRANCH   1  12
ATOM     12  O1  <0> d           0.002  -0.004   0.002  0.00  0.00    -0.354 OA
BRANCH  12  13
ATOM     13  C1  <0> d          -0.017   1.425   0.010  0.00  0.00     0.010 C 
ATOM     14  H1  <0> d           1.005   1.802   0.002  0.00  0.00     0.066 H 
ATOM     15  H2  <0> d          -0.544   1.786  -0.873  0.00  0.00     0.066 H 
ATOM     16  H3  <0> d          -0.527   1.776   0.907  0.00  0.00     0.066 H 
ENDBRANCH  12  13
ENDBRANCH   1  12
TORSDOF 2
