REMARK  2 active torsions:
REMARK  status: ('A' for Active; 'I' for Inactive)
REMARK    1  A    between atoms: C3_3  and  N2_9 
REMARK    2  A    between atoms: C6_6  and  N1_7 
ROOT
ATOM      1  C1  <0> d          -0.017   1.384   0.010  0.00  0.00    -0.056 A 
ATOM      2  C2  <0> d           1.170   2.091   0.002  0.00  0.00    -0.054 A 
ATOM      3  C3  <0> d           2.381   1.415  -0.013  0.00  0.00     0.047 A 
ATOM      4  C4  <0> d           2.401   0.025  -0.021  0.00  0.00     0.062 A 
ATOM      5  C5  <0> d           1.214  -0.682  -0.013  0.00  0.00    -0.035 A 
ATOM      6  C6  <0> d           0.002  -0.004   0.002  0.00  0.00     0.027 A 
ATOM      7 Cl1  <0> d           3.916  -0.822  -0.040  0.00  0.00    -0.082 Cl
ATOM      8  H1  <0> d          -0.959   1.911   0.026  0.00  0.00     0.087 H 
ATOM      9  H2  <0> d           1.155   3.171   0.008  0.00  0.00     0.087 H 
ATOM     10  H3  <0> d           1.229  -1.762  -0.020  0.00  0.00     0.089 H 
ENDROOT
BRANCH   3  11
ATOM     11  N2  <0> d           3.584   2.132  -0.021  0.00  0.00    -0.398 N 
ATOM     12  H6  <0> d           3.571   3.102  -0.016  0.00  0.00     0.156 HD
ATOM     13  H7  <0> d           4.431   1.659  -0.032  0.00  0.00     0.156 HD
ENDBRANCH   3  11
BRANCH   6  14
ATOM     14  N1  <0> d          -1.201  -0.720   0.010  0.00  0.00    -0.399 N 
ATOM     15  H4  <0> d          -2.047  -0.247   0.020  0.00  0.00     0.156 HD
ATOM     16  H5  <0> d          -1.188  -1.690   0.004  0.00  0.00     0.156 HD
ENDBRANCH   6  14
TORSDOF 2
