REMARK  2 active torsions:
REMARK  status: ('A' for Active; 'I' for Inactive)
REMARK    1  A    between atoms: C1_1  and  C2_2 
REMARK    2  A    between atoms: C5_5  and  N3_8 
ROOT
ATOM      1  C2  <0> d           1.089   1.998   0.002  0.00  0.00     0.053 A 
ATOM      2  C3  <0> d           2.327   1.370  -0.013  0.00  0.00    -0.054 A 
ATOM      3  C4  <0> d           2.354  -0.015  -0.021  0.00  0.00    -0.035 A 
ATOM      4  C5  <0> d           1.134  -0.692  -0.013  0.00  0.00     0.143 A 
ATOM      5  N1  <0> d           0.002  -0.004   0.002  0.00  0.00    -0.132 NA
ATOM      6  N2  <0> d          -0.015   1.279   0.009  0.00  0.00    -0.153 NA
ATOM      7  H4  <0> d           3.242   1.944  -0.018  0.00  0.00     0.086 H 
ATOM      8  H5  <0> d           3.290  -0.554  -0.032  0.00  0.00     0.089 H 
ENDROOT
BRANCH   1   9
ATOM      9  C1  <0> d           1.008   3.503   0.011  0.00  0.00    -0.034 C 
ATOM     10  H1  <0> d           0.999   3.860   1.041  0.00  0.00     0.035 H 
ATOM     11  H2  <0> d           1.873   3.916  -0.509  0.00  0.00     0.035 H 
ATOM     12  H3  <0> d           0.095   3.821  -0.492  0.00  0.00     0.035 H 
ENDBRANCH   1   9
BRANCH   4  13
ATOM     13  N3  <0> d           1.107  -2.082  -0.019  0.00  0.00    -0.383 N 
ATOM     14  H6  <0> d           0.257  -2.551  -0.013  0.00  0.00     0.157 HD
ATOM     15  H7  <0> d           1.937  -2.584  -0.030  0.00  0.00     0.157 HD
ENDBRANCH   4  13
TORSDOF 2
