REMARK  6 active torsions:
REMARK  status: ('A' for Active; 'I' for Inactive)
REMARK    1  A    between atoms: C1_1  and  C2_2 
REMARK    2  A    between atoms: C2_2  and  C3_3 
REMARK    3  A    between atoms: C3_3  and  C4_5 
REMARK    4  A    between atoms: C3_3  and  O1_8 
REMARK    5  A    between atoms: C4_5  and  C5_6 
REMARK    6  A    between atoms: C4_5  and  C6_7 
ROOT
ATOM      1  C3  <0> d           0.011   1.072   2.506  0.00  0.00     0.038 C 
ATOM      2  H1  <0> d          -0.499   1.424   3.403  0.00  0.00     0.083 H 
ENDROOT
BRANCH   1   3
ATOM      3  C2  <0> d           0.032  -0.457   2.498  0.00  0.00    -0.044 C 
ATOM      4  H5  <0> d          -0.988  -0.834   2.416  0.00  0.00     0.036 H 
ATOM      5  H6  <0> d           0.618  -0.808   1.649  0.00  0.00     0.036 H 
BRANCH   3   6
ATOM      6  C1  <0> d           0.661  -0.966   3.797  0.00  0.00    -0.074 C 
ATOM      7  H2  <0> d           0.075  -0.615   4.646  0.00  0.00     0.027 H 
ATOM      8  H3  <0> d           0.676  -2.056   3.791  0.00  0.00     0.027 H 
ATOM      9  H4  <0> d           1.680  -0.589   3.878  0.00  0.00     0.027 H 
ENDBRANCH   3   6
ENDBRANCH   1   3
BRANCH   1  10
ATOM     10  C4  <0> d          -0.729   1.579   1.267  0.00  0.00    -0.036 C 
ATOM     11  H7  <0> d          -1.751   1.202   1.275  0.00  0.00     0.042 H 
BRANCH  10  12
ATOM     12  C5  <0> d          -0.013   1.086   0.008  0.00  0.00    -0.071 C 
ATOM     13  H8  <0> d           0.002  -0.004   0.002  0.00  0.00     0.028 H 
ATOM     14  H9  <0> d           1.010   1.463   0.000  0.00  0.00     0.028 H 
ATOM     15  H10 <0> d          -0.540   1.447  -0.875  0.00  0.00     0.028 H 
ENDBRANCH  10  12
BRANCH  10  16
ATOM     16  C6  <0> d          -0.750   3.109   1.275  0.00  0.00    -0.071 C 
ATOM     17  H11 <0> d          -1.277   3.470   0.392  0.00  0.00     0.028 H 
ATOM     18  H12 <0> d          -1.260   3.461   2.172  0.00  0.00     0.028 H 
ATOM     19  H13 <0> d           0.273   3.486   1.268  0.00  0.00     0.028 H 
ENDBRANCH  10  16
ENDBRANCH   1  10
BRANCH   1  20
ATOM     20  O1  <0> d           1.352   1.567   2.496  0.00  0.00    -0.395 OA
ATOM     21  H14 <0> d           1.866   1.293   1.725  0.00  0.00     0.210 HD
ENDBRANCH   1  20
TORSDOF 6
