REMARK  2 active torsions:
REMARK  status: ('A' for Active; 'I' for Inactive)
REMARK    1  A    between atoms: C2_2  and  C3_6 
REMARK    2  A    between atoms: C4_7  and  N5_11 
ROOT
ATOM      1  C3  <0> d          -0.018   1.480   0.010  0.00  0.00     0.166 A 
ATOM      2  C4  <0> d          -1.219   2.324   0.020  0.00  0.00     0.184 A 
ATOM      3  N3  <0> d          -0.842   3.573   0.029  0.00  0.00    -0.085 NA
ATOM      4  O2  <0> d           0.574   3.601   0.016  0.00  0.00    -0.104 OA
ATOM      5  N4  <0> d           1.030   2.260   0.004  0.00  0.00    -0.099 NA
ENDROOT
BRANCH   1   6
ATOM      6  C2  <0> d           0.002  -0.004   0.002  0.00  0.00     0.141 A 
ATOM      7  C1  <0> d           1.051  -0.910  -0.504  0.00  0.00     0.063 A 
ATOM      8  N2  <0> d           0.552  -2.092  -0.259  0.00  0.00    -0.115 NA
ATOM      9  H1  <0> d           1.996  -0.658  -0.962  0.00  0.00     0.122 H 
ATOM     10  O1  <0> d          -0.533  -1.975   0.259  0.00  0.00    -0.107 OA
ATOM     11  N1  <0> d          -0.913  -0.842   0.439  0.00  0.00    -0.101 NA
ENDBRANCH   1   6
BRANCH   2  12
ATOM     12  N5  <0> d          -2.532   1.870   0.023  0.00  0.00    -0.380 N 
ATOM     13  H2  <0> d          -2.716   0.917   0.018  0.00  0.00     0.158 HD
ATOM     14  H3  <0> d          -3.265   2.505   0.029  0.00  0.00     0.158 HD
ENDBRANCH   2  12
TORSDOF 2
