REMARK  6 active torsions:
REMARK  status: ('A' for Active; 'I' for Inactive)
REMARK    1  A    between atoms: C1_1  and  C2_2 
REMARK    2  A    between atoms: C3_3  and  C4_4 
REMARK    3  A    between atoms: C4_4  and  C5_5 
REMARK    4  A    between atoms: C5_5  and  C6_6 
REMARK    5  A    between atoms: C6_6  and  C7_7 
REMARK    6  A    between atoms: C7_7  and  O1_8 
ROOT
ATOM      1  C5  <0> d           2.534   3.726  -0.002  0.00  0.00    -0.054 C 
ATOM      2  H6  <0> d           3.076   3.414  -0.907  0.00  0.00     0.034 H 
ATOM      3  H7  <0> d           3.093   3.405   0.889  0.00  0.00     0.034 H 
ENDROOT
BRANCH   1   4
ATOM      4  C4  <0> d           2.393   5.250   0.007  0.00  0.00    -0.009 C 
ATOM      5  H4  <0> d           1.851   5.562   0.912  0.00  0.00     0.051 H 
ATOM      6  H5  <0> d           1.834   5.572  -0.884  0.00  0.00     0.051 H 
BRANCH   4   7
ATOM      7  C3  <0> d           3.729   5.867  -0.002  0.00  0.00    -0.107 C 
ATOM      8  C2  <0> d           4.795   6.359  -0.010  0.00  0.00    -0.111 C 
BRANCH   8   9
ATOM      9  C1  <0> d           6.131   6.976  -0.019  0.00  0.00    -0.021 C 
ATOM     10  H1  <0> d           6.239   7.604  -0.915  0.00  0.00     0.044 H 
ATOM     11  H2  <0> d           6.899   6.188  -0.030  0.00  0.00     0.044 H 
ATOM     12  H3  <0> d           6.255   7.596   0.881  0.00  0.00     0.044 H 
ENDBRANCH   8   9
ENDBRANCH   4   7
ENDBRANCH   1   4
BRANCH   1  13
ATOM     13  C6  <0> d           1.145   3.085   0.008  0.00  0.00    -0.045 C 
ATOM     14  H8  <0> d           0.603   3.397   0.913  0.00  0.00     0.036 H 
ATOM     15  H9  <0> d           0.586   3.407  -0.883  0.00  0.00     0.036 H 
BRANCH  13  16
ATOM     16  C7  <0> d           1.286   1.562  -0.002  0.00  0.00     0.017 C 
ATOM     17  H10 <0> d           1.828   1.250  -0.907  0.00  0.00     0.073 H 
ATOM     18  H11 <0> d           1.845   1.240   0.889  0.00  0.00     0.073 H 
BRANCH  16  19
ATOM     19  O1  <0> d          -0.011   0.963   0.007  0.00  0.00    -0.401 OA
ATOM     20  H12 <0> d          -0.111  -0.133   0.002  0.00  0.00     0.209 HD
ENDBRANCH  16  19
ENDBRANCH  13  16
ENDBRANCH   1  13
TORSDOF 6
