REMARK  2 active torsions:
REMARK  status: ('A' for Active; 'I' for Inactive)
REMARK    1  A    between atoms: C1_1  and  C2_2 
REMARK    2  A    between atoms: C2_2  and  C7_8 
ROOT
ATOM      1  C2  <0> d           2.133   0.073   1.299  0.00  0.00     0.049 C 
ATOM      2  C3  <0> d           0.718  -0.510   1.257  0.00  0.00    -0.029 C 
ATOM      3  C4  <0> d           0.002  -0.004   0.002  0.00  0.00     0.021 C 
ATOM      4  O1  <0> d          -0.017   1.425   0.010  0.00  0.00    -0.391 OA
ATOM      5  C5  <0> d           1.279   2.026   0.001  0.00  0.00     0.021 C 
ATOM      6  C6  <0> d           2.046   1.601   1.256  0.00  0.00    -0.029 C 
ATOM      7  H4  <0> d           0.774  -1.609   1.233  0.00  0.00     0.038 H 
ATOM      8  H5  <0> d           0.163  -0.191   2.152  0.00  0.00     0.038 H 
ATOM      9  H6  <0> d           0.535  -0.359  -0.892  0.00  0.00     0.074 H 
ATOM     10  H7  <0> d          -1.030  -0.385  -0.011  0.00  0.00     0.074 H 
ATOM     11  H8  <0> d           1.829   1.698  -0.894  0.00  0.00     0.074 H 
ATOM     12  H9  <0> d           1.175   3.121  -0.013  0.00  0.00     0.074 H 
ATOM     13  H10 <0> d           1.519   1.964   2.151  0.00  0.00     0.038 H 
ATOM     14  H11 <0> d           3.060   2.026   1.231  0.00  0.00     0.038 H 
ENDROOT
BRANCH   1  15
ATOM     15  C1  <0> d           2.929  -0.428   0.091  0.00  0.00    -0.059 C 
ATOM     16  H1  <0> d           2.991  -1.526   0.123  0.00  0.00     0.029 H 
ATOM     17  H2  <0> d           3.943  -0.003   0.118  0.00  0.00     0.029 H 
ATOM     18  H3  <0> d           2.424  -0.116  -0.835  0.00  0.00     0.029 H 
ENDBRANCH   1  15
BRANCH   1  19
ATOM     19  C7  <0> d           2.819  -0.358   2.570  0.00  0.00     0.181 C 
ATOM     20  O2  <0> d           2.236  -1.059   3.363  0.00  0.00    -0.647 OA
ATOM     21  O3  <0> d           4.077   0.038   2.821  0.00  0.00    -0.647 OA
ENDBRANCH   1  19
TORSDOF 2
