REMARK  3 active torsions:
REMARK  status: ('A' for Active; 'I' for Inactive)
REMARK    1  A    between atoms: C3_3  and  O2_11 
REMARK    2  A    between atoms: C6_6  and  C7_7 
REMARK    3  A    between atoms: C7_7  and  C8_8 
REMARK       I    between atoms: C8_8  and  N1_10 
ROOT
ATOM      1  C1  <0> d           0.002  -0.004   0.002  0.00  0.00    -0.074 A 
ATOM      2  C2  <0> d          -0.017   1.377   0.010  0.00  0.00    -0.051 A 
ATOM      3  C3  <0> d           1.176   2.086   0.002  0.00  0.00     0.065 A 
ATOM      4  C4  <0> d           2.385   1.405  -0.013  0.00  0.00    -0.051 A 
ATOM      5  C5  <0> d           2.398   0.024  -0.021  0.00  0.00    -0.074 A 
ATOM      6  C6  <0> d           1.208  -0.680  -0.013  0.00  0.00    -0.049 A 
ATOM      7  H1  <0> d          -0.926  -0.556   0.008  0.00  0.00     0.084 H 
ATOM      8  H2  <0> d          -0.959   1.905   0.017  0.00  0.00     0.087 H 
ATOM      9  H3  <0> d           3.314   1.955  -0.018  0.00  0.00     0.087 H 
ATOM     10  H4  <0> d           3.339  -0.506  -0.033  0.00  0.00     0.084 H 
ENDROOT
BRANCH   6  11
ATOM     11  C7  <0> d           1.226  -2.187  -0.021  0.00  0.00     0.033 C 
ATOM     12  H5  <0> d           2.125  -2.543   0.482  0.00  0.00     0.054 H 
ATOM     13  H6  <0> d           0.345  -2.563   0.500  0.00  0.00     0.054 H 
BRANCH  11  14
ATOM     14  C8  <0> d           1.218  -2.682  -1.444  0.00  0.00     0.219 C 
ATOM     15  O1  <0> d           1.199  -1.889  -2.362  0.00  0.00    -0.273 OA
ATOM     16  N1  <0> d           1.231  -4.006  -1.697  0.00  0.00    -0.370 N 
ATOM     17  H7  <0> d           1.245  -4.640  -0.963  0.00  0.00     0.159 HD
ATOM     18  H8  <0> d           1.225  -4.325  -2.613  0.00  0.00     0.159 HD
ENDBRANCH  11  14
ENDBRANCH   6  11
BRANCH   3  19
ATOM     19  O2  <0> d           1.160   3.445   0.009  0.00  0.00    -0.361 OA
ATOM     20  H9  <0> d           1.164   3.834   0.894  0.00  0.00     0.217 HD
ENDBRANCH   3  19
TORSDOF 3
