REMARK  1 active torsions:
REMARK  status: ('A' for Active; 'I' for Inactive)
REMARK    1  A    between atoms: C3_3  and  C5_6 
ROOT
ATOM      1  C1  <0> d           2.090   0.758  -0.014  0.00  0.00    -0.059 A 
ATOM      2  C2  <0> d           1.299  -0.410  -0.013  0.00  0.00    -0.046 A 
ATOM      3  C3  <0> d           0.002  -0.004   0.002  0.00  0.00     0.105 A 
ATOM      4  O1  <0> d          -0.016   1.343   0.009  0.00  0.00    -0.320 OA
ATOM      5  C4  <0> d           1.244   1.806  -0.000  0.00  0.00     0.019 A 
ATOM      6  H2  <0> d           3.169   0.802  -0.024  0.00  0.00     0.086 H 
ATOM      7  H3  <0> d           1.655  -1.429  -0.022  0.00  0.00     0.087 H 
ATOM      8  H4  <0> d           1.533   2.847   0.002  0.00  0.00     0.123 H 
ENDROOT
BRANCH   3   9
ATOM      9  C5  <0> d          -1.183  -0.888   0.009  0.00  0.00     0.112 A 
ATOM     10  N2  <0> d          -1.169  -2.206   0.001  0.00  0.00    -0.173 NA
ATOM     11  N1  <0> d          -2.495  -2.655   0.012  0.00  0.00    -0.289 N 
ATOM     12  C7  <0> d          -3.306  -1.575   0.026  0.00  0.00    -0.002 A 
ATOM     13  H1  <0> d          -2.791  -3.611   0.010  0.00  0.00     0.188 HD
ATOM     14  C6  <0> d          -2.530  -0.470   0.030  0.00  0.00    -0.034 A 
ATOM     15  H6  <0> d          -4.386  -1.593   0.036  0.00  0.00     0.113 H 
ATOM     16  H5  <0> d          -2.879   0.552   0.044  0.00  0.00     0.089 H 
ENDBRANCH   3   9
TORSDOF 1
