REMARK  1 active torsions:
REMARK  status: ('A' for Active; 'I' for Inactive)
REMARK    1  A    between atoms: C2_2  and  C7_9 
ROOT
ATOM      1  C1  <0> d          -1.248   3.131   0.030  0.00  0.00    -0.029 A 
ATOM      2  C2  <0> d          -0.050   3.848   0.022  0.00  0.00     0.046 A 
ATOM      3  C3  <0> d           1.167   3.164   0.007  0.00  0.00    -0.029 A 
ATOM      4  C4  <0> d           1.179   1.782   0.000  0.00  0.00     0.120 A 
ATOM      5  C5  <0> d          -0.013   1.076   0.008  0.00  0.00    -0.009 A 
ATOM      6  C6  <0> d          -1.223   1.749   0.017  0.00  0.00     0.120 A 
ATOM      7  F1  <0> d          -2.381   1.054   0.019  0.00  0.00    -0.206 F 
ATOM      8  F2  <0> d           2.356   1.119  -0.014  0.00  0.00    -0.206 F 
ATOM      9  H1  <0> d          -2.192   3.655   0.042  0.00  0.00     0.089 H 
ATOM     10  H2  <0> d           2.096   3.713   0.000  0.00  0.00     0.089 H 
ATOM     11  H3  <0> d           0.002  -0.004   0.002  0.00  0.00     0.092 H 
ENDROOT
BRANCH   2  12
ATOM     12  C7  <0> d          -0.070   5.325   0.029  0.00  0.00     0.209 C 
ATOM     13  O1  <0> d           0.973   5.947   0.021  0.00  0.00    -0.644 OA
ATOM     14  O2  <0> d          -1.246   5.983   0.043  0.00  0.00    -0.644 OA
ENDBRANCH   2  12
TORSDOF 1
