REMARK  2 active torsions:
REMARK  status: ('A' for Active; 'I' for Inactive)
REMARK    1  A    between atoms: C2_2  and  O2_8 
REMARK    2  A    between atoms: C5_6  and  O1_7 
ROOT
ATOM      1  C1  <0> d          -0.013   1.076   0.008  0.00  0.00    -0.016 A 
ATOM      2  C2  <0> d          -1.216   1.772   0.017  0.00  0.00     0.085 A 
ATOM      3  C3  <0> d          -1.193   3.159   0.029  0.00  0.00     0.034 A 
ATOM      4  N1  <0> d          -0.050   3.816   0.022  0.00  0.00    -0.268 NA
ATOM      5  C4  <0> d           1.111   3.191   0.008  0.00  0.00     0.034 A 
ATOM      6  C5  <0> d           1.171   1.804   0.001  0.00  0.00     0.085 A 
ATOM      7  H1  <0> d           0.002  -0.004   0.002  0.00  0.00     0.092 H 
ATOM      8  H2  <0> d          -2.123   3.708   0.040  0.00  0.00     0.119 H 
ATOM      9  H3  <0> d           2.026   3.765   0.002  0.00  0.00     0.119 H 
ENDROOT
BRANCH   2  10
ATOM     10  O2  <0> d          -2.399   1.103   0.020  0.00  0.00    -0.359 OA
ATOM     11  H5  <0> d          -2.737   0.905   0.904  0.00  0.00     0.217 HD
ENDBRANCH   2  10
BRANCH   6  12
ATOM     12  O1  <0> d           2.372   1.168  -0.014  0.00  0.00    -0.359 OA
ATOM     13  H4  <0> d           2.711   0.988  -0.902  0.00  0.00     0.217 HD
ENDBRANCH   6  12
TORSDOF 2
