REMARK  2 active torsions:
REMARK  status: ('A' for Active; 'I' for Inactive)
REMARK    1  A    between atoms: C4_4  and  N1_7 
REMARK    2  A    between atoms: C8_9  and  N3_12 
ROOT
ATOM      1  C1  <0> d          -0.017   1.379   0.010  0.00  0.00    -0.083 A 
ATOM      2  C2  <0> d           1.170   2.089   0.002  0.00  0.00    -0.081 A 
ATOM      3  C3  <0> d           2.377   1.419  -0.013  0.00  0.00    -0.057 A 
ATOM      4  C4  <0> d           2.399   0.031  -0.021  0.00  0.00     0.039 A 
ATOM      5  C5  <0> d           1.207  -0.680  -0.013  0.00  0.00    -0.057 A 
ATOM      6  C6  <0> d           0.002  -0.004   0.002  0.00  0.00    -0.081 A 
ATOM      7  H1  <0> d          -0.960   1.905   0.026  0.00  0.00     0.083 H 
ATOM      8  H2  <0> d           1.152   3.169   0.008  0.00  0.00     0.083 H 
ATOM      9  H3  <0> d           3.304   1.974  -0.019  0.00  0.00     0.086 H 
ATOM     10  H4  <0> d           1.221  -1.760  -0.019  0.00  0.00     0.086 H 
ATOM     11  H5  <0> d          -0.926  -0.556   0.008  0.00  0.00     0.083 H 
ENDROOT
BRANCH   4  12
ATOM     12  N1  <0> d           3.624  -0.652  -0.037  0.00  0.00    -0.313 N 
ATOM     13  C9  <0> d           4.855  -0.093  -0.046  0.00  0.00     0.072 A 
ATOM     14  N2  <0> d           5.749  -1.045  -0.057  0.00  0.00    -0.225 NA
ATOM     15  H7  <0> d           5.064   0.966  -0.043  0.00  0.00     0.144 H 
ATOM     16  C8  <0> d           5.132  -2.238  -0.064  0.00  0.00     0.138 A 
ATOM     17  C7  <0> d           3.798  -2.017  -0.051  0.00  0.00     0.030 A 
ATOM     18  H6  <0> d           3.020  -2.767  -0.052  0.00  0.00     0.118 H 
BRANCH  16  19
ATOM     19  N3  <0> d           5.761  -3.493  -0.081  0.00  0.00    -0.383 N 
ATOM     20  H8  <0> d           5.227  -4.303  -0.085  0.00  0.00     0.157 HD
ATOM     21  H9  <0> d           6.729  -3.550  -0.089  0.00  0.00     0.157 HD
ENDBRANCH  16  19
ENDBRANCH   4  12
TORSDOF 2
