REMARK  3 active torsions:
REMARK  status: ('A' for Active; 'I' for Inactive)
REMARK    1  A    between atoms: C1_1  and  C2_2 
REMARK    2  A    between atoms: C4_6  and  C5_8 
REMARK    3  A    between atoms: C4_6  and  C6_9 
ROOT
ATOM      1  C2  <0> d           3.601  -0.624   2.341  0.00  0.00     0.059 C 
ATOM      2  H1  <0> d           4.089   0.048   3.046  0.00  0.00     0.086 H 
ATOM      3  C3  <0> d           2.161  -0.962   2.803  0.00  0.00     0.047 C 
ATOM      4  O1  <0> d           1.396   0.168   2.337  0.00  0.00    -0.353 OA
ATOM      5  C4  <0> d           2.144   0.783   1.280  0.00  0.00     0.164 C 
ATOM      6  O2  <0> d           3.357   0.037   1.077  0.00  0.00    -0.348 OA
ATOM      7  H5  <0> d           1.812  -1.882   2.336  0.00  0.00     0.078 H 
ATOM      8  H6  <0> d           2.112  -1.038   3.889  0.00  0.00     0.078 H 
ENDROOT
BRANCH   5   9
ATOM      9  C5  <0> d           2.486   2.223   1.667  0.00  0.00    -0.025 C 
ATOM     10  H7  <0> d           1.565   2.785   1.827  0.00  0.00     0.035 H 
ATOM     11  H8  <0> d           3.076   2.223   2.584  0.00  0.00     0.035 H 
ATOM     12  H9  <0> d           3.060   2.688   0.866  0.00  0.00     0.035 H 
ENDBRANCH   5   9
BRANCH   5  13
ATOM     13  C6  <0> d           1.317   0.779  -0.006  0.00  0.00    -0.000 A 
ATOM     14  C8  <0> d           0.002  -0.004   0.002  0.00  0.00    -0.056 A 
ATOM     15  C7  <0> d          -0.019   1.526   0.010  0.00  0.00    -0.056 A 
ATOM     16  H13 <0> d          -0.273  -0.516   0.924  0.00  0.00     0.033 H 
ATOM     17  H14 <0> d          -0.291  -0.506  -0.920  0.00  0.00     0.033 H 
ATOM     18  H11 <0> d          -0.325   2.030  -0.906  0.00  0.00     0.033 H 
ATOM     19  H12 <0> d          -0.307   2.020   0.938  0.00  0.00     0.033 H 
ATOM     20  H10 <0> d           1.889   0.792  -0.934  0.00  0.00     0.048 H 
ENDBRANCH   5  13
BRANCH   1  21
ATOM     21  C1  <0> d           4.425  -1.898   2.143  0.00  0.00    -0.050 C 
ATOM     22  H2  <0> d           5.393  -1.641   1.714  0.00  0.00     0.031 H 
ATOM     23  H3  <0> d           4.572  -2.389   3.105  0.00  0.00     0.031 H 
ATOM     24  H4  <0> d           3.896  -2.571   1.468  0.00  0.00     0.031 H 
ENDBRANCH   1  21
TORSDOF 3
