REMARK  2 active torsions:
REMARK  status: ('A' for Active; 'I' for Inactive)
REMARK    1  A    between atoms: C1_1  and  N1_2 
REMARK    2  A    between atoms: N1_2  and  C2_3 
ROOT
ATOM      1  C2  <0> d          -1.231   1.648   0.017  0.00  0.00     0.027 A 
ATOM      2  C3  <0> d          -1.251   3.037   0.030  0.00  0.00    -0.056 A 
ATOM      3  C4  <0> d          -2.458   3.708   0.033  0.00  0.00    -0.060 A 
ATOM      4  C5  <0> d          -3.646   2.999   0.035  0.00  0.00     0.034 A 
ATOM      5  C6  <0> d          -3.629   1.615   0.028  0.00  0.00    -0.060 A 
ATOM      6  C7  <0> d          -2.425   0.939   0.019  0.00  0.00    -0.056 A 
ATOM      7 Cl1  <0> d          -5.161   3.846   0.047  0.00  0.00    -0.084 Cl
ATOM      8  H5  <0> d          -0.324   3.591   0.034  0.00  0.00     0.087 H 
ATOM      9  H6  <0> d          -2.474   4.788   0.038  0.00  0.00     0.086 H 
ATOM     10  H7  <0> d          -4.557   1.064   0.029  0.00  0.00     0.086 H 
ATOM     11  H8  <0> d          -2.412  -0.141   0.012  0.00  0.00     0.087 H 
ENDROOT
BRANCH   1  12
ATOM     12  N1  <0> d          -0.011   0.966   0.007  0.00  0.00    -0.394 N 
ATOM     13  H4  <0> d           0.002  -0.004   0.002  0.00  0.00     0.159 HD
BRANCH  12  14
ATOM     14  C1  <0> d           1.248   1.716  -0.001  0.00  0.00    -0.021 C 
ATOM     15  H1  <0> d           2.086   1.019  -0.012  0.00  0.00     0.056 H 
ATOM     16  H2  <0> d           1.288   2.348  -0.888  0.00  0.00     0.056 H 
ATOM     17  H3  <0> d           1.305   2.338   0.892  0.00  0.00     0.056 H 
ENDBRANCH  12  14
ENDBRANCH   1  12
TORSDOF 2
