REMARK  0 active torsions:
REMARK  status: ('A' for Active; 'I' for Inactive)
ROOT
ATOM      1  C1  <0> d          -0.017   1.378   0.010  0.00  0.00     0.019 A 
ATOM      2  C2  <0> d           0.002  -0.004   0.002  0.00  0.00     0.135 A 
ATOM      3  C3  <0> d          -1.222  -0.704   0.010  0.00  0.00     0.086 A 
ATOM      4  C4  <0> d          -2.386  -0.019   0.026  0.00  0.00     0.004 A 
ATOM      5  N1  <0> d          -2.396   1.340   0.033  0.00  0.00    -0.332 N 
ATOM      6  C5  <0> d          -1.248   2.043   0.031  0.00  0.00     0.247 A 
ATOM      7  O1  <0> d          -1.281   3.264   0.038  0.00  0.00    -0.268 OA
ATOM      8 Cl1  <0> d          -1.232  -2.440   0.001  0.00  0.00    -0.080 Cl
ATOM      9  O2  <0> d           1.178  -0.676  -0.014  0.00  0.00    -0.190 OA
ATOM     10  H1  <0> d           0.907   1.938   0.004  0.00  0.00     0.096 H 
ATOM     11  H2  <0> d          -3.322  -0.559   0.032  0.00  0.00     0.114 H 
ATOM     12  H3  <0> d          -3.244   1.811   0.043  0.00  0.00     0.168 HD
ENDROOT
TORSDOF 0
