REMARK  2 active torsions:
REMARK  status: ('A' for Active; 'I' for Inactive)
REMARK    1  A    between atoms: C1_1  and  C2_2 
REMARK    2  A    between atoms: C7_7  and  C8_8 
ROOT
ATOM      1  C2  <0> d          -0.267  -0.035   0.044  0.00  0.00    -0.045 A 
ATOM      2  C3  <0> d          -0.366  -0.720  -1.150  0.00  0.00    -0.076 A 
ATOM      3  C4  <0> d          -0.080  -2.072  -1.201  0.00  0.00    -0.082 A 
ATOM      4  C5  <0> d           0.307  -2.748  -0.056  0.00  0.00    -0.082 A 
ATOM      5  C6  <0> d           0.410  -2.077   1.144  0.00  0.00    -0.066 A 
ATOM      6  C7  <0> d           0.128  -0.709   1.201  0.00  0.00     0.046 A 
ATOM      7  H4  <0> d          -0.667  -0.199  -2.046  0.00  0.00     0.084 H 
ATOM      8  H5  <0> d          -0.159  -2.604  -2.138  0.00  0.00     0.083 H 
ATOM      9  H6  <0> d           0.528  -3.804  -0.103  0.00  0.00     0.083 H 
ATOM     10  H7  <0> d           0.711  -2.606   2.036  0.00  0.00     0.085 H 
ENDROOT
BRANCH   1  11
ATOM     11  C1  <0> d          -0.579   1.439   0.097  0.00  0.00    -0.050 C 
ATOM     12  H1  <0> d           0.344   2.009  -0.006  0.00  0.00     0.033 H 
ATOM     13  H2  <0> d          -1.258   1.696  -0.716  0.00  0.00     0.033 H 
ATOM     14  H3  <0> d          -1.049   1.676   1.051  0.00  0.00     0.033 H 
ENDBRANCH   1  11
BRANCH   6  15
ATOM     15  C8  <0> d           0.243   0.018   2.480  0.00  0.00     0.209 C 
ATOM     16  O1  <0> d           0.923   1.031   2.548  0.00  0.00    -0.644 OA
ATOM     17  O2  <0> d          -0.343  -0.393   3.472  0.00  0.00    -0.644 OA
ENDBRANCH   6  15
TORSDOF 2
