REMARK  3 active torsions:
REMARK  status: ('A' for Active; 'I' for Inactive)
REMARK    1  A    between atoms: C1_1  and  C2_2 
REMARK    2  A    between atoms: C3_5  and  N3_7 
REMARK    3  A    between atoms: N3_7  and  C4_8 
ROOT
ATOM      1  C2  <0> d           1.090   1.974   0.002  0.00  0.00     0.097 A 
ATOM      2  N1  <0> d          -0.015   1.257   0.009  0.00  0.00    -0.145 NA
ATOM      3  N2  <0> d           0.002  -0.004   0.002  0.00  0.00    -0.124 NA
ATOM      4  C3  <0> d           1.139  -0.688  -0.013  0.00  0.00     0.189 A 
ATOM      5  S1  <0> d           2.312   0.665  -0.016  0.00  0.00    -0.034 SA
ENDROOT
BRANCH   4   6
ATOM      6  N3  <0> d           1.356  -2.058  -0.021  0.00  0.00    -0.372 N 
ATOM      7  H4  <0> d           2.262  -2.405  -0.032  0.00  0.00     0.161 HD
BRANCH   6   8
ATOM      8  C4  <0> d           0.218  -2.980  -0.015  0.00  0.00    -0.019 C 
ATOM      9  H5  <0> d           0.583  -4.007  -0.024  0.00  0.00     0.056 H 
ATOM     10  H6  <0> d          -0.379  -2.814   0.881  0.00  0.00     0.056 H 
ATOM     11  H7  <0> d          -0.396  -2.805  -0.898  0.00  0.00     0.056 H 
ENDBRANCH   6   8
ENDBRANCH   4   6
BRANCH   1  12
ATOM     12  C1  <0> d           1.274   3.470   0.008  0.00  0.00    -0.028 C 
ATOM     13  H1  <0> d           1.328   3.826   1.037  0.00  0.00     0.036 H 
ATOM     14  H2  <0> d           2.196   3.725  -0.514  0.00  0.00     0.036 H 
ATOM     15  H3  <0> d           0.430   3.942  -0.496  0.00  0.00     0.036 H 
ENDBRANCH   1  12
TORSDOF 3
