REMARK  5 active torsions:
REMARK  status: ('A' for Active; 'I' for Inactive)
REMARK    1  A    between atoms: C1_1  and  C2_2 
REMARK    2  A    between atoms: C2_2  and  O1_3 
REMARK    3  A    between atoms: O1_3  and  C3_4 
REMARK    4  A    between atoms: C3_4  and  C4_6 
REMARK    5  A    between atoms: C6_8  and  N2_12 
ROOT
ATOM      1  C4  <0> d           0.663   3.193   0.012  0.00  0.00     0.110 A 
ATOM      2  C5  <0> d          -0.717   3.192   0.025  0.00  0.00    -0.025 A 
ATOM      3  C6  <0> d          -1.128   1.852   0.017  0.00  0.00     0.043 A 
ATOM      4  C7  <0> d          -0.013   1.076   0.008  0.00  0.00     0.003 A 
ATOM      5  N1  <0> d           1.082   1.882   0.002  0.00  0.00    -0.359 N 
ATOM      6  H1  <0> d           2.005   1.583  -0.008  0.00  0.00     0.165 HD
ATOM      7  H7  <0> d          -1.360   4.060   0.036  0.00  0.00     0.090 H 
ATOM      8  H8  <0> d           0.002  -0.004   0.002  0.00  0.00     0.114 H 
ENDROOT
BRANCH   1   9
ATOM      9  C3  <0> d           1.526   4.377   0.011  0.00  0.00     0.310 C 
ATOM     10  O2  <0> d           1.034   5.489   0.021  0.00  0.00    -0.258 OA
BRANCH   9  11
ATOM     11  O1  <0> d           2.868   4.233  -0.003  0.00  0.00    -0.317 OA
BRANCH  11  12
ATOM     12  C2  <0> d           3.648   5.430  -0.003  0.00  0.00     0.026 C 
ATOM     13  H5  <0> d           3.408   6.020  -0.888  0.00  0.00     0.074 H 
ATOM     14  H6  <0> d           3.425   6.010   0.892  0.00  0.00     0.074 H 
BRANCH  12  15
ATOM     15  C1  <0> d           5.135   5.069  -0.019  0.00  0.00    -0.056 C 
ATOM     16  H2  <0> d           5.375   4.480   0.866  0.00  0.00     0.030 H 
ATOM     17  H3  <0> d           5.359   4.489  -0.914  0.00  0.00     0.030 H 
ATOM     18  H4  <0> d           5.730   5.982  -0.020  0.00  0.00     0.030 H 
ENDBRANCH  12  15
ENDBRANCH  11  12
ENDBRANCH   9  11
ENDBRANCH   1   9
BRANCH   3  19
ATOM     19  N2  <0> d          -2.458   1.393   0.020  0.00  0.00    -0.398 N 
ATOM     20  H9  <0> d          -2.642   0.440   0.016  0.00  0.00     0.156 HD
ATOM     21  H10 <0> d          -3.191   2.028   0.026  0.00  0.00     0.156 HD
ENDBRANCH   3  19
TORSDOF 5
