REMARK  3 active torsions:
REMARK  status: ('A' for Active; 'I' for Inactive)
REMARK    1  A    between atoms: C1_1  and  C2_2 
REMARK    2  A    between atoms: C3_3  and  N3_9 
REMARK    3  A    between atoms: C5_6  and  C6_8 
ROOT
ATOM      1  C2  <0> d          -1.183  -0.735   0.015  0.00  0.00     0.060 A 
ATOM      2  C3  <0> d           0.002  -0.004   0.002  0.00  0.00     0.068 A 
ATOM      3  C4  <0> d           1.207  -0.702  -0.013  0.00  0.00     0.031 A 
ATOM      4  N1  <0> d           1.182  -2.025  -0.020  0.00  0.00    -0.244 NA
ATOM      5  C5  <0> d           0.038  -2.680  -0.013  0.00  0.00     0.122 A 
ATOM      6  N2  <0> d          -1.123  -2.056   0.002  0.00  0.00    -0.237 NA
ATOM      7  H4  <0> d           2.148  -0.172  -0.019  0.00  0.00     0.118 H 
ENDROOT
BRANCH   1   8
ATOM      8  C1  <0> d          -2.516  -0.031   0.039  0.00  0.00    -0.033 C 
ATOM      9  H1  <0> d          -2.355   1.057   0.047  0.00  0.00     0.035 H 
ATOM     10  H2  <0> d          -3.071  -0.327   0.941  0.00  0.00     0.035 H 
ATOM     11  H3  <0> d          -3.093  -0.310  -0.855  0.00  0.00     0.035 H 
ENDBRANCH   1   8
BRANCH   2  12
ATOM     12  N3  <0> d          -0.017   1.393   0.010  0.00  0.00    -0.396 N 
ATOM     13  H8  <0> d           0.928   1.956  -0.001  0.00  0.00     0.156 HD
ATOM     14  H9  <0> d          -0.977   1.930   0.026  0.00  0.00     0.156 HD
ENDBRANCH   2  12
BRANCH   5  15
ATOM     15  C6  <0> d           0.059  -4.187  -0.021  0.00  0.00    -0.019 C 
ATOM     16  H5  <0> d          -0.973  -4.568  -0.013  0.00  0.00     0.037 H 
ATOM     17  H6  <0> d           0.591  -4.551   0.871  0.00  0.00     0.037 H 
ATOM     18  H7  <0> d           0.574  -4.542  -0.925  0.00  0.00     0.037 H 
ENDBRANCH   5  15
TORSDOF 3
