REMARK  2 active torsions:
REMARK  status: ('A' for Active; 'I' for Inactive)
REMARK    1  A    between atoms: C2_5  and  S1_7 
REMARK    2  A    between atoms: S1_7  and  C3_8 
ROOT
ATOM      1  C3  <0> d           3.701  -1.685  -0.042  0.00  0.00     0.063 C 
ATOM      2  C4  <0> d           4.437  -2.960  -0.056  0.00  0.00     0.069 C 
ATOM      3  N4  <0> d           5.005  -3.944  -0.067  0.00  0.00    -0.197 NA
ATOM      4  H3  <0> d           3.955  -1.109  -0.932  0.00  0.00     0.071 H 
ATOM      5  H4  <0> d           3.973  -1.118   0.848  0.00  0.00     0.071 H 
ENDROOT
BRANCH   1   6
ATOM      6  S1  <0> d           1.921  -2.016  -0.027  0.00  0.00    -0.076 SA
BRANCH   6   7
ATOM      7  C2  <0> d           1.303  -0.366  -0.012  0.00  0.00     0.184 A 
ATOM      8  N2  <0> d           0.002  -0.004   0.002  0.00  0.00    -0.254 N 
ATOM      9  N1  <0> d          -0.017   1.400   0.010  0.00  0.00    -0.166 NA
ATOM     10  H1  <0> d          -0.766  -0.596   0.006  0.00  0.00     0.191 HD
ATOM     11  C1  <0> d           1.226   1.799   0.000  0.00  0.00     0.108 A 
ATOM     12  N3  <0> d           2.028   0.733  -0.013  0.00  0.00    -0.215 NA
ATOM     13  H2  <0> d           1.554   2.828   0.002  0.00  0.00     0.149 H 
ENDBRANCH   6   7
ENDBRANCH   1   6
TORSDOF 2
