REMARK  2 active torsions:
REMARK  status: ('A' for Active; 'I' for Inactive)
REMARK    1  A    between atoms: C2_2  and  N4_12 
REMARK    2  A    between atoms: C3_3  and  N3_11 
ROOT
ATOM      1  C1  <0> d          -0.017   1.384   0.010  0.00  0.00    -0.027 A 
ATOM      2  C2  <0> d           1.173   2.089   0.002  0.00  0.00     0.054 A 
ATOM      3  C3  <0> d           2.395   1.409  -0.013  0.00  0.00     0.054 A 
ATOM      4  C4  <0> d           2.425   0.029  -0.021  0.00  0.00    -0.025 A 
ATOM      5  C5  <0> d           1.226  -0.692  -0.014  0.00  0.00     0.087 A 
ATOM      6  C6  <0> d           0.002  -0.004   0.002  0.00  0.00     0.064 A 
ATOM      7  N1  <0> d          -0.981  -0.976   0.006  0.00  0.00    -0.349 N 
ATOM      8  H1  <0> d          -1.939  -0.825   0.016  0.00  0.00     0.167 HD
ATOM      9  C7  <0> d          -0.355  -2.185  -0.006  0.00  0.00     0.065 A 
ATOM     10  N2  <0> d           0.935  -2.019  -0.018  0.00  0.00    -0.242 NA
ATOM     11  H2  <0> d          -0.959   1.913   0.026  0.00  0.00     0.090 H 
ATOM     12  H3  <0> d           3.370  -0.493  -0.034  0.00  0.00     0.090 H 
ATOM     13  H4  <0> d          -0.856  -3.141  -0.006  0.00  0.00     0.143 H 
ENDROOT
BRANCH   2  14
ATOM     14  N4  <0> d           1.154   3.490   0.009  0.00  0.00    -0.397 N 
ATOM     15  H7  <0> d           0.308   3.963   0.020  0.00  0.00     0.156 HD
ATOM     16  H8  <0> d           1.988   3.986   0.004  0.00  0.00     0.156 HD
ENDBRANCH   2  14
BRANCH   3  17
ATOM     17  N3  <0> d           3.596   2.132  -0.021  0.00  0.00    -0.397 N 
ATOM     18  H5  <0> d           3.578   3.102  -0.015  0.00  0.00     0.156 HD
ATOM     19  H6  <0> d           4.445   1.663  -0.032  0.00  0.00     0.156 HD
ENDBRANCH   3  17
TORSDOF 2
