REMARK  0 active torsions:
REMARK  status: ('A' for Active; 'I' for Inactive)
ROOT
ATOM      1  C1  <0> d           3.814  -0.210  -0.035  0.00  0.00    -0.054 A 
ATOM      2  C2  <0> d           4.468   0.962  -0.035  0.00  0.00    -0.020 A 
ATOM      3  N1  <0> d           3.572   1.997  -0.021  0.00  0.00    -0.350 N 
ATOM      4  H1  <0> d           3.809   2.938  -0.018  0.00  0.00     0.166 HD
ATOM      5  C3  <0> d           2.288   1.507  -0.012  0.00  0.00     0.137 A 
ATOM      6  C4  <0> d           2.384   0.102  -0.020  0.00  0.00     0.014 A 
ATOM      7  C5  <0> d           1.217  -0.666  -0.013  0.00  0.00    -0.031 A 
ATOM      8  C6  <0> d           0.002  -0.004   0.002  0.00  0.00     0.134 A 
ATOM      9  C7  <0> d          -0.017   1.384   0.010  0.00  0.00     0.042 A 
ATOM     10  N2  <0> d           1.095   2.088   0.003  0.00  0.00    -0.239 NA
ATOM     11  F1  <0> d          -1.155  -0.702   0.010  0.00  0.00    -0.205 F 
ATOM     12  H2  <0> d           4.257  -1.194  -0.045  0.00  0.00     0.087 H 
ATOM     13  H3  <0> d           5.543   1.072  -0.046  0.00  0.00     0.111 H 
ATOM     14  H4  <0> d           1.263  -1.745  -0.019  0.00  0.00     0.089 H 
ATOM     15  H5  <0> d          -0.966   1.899   0.017  0.00  0.00     0.119 H 
ENDROOT
TORSDOF 0
