REMARK  4 active torsions:
REMARK  status: ('A' for Active; 'I' for Inactive)
REMARK    1  A    between atoms: C1_1  and  C2_2 
REMARK    2  A    between atoms: C2_2  and  O2_4 
REMARK    3  A    between atoms: O2_4  and  C3_5 
REMARK    4  A    between atoms: C3_5  and  C4_6 
ROOT
ATOM      1  C3  <0> d           2.367   1.117  -0.015  0.00  0.00     0.242 C 
ATOM      2  C5  <0> d           3.522   2.029  -0.021  0.00  0.00     0.114 C 
ATOM      3  N1  <0> d           4.414   2.733  -0.025  0.00  0.00    -0.193 NA
ATOM      4  C6  <0> d           2.424   0.262   1.182  0.00  0.00     0.114 C 
ATOM      5  N2  <0> d           2.467  -0.398   2.106  0.00  0.00    -0.193 NA
ENDROOT
BRANCH   1   6
ATOM      6  O2  <0> d           1.139   1.891   0.001  0.00  0.00    -0.281 OA
BRANCH   6   7
ATOM      7  C2  <0> d          -0.014   1.204   0.009  0.00  0.00     0.257 C 
ATOM      8  O1  <0> d           0.002  -0.004   0.002  0.00  0.00    -0.266 OA
BRANCH   7   9
ATOM      9  C1  <0> d          -1.329   1.940   0.019  0.00  0.00     0.004 C 
ATOM     10  H1  <0> d          -2.148   1.220   0.019  0.00  0.00     0.041 H 
ATOM     11  H2  <0> d          -1.391   2.561   0.913  0.00  0.00     0.041 H 
ATOM     12  H3  <0> d          -1.400   2.570  -0.867  0.00  0.00     0.041 H 
ENDBRANCH   7   9
ENDBRANCH   6   7
ENDBRANCH   1   6
BRANCH   1  13
ATOM     13  C4  <0> d           2.402   0.241  -1.269  0.00  0.00    -0.022 C 
ATOM     14  H4  <0> d           2.360   0.875  -2.155  0.00  0.00     0.034 H 
ATOM     15  H5  <0> d           3.324  -0.340  -1.281  0.00  0.00     0.034 H 
ATOM     16  H6  <0> d           1.547  -0.434  -1.264  0.00  0.00     0.034 H 
ENDBRANCH   1  13
TORSDOF 4
