REMARK  1 active torsions:
REMARK  status: ('A' for Active; 'I' for Inactive)
REMARK    1  A    between atoms: C4_8  and  C5_9 
ROOT
ATOM      1  C1  <0> d           0.002  -0.004   0.002  0.00  0.00    -0.033 A 
ATOM      2  C2  <0> d           1.240  -0.667  -0.013  0.00  0.00     0.010 A 
ATOM      3  N1  <0> d           2.355   0.027  -0.020  0.00  0.00    -0.206 NA
ATOM      4  C3  <0> d           2.335   1.365  -0.013  0.00  0.00     0.346 A 
ATOM      5  O1  <0> d           3.388   1.980  -0.020  0.00  0.00    -0.245 OA
ATOM      6  N2  <0> d           1.172   2.043   0.002  0.00  0.00    -0.301 N 
ATOM      7  H1  <0> d           1.177   3.143   0.008  0.00  0.00     0.171 HD
ATOM      8  C4  <0> d          -0.017   1.363   0.009  0.00  0.00     0.115 A 
ATOM      9  H2  <0> d          -0.921  -0.565   0.007  0.00  0.00     0.089 H 
ATOM     10  H3  <0> d           1.275  -1.747  -0.019  0.00  0.00     0.115 H 
ENDROOT
BRANCH   8  11
ATOM     11  C5  <0> d          -1.304   2.098   0.020  0.00  0.00     0.227 C 
ATOM     12  O2  <0> d          -2.352   1.486   0.021  0.00  0.00    -0.643 OA
ATOM     13  O3  <0> d          -1.310   3.445   0.027  0.00  0.00    -0.643 OA
ENDBRANCH   8  11
TORSDOF 1
