REMARK  2 active torsions:
REMARK  status: ('A' for Active; 'I' for Inactive)
REMARK    1  A    between atoms: C1_1  and  O1_2 
REMARK    2  A    between atoms: O1_2  and  C2_3 
ROOT
ATOM      1  C2  <0> d          -0.149   1.182   2.380  0.00  0.00     0.069 A 
ATOM      2  C3  <0> d           0.995   0.396   2.416  0.00  0.00    -0.050 A 
ATOM      3  C4  <0> d           1.541   0.023   3.632  0.00  0.00    -0.073 A 
ATOM      4  C5  <0> d           0.951   0.431   4.806  0.00  0.00    -0.044 A 
ATOM      5  C6  <0> d          -0.200   1.222   4.785  0.00  0.00    -0.027 A 
ATOM      6  C7  <0> d          -0.745   1.600   3.556  0.00  0.00    -0.040 A 
ATOM      7  C8  <0> d          -0.610   1.505   6.173  0.00  0.00    -0.076 A 
ATOM      8  C9  <0> d           0.215   0.940   7.037  0.00  0.00    -0.098 A 
ATOM      9  C10 <0> d           1.283   0.205   6.261  0.00  0.00    -0.025 A 
ATOM     10  H4  <0> d           1.459   0.075   1.495  0.00  0.00     0.087 H 
ATOM     11  H5  <0> d           2.431  -0.588   3.659  0.00  0.00     0.084 H 
ATOM     12  H6  <0> d          -1.633   2.215   3.525  0.00  0.00     0.089 H 
ATOM     13  H7  <0> d          -1.471   2.097   6.447  0.00  0.00     0.084 H 
ATOM     14  H8  <0> d           0.139   0.994   8.113  0.00  0.00     0.077 H 
ATOM     15  H9  <0> d           1.253  -0.859   6.494  0.00  0.00     0.046 H 
ATOM     16  H10 <0> d           2.266   0.615   6.491  0.00  0.00     0.046 H 
ENDROOT
BRANCH   1  17
ATOM     17  O1  <0> d          -0.682   1.547   1.184  0.00  0.00    -0.356 OA
BRANCH  17  18
ATOM     18  C1  <0> d          -0.013   1.086   0.008  0.00  0.00     0.010 C 
ATOM     19  H1  <0> d           0.002  -0.004   0.002  0.00  0.00     0.066 H 
ATOM     20  H2  <0> d           1.010   1.463   0.000  0.00  0.00     0.066 H 
ATOM     21  H3  <0> d          -0.540   1.447  -0.875  0.00  0.00     0.066 H 
ENDBRANCH  17  18
ENDBRANCH   1  17
TORSDOF 2
