REMARK  3 active torsions:
REMARK  status: ('A' for Active; 'I' for Inactive)
REMARK    1  A    between atoms: C1_1  and  C2_2 
REMARK    2  A    between atoms: C4_4  and  O2_9 
REMARK    3  A    between atoms: C7_7  and  O1_8 
ROOT
ATOM      1  C2  <0> d           0.002  -0.004   0.002  0.00  0.00    -0.026 A 
ATOM      2  C3  <0> d           0.006  -0.688  -1.198  0.00  0.00    -0.043 A 
ATOM      3  C4  <0> d           0.025  -2.075  -1.206  0.00  0.00     0.066 A 
ATOM      4  C5  <0> d           0.041  -2.775  -0.008  0.00  0.00    -0.048 A 
ATOM      5  C6  <0> d           0.037  -2.091   1.192  0.00  0.00    -0.048 A 
ATOM      6  C7  <0> d           0.023  -0.704   1.199  0.00  0.00     0.071 A 
ATOM      7  H4  <0> d          -0.007  -0.143  -2.131  0.00  0.00     0.088 H 
ATOM      8  H5  <0> d           0.055  -3.855  -0.014  0.00  0.00     0.087 H 
ATOM      9  H6  <0> d           0.048  -2.636   2.124  0.00  0.00     0.087 H 
ENDROOT
BRANCH   1  10
ATOM     10  C1  <0> d          -0.018   1.503   0.010  0.00  0.00    -0.049 C 
ATOM     11  H1  <0> d           1.004   1.880   0.003  0.00  0.00     0.033 H 
ATOM     12  H2  <0> d          -0.545   1.864  -0.873  0.00  0.00     0.033 H 
ATOM     13  H3  <0> d          -0.529   1.854   0.907  0.00  0.00     0.033 H 
ENDBRANCH   1  10
BRANCH   6  14
ATOM     14  O1  <0> d           0.025  -0.030   2.380  0.00  0.00    -0.360 OA
ATOM     15  H7  <0> d          -0.858   0.152   2.731  0.00  0.00     0.217 HD
ENDBRANCH   6  14
BRANCH   3  16
ATOM     16  O2  <0> d           0.028  -2.748  -2.387  0.00  0.00    -0.361 OA
ATOM     17  H8  <0> d           0.912  -2.931  -2.733  0.00  0.00     0.217 HD
ENDBRANCH   3  16
TORSDOF 3
