REMARK  6 active torsions:
REMARK  status: ('A' for Active; 'I' for Inactive)
REMARK    1  A    between atoms: C1_1  and  C2_2 
REMARK    2  A    between atoms: C2_2  and  C3_3 
REMARK    3  A    between atoms: C3_3  and  C4_4 
REMARK    4  A    between atoms: C4_4  and  C5_6 
REMARK    5  A    between atoms: C5_6  and  C6_7 
REMARK    6  A    between atoms: C6_7  and  C7_8 
ROOT
ATOM      1  C4  <0> d          -0.014   1.203   0.009  0.00  0.00     0.127 C 
ATOM      2  O1  <0> d           0.002  -0.004   0.002  0.00  0.00    -0.298 OA
ENDROOT
BRANCH   1   3
ATOM      3  C3  <0> d           1.280   1.975   0.000  0.00  0.00    -0.010 C 
ATOM      4  H6  <0> d           1.318   2.554  -0.813  0.00  0.00     0.044 H 
ATOM      5  H7  <0> d           1.338   2.597   0.893  0.00  0.00     0.044 H 
BRANCH   3   6
ATOM      6  C2  <0> d           2.457   0.996  -0.016  0.00  0.00    -0.062 C 
ATOM      7  H4  <0> d           2.416   0.364   0.871  0.00  0.00     0.033 H 
ATOM      8  H5  <0> d           2.399   0.374  -0.909  0.00  0.00     0.033 H 
BRANCH   6   9
ATOM      9  C1  <0> d           3.771   1.779  -0.024  0.00  0.00    -0.076 C 
ATOM     10  H1  <0> d           3.812   2.411  -0.911  0.00  0.00     0.027 H 
ATOM     11  H2  <0> d           3.829   2.402   0.868  0.00  0.00     0.027 H 
ATOM     12  H3  <0> d           4.609   1.082  -0.036  0.00  0.00     0.027 H 
ENDBRANCH   6   9
ENDBRANCH   3   6
ENDBRANCH   1   3
BRANCH   1  13
ATOM     13  C5  <0> d          -1.329   1.939   0.019  0.00  0.00    -0.010 C 
ATOM     14  H8  <0> d          -1.386   2.509   0.839  0.00  0.00     0.044 H 
ATOM     15  H9  <0> d          -1.400   2.570  -0.867  0.00  0.00     0.044 H 
BRANCH  13  16
ATOM     16  C6  <0> d          -2.479   0.929   0.019  0.00  0.00    -0.062 C 
ATOM     17  H10 <0> d          -2.417   0.308  -0.875  0.00  0.00     0.033 H 
ATOM     18  H11 <0> d          -2.408   0.298   0.905  0.00  0.00     0.033 H 
BRANCH  16  19
ATOM     19  C7  <0> d          -3.814   1.676   0.029  0.00  0.00    -0.076 C 
ATOM     20  H12 <0> d          -4.633   0.957   0.029  0.00  0.00     0.027 H 
ATOM     21  H13 <0> d          -3.876   2.297   0.923  0.00  0.00     0.027 H 
ATOM     22  H14 <0> d          -3.885   2.307  -0.857  0.00  0.00     0.027 H 
ENDBRANCH  16  19
ENDBRANCH  13  16
ENDBRANCH   1  13
TORSDOF 6
