REMARK  4 active torsions:
REMARK  status: ('A' for Active; 'I' for Inactive)
REMARK    1  A    between atoms: C1_1  and  C2_2 
REMARK    2  A    between atoms: C2_2  and  C3_4 
REMARK    3  A    between atoms: C6_7  and  N1_11 
REMARK    4  A    between atoms: C8_9  and  O2_10 
ROOT
ATOM      1  C3  <0> d          -3.635   3.011   0.036  0.00  0.00     0.043 A 
ATOM      2  C4  <0> d          -2.422   3.716   0.034  0.00  0.00    -0.065 A 
ATOM      3  C5  <0> d          -1.239   3.039   0.030  0.00  0.00    -0.057 A 
ATOM      4  C6  <0> d          -1.223   1.644   0.017  0.00  0.00     0.028 A 
ATOM      5  C7  <0> d          -2.416   0.930   0.019  0.00  0.00    -0.025 A 
ATOM      6  C8  <0> d          -3.623   1.604   0.028  0.00  0.00     0.081 A 
ATOM      7  H4  <0> d          -2.426   4.795   0.040  0.00  0.00     0.085 H 
ATOM      8  H5  <0> d          -0.308   3.586   0.033  0.00  0.00     0.086 H 
ATOM      9  H6  <0> d          -2.399  -0.150   0.013  0.00  0.00     0.091 H 
ENDROOT
BRANCH   1  10
ATOM     10  C2  <0> d          -4.907   3.736   0.045  0.00  0.00     0.158 C 
ATOM     11  O1  <0> d          -5.954   3.123   0.046  0.00  0.00    -0.293 OA
BRANCH  10  12
ATOM     12  C1  <0> d          -4.915   5.243   0.053  0.00  0.00    -0.017 C 
ATOM     13  H1  <0> d          -4.921   5.581  -0.888  0.00  0.00     0.038 H 
ATOM     14  H2  <0> d          -5.804   5.598   0.573  0.00  0.00     0.038 H 
ATOM     15  H3  <0> d          -4.025   5.608   0.565  0.00  0.00     0.038 H 
ENDBRANCH  10  12
ENDBRANCH   1  10
BRANCH   6  16
ATOM     16  O2  <0> d          -4.790   0.912   0.029  0.00  0.00    -0.360 OA
ATOM     17  H7  <0> d          -5.124   0.707   0.913  0.00  0.00     0.217 HD
ENDBRANCH   6  16
BRANCH   4  18
ATOM     18  N1  <0> d          -0.011   0.966   0.007  0.00  0.00    -0.399 N 
ATOM     19  H8  <0> d           0.002  -0.004   0.002  0.00  0.00     0.156 HD
ATOM     20  H9  <0> d           0.822   1.462   0.002  0.00  0.00     0.156 HD
ENDBRANCH   4  18
TORSDOF 4
