REMARK  2 active torsions:
REMARK  status: ('A' for Active; 'I' for Inactive)
REMARK    1  A    between atoms: C1_1  and  C2_2 
REMARK    2  A    between atoms: C5_6  and  C6_8 
ROOT
ATOM      1  C2  <0> d          -0.718   1.572   1.248  0.00  0.00     0.034 A 
ATOM      2  C3  <0> d          -0.005   1.809   2.415  0.00  0.00    -0.043 A 
ATOM      3  C4  <0> d          -0.694   2.257   3.533  0.00  0.00     0.007 A 
ATOM      4  N1  <0> d          -2.000   2.442   3.454  0.00  0.00    -0.236 NA
ATOM      5  C5  <0> d          -2.650   2.205   2.324  0.00  0.00     0.227 A 
ATOM      6  N2  <0> d          -2.022   1.782   1.236  0.00  0.00    -0.228 NA
ATOM      7  H4  <0> d           1.063   1.650   2.452  0.00  0.00     0.088 H 
ATOM      8  H5  <0> d          -0.170   2.451   4.457  0.00  0.00     0.114 H 
ENDROOT
BRANCH   1   9
ATOM      9  C1  <0> d          -0.013   1.086   0.008  0.00  0.00    -0.035 C 
ATOM     10  H1  <0> d           1.061   0.972   0.218  0.00  0.00     0.035 H 
ATOM     11  H2  <0> d          -0.153   1.815  -0.803  0.00  0.00     0.035 H 
ATOM     12  H3  <0> d          -0.432   0.115  -0.295  0.00  0.00     0.035 H 
ENDBRANCH   1   9
BRANCH   5  13
ATOM     13  C6  <0> d          -4.117   2.424   2.273  0.00  0.00     0.249 C 
ATOM     14  O1  <0> d          -4.728   2.212   1.246  0.00  0.00    -0.642 OA
ATOM     15  O2  <0> d          -4.771   2.858   3.368  0.00  0.00    -0.642 OA
ENDBRANCH   5  13
TORSDOF 2
