REMARK  3 active torsions:
REMARK  status: ('A' for Active; 'I' for Inactive)
REMARK    1  A    between atoms: C1_1  and  C2_2 
REMARK    2  A    between atoms: C2_2  and  C4_4 
REMARK    3  A    between atoms: C4_4  and  N1_5 
ROOT
ATOM      1  N1  <0> d          -1.867  -0.948   1.235  0.00  0.00     0.096 N 
ATOM      2  C5  <0> d          -2.406   0.327   1.731  0.00  0.00     0.133 C 
ATOM      3  C6  <0> d          -2.951   0.128   3.147  0.00  0.00     0.044 C 
ATOM      4  O1  <0> d          -3.938  -0.908   3.132  0.00  0.00    -0.388 OA
ATOM      5  C7  <0> d          -3.447  -2.163   2.655  0.00  0.00     0.044 C 
ATOM      6  C8  <0> d          -2.906  -1.988   1.234  0.00  0.00     0.133 C 
ATOM      7  H8  <0> d          -1.614   1.075   1.748  0.00  0.00     0.083 H 
ATOM      8  H9  <0> d          -3.210   0.662   1.075  0.00  0.00     0.083 H 
ATOM      9  H10 <0> d          -2.137  -0.155   3.814  0.00  0.00     0.077 H 
ATOM     10  H11 <0> d          -3.404   1.056   3.497  0.00  0.00     0.077 H 
ATOM     11  H12 <0> d          -2.647  -2.513   3.308  0.00  0.00     0.077 H 
ATOM     12  H13 <0> d          -4.257  -2.892   2.649  0.00  0.00     0.077 H 
ATOM     13  H14 <0> d          -3.718  -1.690   0.570  0.00  0.00     0.083 H 
ATOM     14  H15 <0> d          -2.479  -2.929   0.888  0.00  0.00     0.083 H 
ENDROOT
BRANCH   1  15
ATOM     15  C4  <0> d          -1.281  -0.787  -0.102  0.00  0.00     0.133 C 
ATOM     16  H6  <0> d          -1.976  -0.240  -0.740  0.00  0.00     0.086 H 
ATOM     17  H7  <0> d          -1.088  -1.769  -0.535  0.00  0.00     0.086 H 
BRANCH  15  18
ATOM     18  C2  <0> d           0.013  -0.022   0.004  0.00  0.00    -0.065 C 
ATOM     19  C3  <0> d           0.026   1.272  -0.197  0.00  0.00    -0.118 C 
ATOM     20  H4  <0> d          -0.889   1.791  -0.440  0.00  0.00     0.067 H 
ATOM     21  H5  <0> d           0.954   1.821  -0.120  0.00  0.00     0.067 H 
BRANCH  18  22
ATOM     22  C1  <0> d           1.290  -0.745   0.343  0.00  0.00    -0.054 C 
ATOM     23  H1  <0> d           2.127  -0.049   0.289  0.00  0.00     0.033 H 
ATOM     24  H2  <0> d           1.221  -1.152   1.352  0.00  0.00     0.033 H 
ATOM     25  H3  <0> d           1.447  -1.558  -0.366  0.00  0.00     0.033 H 
ENDBRANCH  18  22
ENDBRANCH  15  18
ENDBRANCH   1  15
TORSDOF 3
