REMARK  4 active torsions:
REMARK  status: ('A' for Active; 'I' for Inactive)
REMARK    1  A    between atoms: C1_1  and  C2_2 
REMARK    2  A    between atoms: C5_6  and  C8_12 
REMARK    3  A    between atoms: C6_8  and  O1_11 
REMARK    4  A    between atoms: C8_12  and  C10_14 
ROOT
ATOM      1  C2  <0> d           1.262   1.575  -2.500  0.00  0.00    -0.055 C 
ATOM      2  H1  <0> d           0.273   1.118  -2.493  0.00  0.00     0.039 H 
ATOM      3  C3  <0> d           1.121   3.099  -2.491  0.00  0.00    -0.061 C 
ATOM      4  C4  <0> d           0.368   3.533  -1.232  0.00  0.00    -0.056 C 
ATOM      5  C5  <0> d           1.145   3.085   0.008  0.00  0.00    -0.008 C 
ATOM      6  H2  <0> d           2.135   3.542   0.001  0.00  0.00     0.050 H 
ATOM      7  C6  <0> d           1.286   1.562  -0.002  0.00  0.00     0.043 C 
ATOM      8  H3  <0> d           1.840   1.243   0.881  0.00  0.00     0.084 H 
ATOM      9  C7  <0> d           2.040   1.127  -1.261  0.00  0.00    -0.037 C 
ATOM     10  H7  <0> d           0.567   3.418  -3.374  0.00  0.00     0.033 H 
ATOM     11  H8  <0> d           2.111   3.555  -2.498  0.00  0.00     0.033 H 
ATOM     12  H9  <0> d          -0.622   3.076  -1.225  0.00  0.00     0.034 H 
ATOM     13  H10 <0> d           0.267   4.618  -1.225  0.00  0.00     0.034 H 
ATOM     14  H11 <0> d           3.029   1.584  -1.268  0.00  0.00     0.037 H 
ATOM     15  H12 <0> d           2.140   0.042  -1.268  0.00  0.00     0.037 H 
ENDROOT
BRANCH   5  16
ATOM     16  C8  <0> d           0.403   3.513   1.248  0.00  0.00    -0.086 C 
ATOM     17  C9  <0> d           0.975   4.317   2.109  0.00  0.00    -0.119 C 
ATOM     18  H14 <0> d           0.444   4.624   2.997  0.00  0.00     0.067 H 
ATOM     19  H15 <0> d           1.979   4.674   1.930  0.00  0.00     0.067 H 
BRANCH  16  20
ATOM     20  C10 <0> d          -0.998   3.016   1.497  0.00  0.00    -0.055 C 
ATOM     21  H16 <0> d          -1.303   2.363   0.679  0.00  0.00     0.033 H 
ATOM     22  H17 <0> d          -1.025   2.460   2.434  0.00  0.00     0.033 H 
ATOM     23  H18 <0> d          -1.679   3.864   1.558  0.00  0.00     0.033 H 
ENDBRANCH  16  20
ENDBRANCH   5  16
BRANCH   7  24
ATOM     24  O1  <0> d          -0.011   0.963   0.007  0.00  0.00    -0.395 OA
ATOM     25  H13 <0> d           0.002  -0.004   0.002  0.00  0.00     0.210 HD
ENDBRANCH   7  24
BRANCH   1  26
ATOM     26  C1  <0> d           2.016   1.141  -3.759  0.00  0.00    -0.073 C 
ATOM     27  H4  <0> d           3.006   1.598  -3.766  0.00  0.00     0.028 H 
ATOM     28  H5  <0> d           2.117   0.056  -3.766  0.00  0.00     0.028 H 
ATOM     29  H6  <0> d           1.462   1.460  -4.642  0.00  0.00     0.028 H 
ENDBRANCH   1  26
TORSDOF 4
