REMARK  0 active torsions:
REMARK  status: ('A' for Active; 'I' for Inactive)
ROOT
ATOM      1  C1  <0> d          -0.019   1.525   0.010  0.00  0.00    -0.064 C 
ATOM      2  C2  <0> d           1.413   2.063  -0.000  0.00  0.00    -0.059 C 
ATOM      3  C3  <0> d           2.128   1.634   1.285  0.00  0.00    -0.010 C 
ATOM      4  C4  <0> d           2.028   0.130   1.411  0.00  0.00     0.127 C 
ATOM      5  O1  <0> d           3.013  -0.542   1.606  0.00  0.00    -0.298 OA
ATOM      6  C5  <0> d           0.664  -0.511   1.288  0.00  0.00    -0.010 C 
ATOM      7  C6  <0> d           0.002  -0.004   0.002  0.00  0.00    -0.059 C 
ATOM      8  H1  <0> d          -0.531   1.876   0.907  0.00  0.00     0.033 H 
ATOM      9  H2  <0> d          -0.548   1.885  -0.872  0.00  0.00     0.033 H 
ATOM     10  H3  <0> d           1.945   1.663  -0.863  0.00  0.00     0.033 H 
ATOM     11  H4  <0> d           1.392   3.152  -0.058  0.00  0.00     0.033 H 
ATOM     12  H5  <0> d           3.176   1.929   1.237  0.00  0.00     0.044 H 
ATOM     13  H6  <0> d           1.651   2.106   2.144  0.00  0.00     0.044 H 
ATOM     14  H7  <0> d           0.771  -1.595   1.241  0.00  0.00     0.044 H 
ATOM     15  H8  <0> d           0.052  -0.238   2.147  0.00  0.00     0.044 H 
ATOM     16  H9  <0> d          -1.019  -0.381  -0.054  0.00  0.00     0.033 H 
ATOM     17  H10 <0> d           0.568  -0.355  -0.861  0.00  0.00     0.033 H 
ENDROOT
TORSDOF 0
