REMARK  6 active torsions:
REMARK  status: ('A' for Active; 'I' for Inactive)
REMARK    1  A    between atoms: C1_1  and  C2_2 
REMARK    2  A    between atoms: C2_2  and  C3_3 
REMARK    3  A    between atoms: C3_3  and  C4_4 
REMARK    4  A    between atoms: C4_4  and  C5_5 
REMARK    5  A    between atoms: C5_5  and  C6_6 
REMARK    6  A    between atoms: C7_9  and  N3_11 
ROOT
ATOM      1  C4  <0> d           0.002  -0.004   0.002  0.00  0.00    -0.058 C 
ATOM      2  H8  <0> d           0.534  -0.368   0.893  0.00  0.00     0.033 H 
ATOM      3  H9  <0> d          -1.030  -0.385   0.010  0.00  0.00     0.033 H 
ENDROOT
BRANCH   1   4
ATOM      4  C3  <0> d          -0.019   1.526   0.010  0.00  0.00    -0.065 C 
ATOM      5  H6  <0> d          -0.551   1.890  -0.881  0.00  0.00     0.033 H 
ATOM      6  H7  <0> d           1.013   1.907   0.003  0.00  0.00     0.033 H 
BRANCH   4   7
ATOM      7  C2  <0> d          -0.735   2.019   1.269  0.00  0.00    -0.069 C 
ATOM      8  H4  <0> d          -0.203   1.655   2.160  0.00  0.00     0.032 H 
ATOM      9  H5  <0> d          -1.767   1.638   1.277  0.00  0.00     0.032 H 
BRANCH   7  10
ATOM     10  C1  <0> d          -0.756   3.549   1.278  0.00  0.00    -0.077 C 
ATOM     11  H1  <0> d          -1.270   3.904   2.183  0.00  0.00     0.027 H 
ATOM     12  H2  <0> d          -1.288   3.913   0.386  0.00  0.00     0.027 H 
ATOM     13  H3  <0> d           0.276   3.930   1.270  0.00  0.00     0.027 H 
ENDBRANCH   7  10
ENDBRANCH   4   7
ENDBRANCH   1   4
BRANCH   1  14
ATOM     14  C5  <0> d           0.718  -0.497  -1.257  0.00  0.00    -0.002 C 
ATOM     15  H10 <0> d           0.186  -0.133  -2.148  0.00  0.00     0.045 H 
ATOM     16  H11 <0> d           1.750  -0.117  -1.265  0.00  0.00     0.045 H 
BRANCH  14  17
ATOM     17  C6  <0> d           0.739  -2.004  -1.265  0.00  0.00     0.171 A 
ATOM     18  O1  <0> d           1.696  -2.790  -0.735  0.00  0.00    -0.260 OA
ATOM     19  C7  <0> d           1.314  -4.060  -0.967  0.00  0.00     0.265 A 
ATOM     20  N2  <0> d           0.173  -4.011  -1.611  0.00  0.00    -0.104 NA
ATOM     21  N1  <0> d          -0.167  -2.782  -1.780  0.00  0.00    -0.125 NA
BRANCH  19  22
ATOM     22  N3  <0> d           1.998  -5.203  -0.596  0.00  0.00    -0.362 N 
ATOM     23  H12 <0> d           2.953  -5.121  -0.056  0.00  0.00     0.159 HD
ATOM     24  H13 <0> d           1.588  -6.193  -0.842  0.00  0.00     0.159 HD
ENDBRANCH  19  22
ENDBRANCH  14  17
ENDBRANCH   1  14
TORSDOF 6
