REMARK  5 active torsions:
REMARK  status: ('A' for Active; 'I' for Inactive)
REMARK    1  A    between atoms: C1_1  and  C2_2 
REMARK    2  A    between atoms: C2_2  and  C3_3 
REMARK    3  A    between atoms: C2_2  and  C4_4 
REMARK    4  A    between atoms: C4_4  and  C5_6 
REMARK    5  A    between atoms: C4_4  and  O1_13 
ROOT
ATOM      1  C5  <0> d           0.002  -0.004   0.002  0.00  0.00    -0.013 C 
ATOM      2  H2  <0> d          -0.216  -0.374   1.004  0.00  0.00     0.050 H 
ATOM      3  C6  <0> d           1.378  -0.510  -0.437  0.00  0.00    -0.056 C 
ATOM      4  C7  <0> d           2.448   0.221   0.383  0.00  0.00    -0.061 C 
ATOM      5  C8  <0> d           2.444   1.697  -0.022  0.00  0.00    -0.050 C 
ATOM      6  C9  <0> d           1.044   2.236   0.004  0.00  0.00    -0.106 C 
ATOM      7  C10 <0> d          -0.018   1.496   0.010  0.00  0.00    -0.100 C 
ATOM      8  H10 <0> d           1.448  -1.583  -0.257  0.00  0.00     0.034 H 
ATOM      9  H11 <0> d           1.522  -0.306  -1.498  0.00  0.00     0.034 H 
ATOM     10  H12 <0> d           2.220   0.132   1.445  0.00  0.00     0.033 H 
ATOM     11  H13 <0> d           3.426  -0.215   0.181  0.00  0.00     0.033 H 
ATOM     12  H14 <0> d           3.063   2.264   0.673  0.00  0.00     0.038 H 
ATOM     13  H15 <0> d           2.851   1.796  -1.029  0.00  0.00     0.038 H 
ATOM     14  H16 <0> d           0.914   3.308   0.018  0.00  0.00     0.076 H 
ATOM     15  H17 <0> d          -0.979   1.990   0.017  0.00  0.00     0.077 H 
ENDROOT
BRANCH   1  16
ATOM     16  C4  <0> d          -1.059  -0.520  -0.972  0.00  0.00     0.045 C 
ATOM     17  H1  <0> d          -1.046  -1.610  -0.979  0.00  0.00     0.084 H 
BRANCH  16  18
ATOM     18  C2  <0> d          -2.439  -0.030  -0.528  0.00  0.00    -0.036 C 
ATOM     19  H6  <0> d          -2.453   1.060  -0.521  0.00  0.00     0.042 H 
BRANCH  18  20
ATOM     20  C1  <0> d          -3.501  -0.546  -1.502  0.00  0.00    -0.071 C 
ATOM     21  H3  <0> d          -3.488  -1.636  -1.509  0.00  0.00     0.028 H 
ATOM     22  H4  <0> d          -4.484  -0.197  -1.186  0.00  0.00     0.028 H 
ATOM     23  H5  <0> d          -3.287  -0.173  -2.504  0.00  0.00     0.028 H 
ENDBRANCH  18  20
BRANCH  18  24
ATOM     24  C3  <0> d          -2.739  -0.553   0.878  0.00  0.00    -0.071 C 
ATOM     25  H7  <0> d          -1.983  -0.185   1.571  0.00  0.00     0.028 H 
ATOM     26  H8  <0> d          -3.722  -0.204   1.193  0.00  0.00     0.028 H 
ATOM     27  H9  <0> d          -2.726  -1.643   0.870  0.00  0.00     0.028 H 
ENDBRANCH  18  24
ENDBRANCH  16  18
BRANCH  16  28
ATOM     28  O1  <0> d          -0.779  -0.032  -2.285  0.00  0.00    -0.395 OA
ATOM     29  H18 <0> d          -0.775   0.933  -2.353  0.00  0.00     0.210 HD
ENDBRANCH  16  28
ENDBRANCH   1  16
TORSDOF 5
