REMARK  2 active torsions:
REMARK  status: ('A' for Active; 'I' for Inactive)
REMARK    1  A    between atoms: C1_1  and  N1_2 
REMARK    2  A    between atoms: C3_4  and  C7_9 
REMARK       I    between atoms: C7_9  and  N2_11 
ROOT
ATOM      1  N1  <0> d          -3.667   1.884   0.029  0.00  0.00    -0.328 N 
ATOM      2  C2  <0> d          -2.490   1.231   0.015  0.00  0.00    -0.003 A 
ATOM      3  C3  <0> d          -1.301   1.932   0.019  0.00  0.00     0.047 A 
ATOM      4  C4  <0> d          -1.327   3.347   0.026  0.00  0.00    -0.061 A 
ATOM      5  C5  <0> d          -2.528   3.985   0.036  0.00  0.00    -0.016 A 
ATOM      6  C6  <0> d          -3.715   3.228   0.037  0.00  0.00     0.246 A 
ATOM      7  O1  <0> d          -4.794   3.796   0.046  0.00  0.00    -0.268 OA
ATOM      8  H4  <0> d          -2.476   0.151   0.004  0.00  0.00     0.113 H 
ATOM      9  H5  <0> d          -0.406   3.912   0.026  0.00  0.00     0.085 H 
ATOM     10  H6  <0> d          -2.571   5.064   0.042  0.00  0.00     0.092 H 
ENDROOT
BRANCH   3  11
ATOM     11  C7  <0> d          -0.014   1.212   0.009  0.00  0.00     0.250 C 
ATOM     12  O2  <0> d           0.002  -0.004   0.002  0.00  0.00    -0.268 OA
ATOM     13  N2  <0> d           1.143   1.902   0.001  0.00  0.00    -0.366 N 
ATOM     14  H7  <0> d           1.990   1.428  -0.009  0.00  0.00     0.159 HD
ATOM     15  H8  <0> d           1.130   2.872   0.007  0.00  0.00     0.159 HD
ENDBRANCH   3  11
BRANCH   1  16
ATOM     16  C1  <0> d          -4.916   1.118   0.030  0.00  0.00    -0.012 C 
ATOM     17  H1  <0> d          -5.763   1.805   0.038  0.00  0.00     0.057 H 
ATOM     18  H2  <0> d          -4.961   0.496  -0.863  0.00  0.00     0.057 H 
ATOM     19  H3  <0> d          -4.954   0.485   0.917  0.00  0.00     0.057 H 
ENDBRANCH   1  16
TORSDOF 2
