REMARK  5 active torsions:
REMARK  status: ('A' for Active; 'I' for Inactive)
REMARK    1  A    between atoms: C1_1  and  C2_2 
REMARK    2  A    between atoms: C5_5  and  C8_8 
REMARK    3  A    between atoms: C8_8  and  C9_9 
REMARK    4  A    between atoms: C8_8  and  C10_10 
REMARK    5  A    between atoms: C8_8  and  O1_11 
ROOT
ATOM      1  C2  <0> d           1.171   2.086   0.002  0.00  0.00    -0.062 A 
ATOM      2  C3  <0> d          -0.017   1.378   0.010  0.00  0.00    -0.077 A 
ATOM      3  C4  <0> d           0.002  -0.004   0.002  0.00  0.00    -0.073 A 
ATOM      4  C5  <0> d           1.208  -0.679  -0.013  0.00  0.00    -0.025 A 
ATOM      5  C6  <0> d           2.396   0.029  -0.021  0.00  0.00    -0.073 A 
ATOM      6  C7  <0> d           2.377   1.411  -0.015  0.00  0.00    -0.077 A 
ATOM      7  H4  <0> d          -0.959   1.905   0.017  0.00  0.00     0.084 H 
ATOM      8  H5  <0> d          -0.926  -0.557   0.008  0.00  0.00     0.084 H 
ATOM      9  H6  <0> d           3.339  -0.499  -0.032  0.00  0.00     0.084 H 
ATOM     10  H7  <0> d           3.305   1.963  -0.021  0.00  0.00     0.084 H 
ENDROOT
BRANCH   4  11
ATOM     11  C8  <0> d           1.229  -2.186  -0.021  0.00  0.00     0.077 C 
BRANCH  11  12
ATOM     12  C9  <0> d           2.478  -2.675  -0.756  0.00  0.00    -0.044 C 
ATOM     13  H8  <0> d           2.493  -3.775  -0.762  0.00  0.00     0.032 H 
ATOM     14  H9  <0> d           3.376  -2.299  -0.245  0.00  0.00     0.032 H 
ATOM     15  H10 <0> d           2.462  -2.304  -1.792  0.00  0.00     0.032 H 
ENDBRANCH  11  12
BRANCH  11  16
ATOM     16  C10 <0> d           1.250  -2.702   1.419  0.00  0.00    -0.044 C 
ATOM     17  H11 <0> d           1.265  -3.802   1.414  0.00  0.00     0.032 H 
ATOM     18  H12 <0> d           0.352  -2.350   1.949  0.00  0.00     0.032 H 
ATOM     19  H13 <0> d           2.148  -2.326   1.931  0.00  0.00     0.032 H 
ENDBRANCH  11  16
BRANCH  11  20
ATOM     20  O1  <0> d           0.062  -2.675  -0.685  0.00  0.00    -0.386 OA
ATOM     21  H14 <0> d          -0.098  -3.758  -0.789  0.00  0.00     0.211 HD
ENDBRANCH  11  20
ENDBRANCH   4  11
BRANCH   1  22
ATOM     22  C1  <0> d           1.151   3.592   0.010  0.00  0.00    -0.051 C 
ATOM     23  H1  <0> d           0.109   3.945   0.023  0.00  0.00     0.033 H 
ATOM     24  H2  <0> d           1.654   3.971  -0.892  0.00  0.00     0.033 H 
ATOM     25  H3  <0> d           1.674   3.962   0.904  0.00  0.00     0.033 H 
ENDBRANCH   1  22
TORSDOF 5
