REMARK  3 active torsions:
REMARK  status: ('A' for Active; 'I' for Inactive)
REMARK    1  A    between atoms: C1_1  and  C2_2 
REMARK    2  A    between atoms: C4_5  and  C5_7 
REMARK    3  A    between atoms: C5_7  and  O2_8 
ROOT
ATOM      1  C2  <0> d           0.002  -0.004   0.002  0.00  0.00     0.141 A 
ATOM      2  N1  <0> d           0.008  -0.757  -1.061  0.00  0.00    -0.238 NA
ATOM      3  C3  <0> d           0.028  -2.045  -0.677  0.00  0.00     0.035 A 
ATOM      4  C4  <0> d           0.034  -2.070   0.666  0.00  0.00     0.096 A 
ATOM      5  O1  <0> d           0.023  -0.790   1.087  0.00  0.00    -0.297 OA
ATOM      6  H4  <0> d           0.037  -2.905  -1.330  0.00  0.00     0.118 H 
ENDROOT
BRANCH   4   7
ATOM      7  C5  <0> d           0.055  -3.299   1.539  0.00  0.00     0.062 C 
ATOM      8  H5  <0> d          -0.458  -3.087   2.477  0.00  0.00     0.084 H 
ATOM      9  H6  <0> d          -0.450  -4.117   1.026  0.00  0.00     0.084 H 
BRANCH   7  10
ATOM     10  O2  <0> d           1.409  -3.669   1.808  0.00  0.00    -0.394 OA
ATOM     11  H7  <0> d           1.498  -4.454   2.366  0.00  0.00     0.209 HD
ENDBRANCH   7  10
ENDBRANCH   4   7
BRANCH   1  12
ATOM     12  C1  <0> d          -0.018   1.503   0.010  0.00  0.00    -0.015 C 
ATOM     13  H1  <0> d           1.004   1.880   0.003  0.00  0.00     0.038 H 
ATOM     14  H2  <0> d          -0.545   1.864  -0.873  0.00  0.00     0.038 H 
ATOM     15  H3  <0> d          -0.529   1.854   0.907  0.00  0.00     0.038 H 
ENDBRANCH   1  12
TORSDOF 3
