REMARK  4 active torsions:
REMARK  status: ('A' for Active; 'I' for Inactive)
REMARK    1  A    between atoms: C1_1  and  O1_2 
REMARK    2  A    between atoms: O1_2  and  C2_3 
REMARK    3  A    between atoms: C2_3  and  C3_5 
REMARK    4  A    between atoms: C4_6  and  N3_11 
ROOT
ATOM      1  C3  <0> d           0.680  -2.074   1.092  0.00  0.00     0.153 A 
ATOM      2  C4  <0> d           1.273  -2.851   2.085  0.00  0.00     0.080 A 
ATOM      3  C5  <0> d           1.062  -4.181   1.685  0.00  0.00     0.049 A 
ATOM      4  N1  <0> d           0.403  -4.162   0.557  0.00  0.00    -0.184 NA
ATOM      5  N2  <0> d           0.157  -2.960   0.181  0.00  0.00    -0.271 N 
ATOM      6  H1  <0> d          -0.323  -2.714  -0.625  0.00  0.00     0.189 HD
ATOM      7  H5  <0> d           1.387  -5.063   2.217  0.00  0.00     0.121 H 
ENDROOT
BRANCH   1   8
ATOM      8  C2  <0> d           0.621  -0.614   1.034  0.00  0.00     0.313 C 
ATOM      9  O2  <0> d           1.131   0.051   1.916  0.00  0.00    -0.257 OA
BRANCH   8  10
ATOM     10  O1  <0> d           0.002  -0.004   0.002  0.00  0.00    -0.321 OA
BRANCH  10  11
ATOM     11  C1  <0> d          -0.017   1.425   0.010  0.00  0.00     0.013 C 
ATOM     12  H2  <0> d           1.005   1.802   0.002  0.00  0.00     0.067 H 
ATOM     13  H3  <0> d          -0.544   1.786  -0.873  0.00  0.00     0.067 H 
ATOM     14  H4  <0> d          -0.527   1.776   0.907  0.00  0.00     0.067 H 
ENDBRANCH  10  11
ENDBRANCH   8  10
ENDBRANCH   1   8
BRANCH   2  15
ATOM     15  N3  <0> d           1.932  -2.405   3.228  0.00  0.00    -0.396 N 
ATOM     16  H6  <0> d           2.017  -1.454   3.399  0.00  0.00     0.156 HD
ATOM     17  H7  <0> d           2.308  -3.045   3.852  0.00  0.00     0.156 HD
ENDBRANCH   2  15
TORSDOF 4
