REMARK  5 active torsions:
REMARK  status: ('A' for Active; 'I' for Inactive)
REMARK    1  A    between atoms: C1_1  and  C2_2 
REMARK    2  A    between atoms: C4_4  and  C7_8 
REMARK    3  A    between atoms: C7_8  and  C8_9 
REMARK    4  A    between atoms: C8_9  and  C9_10 
REMARK    5  A    between atoms: C9_10  and  O1_11 
ROOT
ATOM      1  C2  <0> d           1.133  -0.682  -0.012  0.00  0.00     0.030 A 
ATOM      2  C3  <0> d           2.350  -0.027  -0.021  0.00  0.00    -0.053 A 
ATOM      3  C4  <0> d           2.371   1.359  -0.013  0.00  0.00    -0.055 A 
ATOM      4  C5  <0> d           1.162   2.038   0.002  0.00  0.00    -0.060 A 
ATOM      5  C6  <0> d          -0.016   1.315   0.009  0.00  0.00     0.003 A 
ATOM      6  N1  <0> d           0.002  -0.004   0.002  0.00  0.00    -0.266 NA
ATOM      7  H4  <0> d           3.273  -0.588  -0.032  0.00  0.00     0.087 H 
ATOM      8  H5  <0> d           1.141   3.117   0.008  0.00  0.00     0.086 H 
ATOM      9  H6  <0> d          -0.962   1.836   0.017  0.00  0.00     0.114 H 
ENDROOT
BRANCH   3  10
ATOM     10  C7  <0> d           3.677   2.111  -0.021  0.00  0.00    -0.039 C 
ATOM     11  H7  <0> d           3.553   3.061   0.499  0.00  0.00     0.040 H 
ATOM     12  H8  <0> d           4.441   1.518   0.482  0.00  0.00     0.040 H 
BRANCH  10  13
ATOM     13  C8  <0> d           4.106   2.373  -1.466  0.00  0.00    -0.042 C 
ATOM     14  H9  <0> d           4.230   1.423  -1.986  0.00  0.00     0.036 H 
ATOM     15  H10 <0> d           3.343   2.966  -1.970  0.00  0.00     0.036 H 
BRANCH  13  16
ATOM     16  C9  <0> d           5.432   3.136  -1.474  0.00  0.00     0.017 C 
ATOM     17  H11 <0> d           5.308   4.086  -0.954  0.00  0.00     0.073 H 
ATOM     18  H12 <0> d           6.196   2.543  -0.971  0.00  0.00     0.073 H 
BRANCH  16  19
ATOM     19  O1  <0> d           5.833   3.381  -2.824  0.00  0.00    -0.401 OA
ATOM     20  H13 <0> d           6.668   3.862  -2.905  0.00  0.00     0.209 HD
ENDBRANCH  16  19
ENDBRANCH  13  16
ENDBRANCH  10  13
ENDBRANCH   3  10
BRANCH   1  21
ATOM     21  C1  <0> d           1.098  -2.189  -0.021  0.00  0.00    -0.035 C 
ATOM     22  H1  <0> d           1.080  -2.546  -1.050  0.00  0.00     0.035 H 
ATOM     23  H2  <0> d           1.984  -2.575   0.483  0.00  0.00     0.035 H 
ATOM     24  H3  <0> d           0.204  -2.534   0.500  0.00  0.00     0.035 H 
ENDBRANCH   1  21
TORSDOF 5
