REMARK  2 active torsions:
REMARK  status: ('A' for Active; 'I' for Inactive)
REMARK    1  A    between atoms: C1_1  and  C2_2 
REMARK    2  A    between atoms: C3_3  and  C8_9 
ROOT
ATOM      1  C8  <0> d          -0.018   1.468   0.010  0.00  0.00     0.039 C 
ATOM      2  C9  <0> d           0.002  -0.004   0.002  0.00  0.00     0.063 C 
ATOM      3  N1  <0> d           0.018  -1.140  -0.004  0.00  0.00    -0.197 NA
ATOM      4  H7  <0> d          -0.545   1.829  -0.873  0.00  0.00     0.062 H 
ATOM      5  H8  <0> d          -0.528   1.819   0.907  0.00  0.00     0.062 H 
ENDROOT
BRANCH   1   6
ATOM      6  C3  <0> d           1.396   1.989  -0.001  0.00  0.00    -0.036 A 
ATOM      7  C2  <0> d           2.071   2.132  -1.198  0.00  0.00    -0.016 A 
ATOM      8  C7  <0> d           3.368   2.615  -1.208  0.00  0.00     0.122 A 
ATOM      9  C6  <0> d           3.991   2.946  -0.017  0.00  0.00    -0.045 A 
ATOM     10  F1  <0> d           4.027   2.760  -2.379  0.00  0.00    -0.206 F 
ATOM     11  C5  <0> d           3.317   2.798   1.180  0.00  0.00    -0.080 A 
ATOM     12  H6  <0> d           5.005   3.320  -0.023  0.00  0.00     0.088 H 
ATOM     13  C4  <0> d           2.019   2.320   1.188  0.00  0.00    -0.075 A 
ATOM     14  H5  <0> d           3.803   3.057   2.109  0.00  0.00     0.083 H 
ATOM     15  H4  <0> d           1.493   2.205   2.124  0.00  0.00     0.084 H 
BRANCH   7  16
ATOM     16  C1  <0> d           1.393   1.766  -2.494  0.00  0.00    -0.048 C 
ATOM     17  H1  <0> d           0.875   2.638  -2.892  0.00  0.00     0.033 H 
ATOM     18  H2  <0> d           2.140   1.428  -3.212  0.00  0.00     0.033 H 
ATOM     19  H3  <0> d           0.674   0.967  -2.314  0.00  0.00     0.033 H 
ENDBRANCH   7  16
ENDBRANCH   1   6
TORSDOF 2
