REMARK  0 active torsions:
REMARK  status: ('A' for Active; 'I' for Inactive)
ROOT
ATOM      1  C1  <0> d           0.868  -0.706   1.026  0.00  0.00     0.109 C 
ATOM      2  C2  <0> d           0.002  -0.004   0.002  0.00  0.00     0.283 C 
ATOM      3  O1  <0> d          -0.651  -0.632  -0.797  0.00  0.00    -0.263 OA
ATOM      4  O2  <0> d          -0.016   1.347   0.009  0.00  0.00    -0.310 OA
ATOM      5  C3  <0> d           1.298   1.980   0.000  0.00  0.00     0.109 C 
ATOM      6  C4  <0> d           2.164   1.278   1.025  0.00  0.00     0.283 C 
ATOM      7  O3  <0> d           2.818   1.906   1.824  0.00  0.00    -0.263 OA
ATOM      8  O4  <0> d           2.182  -0.073   1.017  0.00  0.00    -0.310 OA
ATOM      9  H1  <0> d           0.420  -0.610   2.015  0.00  0.00     0.090 H 
ATOM     10  H2  <0> d           0.965  -1.760   0.766  0.00  0.00     0.090 H 
ATOM     11  H3  <0> d           1.747   1.884  -0.989  0.00  0.00     0.090 H 
ATOM     12  H4  <0> d           1.202   3.034   0.261  0.00  0.00     0.090 H 
ENDROOT
TORSDOF 0
