REMARK  4 active torsions:
REMARK  status: ('A' for Active; 'I' for Inactive)
REMARK    1  A    between atoms: C1_1  and  C2_2 
REMARK    2  A    between atoms: C2_2  and  C3_3 
REMARK    3  A    between atoms: C2_2  and  C4_4 
REMARK    4  A    between atoms: C4_4  and  C5_5 
ROOT
ATOM      1  C4  <0> d           0.718  -0.497  -1.257  0.00  0.00    -0.037 C 
ATOM      2  H8  <0> d           0.244  -0.064  -2.138  0.00  0.00     0.040 H 
ATOM      3  H9  <0> d           1.765  -0.195  -1.222  0.00  0.00     0.040 H 
ENDROOT
BRANCH   1   4
ATOM      4  C2  <0> d           0.002  -0.004   0.002  0.00  0.00    -0.057 C 
ATOM      5  H4  <0> d          -1.020  -0.381   0.010  0.00  0.00     0.039 H 
BRANCH   4   6
ATOM      6  C1  <0> d          -0.019   1.526   0.010  0.00  0.00    -0.073 C 
ATOM      7  H1  <0> d           1.004   1.903   0.003  0.00  0.00     0.028 H 
ATOM      8  H2  <0> d          -0.546   1.887  -0.873  0.00  0.00     0.028 H 
ATOM      9  H3  <0> d          -0.529   1.877   0.907  0.00  0.00     0.028 H 
ENDBRANCH   4   6
BRANCH   4  10
ATOM     10  C3  <0> d           0.742  -0.511   1.242  0.00  0.00    -0.073 C 
ATOM     11  H5  <0> d           0.232  -0.159   2.138  0.00  0.00     0.028 H 
ATOM     12  H6  <0> d           0.757  -1.601   1.236  0.00  0.00     0.028 H 
ATOM     13  H7  <0> d           1.765  -0.134   1.234  0.00  0.00     0.028 H 
ENDBRANCH   4  10
ENDBRANCH   1   4
BRANCH   1  14
ATOM     14  C5  <0> d           0.632  -2.000  -1.327  0.00  0.00    -0.040 A 
ATOM     15  C9  <0> d          -0.426  -2.611  -1.974  0.00  0.00     0.008 A 
ATOM     16  N1  <0> d          -0.509  -3.925  -2.040  0.00  0.00    -0.273 NA
ATOM     17  H13 <0> d          -1.195  -2.004  -2.430  0.00  0.00     0.115 H 
ATOM     18  C8  <0> d           0.405  -4.705  -1.498  0.00  0.00     0.002 A 
ATOM     19  C7  <0> d           1.492  -4.166  -0.836  0.00  0.00    -0.066 A 
ATOM     20  H12 <0> d           0.304  -5.778  -1.573  0.00  0.00     0.114 H 
ATOM     21  C6  <0> d           1.616  -2.788  -0.750  0.00  0.00    -0.074 A 
ATOM     22  H11 <0> d           2.238  -4.811  -0.394  0.00  0.00     0.085 H 
ATOM     23  H10 <0> d           2.456  -2.339  -0.242  0.00  0.00     0.084 H 
ENDBRANCH   1  14
TORSDOF 4
