REMARK  2 active torsions:
REMARK  status: ('A' for Active; 'I' for Inactive)
REMARK    1  A    between atoms: C1_1  and  C2_2 
REMARK    2  A    between atoms: C6_7  and  C7_8 
ROOT
ATOM      1  C2  <0> d           0.062  -0.094   0.037  0.00  0.00    -0.026 A 
ATOM      2  C3  <0> d          -0.041   1.267   0.276  0.00  0.00    -0.073 A 
ATOM      3  C4  <0> d           1.110   2.037   0.224  0.00  0.00    -0.065 A 
ATOM      4  C5  <0> d           2.322   1.429  -0.064  0.00  0.00     0.003 A 
ATOM      5  N1  <0> d           2.392   0.135  -0.287  0.00  0.00    -0.254 NA
ATOM      6  C6  <0> d           1.313  -0.638  -0.246  0.00  0.00     0.138 A 
ATOM      7  H4  <0> d          -0.998   1.718   0.494  0.00  0.00     0.084 H 
ATOM      8  H5  <0> d           1.063   3.101   0.405  0.00  0.00     0.085 H 
ATOM      9  H6  <0> d           3.221   2.026  -0.106  0.00  0.00     0.114 H 
ENDROOT
BRANCH   1  10
ATOM     10  C1  <0> d          -1.161  -0.974   0.083  0.00  0.00    -0.049 C 
ATOM     11  H1  <0> d          -1.542  -1.118  -0.927  0.00  0.00     0.033 H 
ATOM     12  H2  <0> d          -0.897  -1.940   0.514  0.00  0.00     0.033 H 
ATOM     13  H3  <0> d          -1.926  -0.499   0.697  0.00  0.00     0.033 H 
ENDBRANCH   1  10
BRANCH   6  14
ATOM     14  C7  <0> d           1.441  -2.091  -0.504  0.00  0.00     0.229 C 
ATOM     15  O1  <0> d           0.447  -2.785  -0.572  0.00  0.00    -0.643 OA
ATOM     16  O2  <0> d           2.660  -2.642  -0.663  0.00  0.00    -0.643 OA
ENDBRANCH   6  14
TORSDOF 2
