REMARK  3 active torsions:
REMARK  status: ('A' for Active; 'I' for Inactive)
REMARK    1  A    between atoms: C1_1  and  C2_2 
REMARK    2  A    between atoms: C4_4  and  C6_8 
REMARK    3  A    between atoms: C6_8  and  C7_10 
ROOT
ATOM      1  C2  <0> d           1.234  -0.644  -0.013  0.00  0.00     0.034 A 
ATOM      2  C3  <0> d           0.002  -0.004   0.002  0.00  0.00    -0.028 A 
ATOM      3  C4  <0> d          -0.017   1.393   0.010  0.00  0.00     0.105 A 
ATOM      4  N1  <0> d           1.141   2.052   0.002  0.00  0.00    -0.238 NA
ATOM      5  C5  <0> d           2.284   1.401  -0.012  0.00  0.00     0.087 A 
ATOM      6  N2  <0> d           2.337   0.083  -0.020  0.00  0.00    -0.247 NA
ATOM      7  H4  <0> d          -0.917  -0.571   0.008  0.00  0.00     0.090 H 
ATOM      8  H5  <0> d           3.207   1.963  -0.018  0.00  0.00     0.146 H 
ENDROOT
BRANCH   3   9
ATOM      9  C6  <0> d          -1.300   2.128   0.020  0.00  0.00     0.174 C 
ATOM     10  O1  <0> d          -2.345   1.520   0.021  0.00  0.00    -0.291 OA
BRANCH   9  11
ATOM     11  C7  <0> d          -1.306   3.635   0.028  0.00  0.00    -0.015 C 
ATOM     12  H6  <0> d          -2.344   3.998   0.035  0.00  0.00     0.038 H 
ATOM     13  H7  <0> d          -0.793   4.008  -0.871  0.00  0.00     0.038 H 
ATOM     14  H8  <0> d          -0.784   3.998   0.926  0.00  0.00     0.038 H 
ENDBRANCH   9  11
ENDBRANCH   3   9
BRANCH   1  15
ATOM     15  C1  <0> d           1.312  -2.149  -0.022  0.00  0.00    -0.035 C 
ATOM     16  H1  <0> d           0.295  -2.569  -0.015  0.00  0.00     0.035 H 
ATOM     17  H2  <0> d           1.857  -2.494   0.869  0.00  0.00     0.035 H 
ATOM     18  H3  <0> d           1.840  -2.483  -0.928  0.00  0.00     0.035 H 
ENDBRANCH   1  15
TORSDOF 3
