REMARK  1 active torsions:
REMARK  status: ('A' for Active; 'I' for Inactive)
REMARK    1  A    between atoms: C2_2  and  N3_8 
ROOT
ATOM      1  C1  <0> d          -0.013   1.076   0.008  0.00  0.00     0.045 A 
ATOM      2  C2  <0> d          -1.228   1.757   0.017  0.00  0.00     0.140 A 
ATOM      3  N1  <0> d          -1.241   3.083   0.029  0.00  0.00    -0.217 NA
ATOM      4  C3  <0> d          -0.100   3.754   0.022  0.00  0.00     0.145 A 
ATOM      5  C4  <0> d           1.104   3.074   0.008  0.00  0.00     0.041 A 
ATOM      6  N2  <0> d           1.121   1.752   0.001  0.00  0.00    -0.266 NA
ATOM      7 Cl1  <0> d          -0.116   5.490   0.031  0.00  0.00    -0.061 Cl
ATOM      8  H1  <0> d           0.002  -0.004   0.002  0.00  0.00     0.120 H 
ATOM      9  H2  <0> d           2.033   3.624   0.002  0.00  0.00     0.119 H 
ENDROOT
BRANCH   2  10
ATOM     10  N3  <0> d          -2.424   1.048   0.020  0.00  0.00    -0.383 N 
ATOM     11  H3  <0> d          -2.413   0.078   0.015  0.00  0.00     0.157 HD
ATOM     12  H4  <0> d          -3.269   1.523   0.026  0.00  0.00     0.157 HD
ENDBRANCH   2  10
TORSDOF 1
