REMARK  4 active torsions:
REMARK  status: ('A' for Active; 'I' for Inactive)
REMARK    1  A    between atoms: C1_1  and  O1_2 
REMARK    2  A    between atoms: O1_2  and  C2_3 
REMARK    3  A    between atoms: C5_7  and  C7_9 
REMARK    4  A    between atoms: C7_9  and  O2_10 
ROOT
ATOM      1  C2  <0> d           2.374   1.357  -0.013  0.00  0.00     0.071 A 
ATOM      2  C3  <0> d           1.159   2.038   0.002  0.00  0.00    -0.034 A 
ATOM      3  C4  <0> d          -0.016   1.316   0.009  0.00  0.00     0.005 A 
ATOM      4  N1  <0> d           0.002  -0.004   0.002  0.00  0.00    -0.263 NA
ATOM      5  C5  <0> d           1.132  -0.685  -0.013  0.00  0.00     0.060 A 
ATOM      6  C6  <0> d           2.349  -0.035  -0.021  0.00  0.00    -0.025 A 
ATOM      7  H4  <0> d           1.137   3.118   0.008  0.00  0.00     0.089 H 
ATOM      8  H5  <0> d          -0.962   1.836   0.017  0.00  0.00     0.114 H 
ATOM      9  H6  <0> d           3.271  -0.599  -0.033  0.00  0.00     0.091 H 
ENDROOT
BRANCH   1  10
ATOM     10  O1  <0> d           3.551   2.032  -0.021  0.00  0.00    -0.356 OA
BRANCH  10  11
ATOM     11  C1  <0> d           3.480   3.460  -0.013  0.00  0.00     0.010 C 
ATOM     12  H1  <0> d           4.488   3.874  -0.021  0.00  0.00     0.066 H 
ATOM     13  H2  <0> d           2.940   3.802  -0.896  0.00  0.00     0.066 H 
ATOM     14  H3  <0> d           2.958   3.792   0.884  0.00  0.00     0.066 H 
ENDBRANCH  10  11
ENDBRANCH   1  10
BRANCH   5  15
ATOM     15  C7  <0> d           1.093  -2.192  -0.020  0.00  0.00     0.056 C 
ATOM     16  H7  <0> d           0.578  -2.546   0.874  0.00  0.00     0.083 H 
ATOM     17  H8  <0> d           0.561  -2.537  -0.906  0.00  0.00     0.083 H 
BRANCH  15  18
ATOM     18  O2  <0> d           2.427  -2.703  -0.035  0.00  0.00    -0.395 OA
ATOM     19  H9  <0> d           2.478  -3.669  -0.041  0.00  0.00     0.209 HD
ENDBRANCH  15  18
ENDBRANCH   5  15
TORSDOF 4
