REMARK  3 active torsions:
REMARK  status: ('A' for Active; 'I' for Inactive)
REMARK    1  A    between atoms: C1_1  and  N1_2 
REMARK    2  A    between atoms: N1_2  and  C2_3 
REMARK    3  A    between atoms: N1_2  and  C3_4 
ROOT
ATOM      1  C3  <0> d           2.133   0.073   1.299  0.00  0.00     0.249 C 
ATOM      2  C4  <0> d           0.718  -0.510   1.257  0.00  0.00     0.001 C 
ATOM      3  C5  <0> d           0.002  -0.004   0.002  0.00  0.00     0.023 C 
ATOM      4  O1  <0> d          -0.017   1.425   0.010  0.00  0.00    -0.391 OA
ATOM      5  C6  <0> d           1.279   2.026   0.001  0.00  0.00     0.023 C 
ATOM      6  C7  <0> d           2.046   1.601   1.256  0.00  0.00     0.001 C 
ATOM      7  C8  <0> d           2.898  -0.409   0.137  0.00  0.00     0.102 C 
ATOM      8  N2  <0> d           3.489  -0.781  -0.759  0.00  0.00    -0.194 NA
ATOM      9  H7  <0> d           0.774  -1.609   1.233  0.00  0.00     0.041 H 
ATOM     10  H8  <0> d           0.163  -0.191   2.152  0.00  0.00     0.041 H 
ATOM     11  H9  <0> d           0.535  -0.359  -0.892  0.00  0.00     0.074 H 
ATOM     12  H10 <0> d          -1.030  -0.385  -0.011  0.00  0.00     0.074 H 
ATOM     13  H11 <0> d           1.829   1.698  -0.894  0.00  0.00     0.074 H 
ATOM     14  H12 <0> d           1.175   3.121  -0.013  0.00  0.00     0.074 H 
ATOM     15  H13 <0> d           1.519   1.964   2.151  0.00  0.00     0.041 H 
ATOM     16  H14 <0> d           3.060   2.026   1.231  0.00  0.00     0.041 H 
ENDROOT
BRANCH   1  17
ATOM     17  N1  <0> d           2.802  -0.347   2.538  0.00  0.00     0.103 N 
BRANCH  17  18
ATOM     18  C1  <0> d           4.165   0.196   2.611  0.00  0.00     0.097 C 
ATOM     19  H1  <0> d           4.729  -0.110   1.717  0.00  0.00     0.071 H 
ATOM     20  H2  <0> d           4.665  -0.190   3.511  0.00  0.00     0.071 H 
ATOM     21  H3  <0> d           4.120   1.294   2.658  0.00  0.00     0.071 H 
ENDBRANCH  17  18
BRANCH  17  22
ATOM     22  C2  <0> d           2.017   0.042   3.717  0.00  0.00     0.097 C 
ATOM     23  H4  <0> d           1.002  -0.376   3.637  0.00  0.00     0.071 H 
ATOM     24  H5  <0> d           1.957   1.139   3.772  0.00  0.00     0.071 H 
ATOM     25  H6  <0> d           2.502  -0.345   4.625  0.00  0.00     0.071 H 
ENDBRANCH  17  22
ENDBRANCH   1  17
TORSDOF 3
