REMARK  4 active torsions:
REMARK  status: ('A' for Active; 'I' for Inactive)
REMARK    1  A    between atoms: C1_1  and  C2_2 
REMARK    2  A    between atoms: C2_2  and  O1_3 
REMARK    3  A    between atoms: O1_3  and  C3_4 
REMARK    4  A    between atoms: C3_4  and  C4_6 
ROOT
ATOM      1  C3  <0> d           1.961   3.065  -0.001  0.00  0.00     0.296 C 
ATOM      2  O2  <0> d           1.221   4.028   0.011  0.00  0.00    -0.259 OA
ENDROOT
BRANCH   1   3
ATOM      3  O1  <0> d           3.297   3.241  -0.012  0.00  0.00    -0.318 OA
BRANCH   3   4
ATOM      4  C2  <0> d           3.781   4.610  -0.010  0.00  0.00     0.026 C 
ATOM      5  H4  <0> d           3.409   5.128  -0.894  0.00  0.00     0.074 H 
ATOM      6  H5  <0> d           3.426   5.119   0.886  0.00  0.00     0.074 H 
BRANCH   4   7
ATOM      7  C1  <0> d           5.311   4.610  -0.025  0.00  0.00    -0.056 C 
ATOM      8  H1  <0> d           5.666   4.101  -0.920  0.00  0.00     0.030 H 
ATOM      9  H2  <0> d           5.674   5.638  -0.023  0.00  0.00     0.030 H 
ATOM     10  H3  <0> d           5.683   4.092   0.859  0.00  0.00     0.030 H 
ENDBRANCH   4   7
ENDBRANCH   3   4
ENDBRANCH   1   3
BRANCH   1  11
ATOM     11  C4  <0> d           1.398   1.704  -0.002  0.00  0.00     0.083 A 
ATOM     12  C6  <0> d           2.063   0.501  -0.015  0.00  0.00     0.061 A 
ATOM     13  O3  <0> d           1.124  -0.447  -0.011  0.00  0.00    -0.225 OA
ATOM     14  H7  <0> d           3.133   0.353  -0.026  0.00  0.00     0.128 H 
ATOM     15  N1  <0> d           0.002  -0.004   0.002  0.00  0.00    -0.140 NA
ATOM     16  C5  <0> d          -0.016   1.296   0.009  0.00  0.00     0.046 A 
ATOM     17  H6  <0> d          -0.883   1.939   0.017  0.00  0.00     0.119 H 
ENDBRANCH   1  11
TORSDOF 4
