REMARK  4 active torsions:
REMARK  status: ('A' for Active; 'I' for Inactive)
REMARK    1  A    between atoms: C1_1  and  C2_2 
REMARK    2  A    between atoms: N1_6  and  C6_7 
REMARK    3  A    between atoms: C6_7  and  C7_8 
REMARK    4  A    between atoms: C7_8  and  O1_9 
ROOT
ATOM      1  C2  <0> d           0.658   3.195   0.012  0.00  0.00     0.007 A 
ATOM      2  C3  <0> d           1.112   1.925   0.002  0.00  0.00    -0.060 A 
ATOM      3  C4  <0> d          -0.013   1.076   0.008  0.00  0.00    -0.066 A 
ATOM      4  C5  <0> d          -1.110   1.859   0.017  0.00  0.00    -0.020 A 
ATOM      5  N1  <0> d          -0.705   3.161   0.024  0.00  0.00    -0.358 N 
ATOM      6  H4  <0> d           2.146   1.616  -0.009  0.00  0.00     0.086 H 
ATOM      7  H5  <0> d           0.002  -0.004   0.002  0.00  0.00     0.085 H 
ATOM      8  H6  <0> d          -2.134   1.515   0.019  0.00  0.00     0.111 H 
ENDROOT
BRANCH   5   9
ATOM      9  C6  <0> d          -1.588   4.330   0.038  0.00  0.00     0.019 C 
ATOM     10  H7  <0> d          -2.546   4.056   0.480  0.00  0.00     0.068 H 
ATOM     11  H8  <0> d          -1.130   5.124   0.627  0.00  0.00     0.068 H 
BRANCH   9  12
ATOM     12  C7  <0> d          -1.808   4.819  -1.395  0.00  0.00     0.032 C 
ATOM     13  H9  <0> d          -0.850   5.093  -1.836  0.00  0.00     0.076 H 
ATOM     14  H10 <0> d          -2.266   4.025  -1.984  0.00  0.00     0.076 H 
BRANCH  12  15
ATOM     15  O1  <0> d          -2.670   5.960  -1.381  0.00  0.00    -0.399 OA
ATOM     16  H11 <0> d          -2.853   6.324  -2.258  0.00  0.00     0.209 HD
ENDBRANCH  12  15
ENDBRANCH   9  12
ENDBRANCH   5   9
BRANCH   1  17
ATOM     17  C1  <0> d           1.511   4.438   0.011  0.00  0.00    -0.037 C 
ATOM     18  H1  <0> d           1.707   4.743  -1.017  0.00  0.00     0.035 H 
ATOM     19  H2  <0> d           0.987   5.238   0.534  0.00  0.00     0.035 H 
ATOM     20  H3  <0> d           2.455   4.231   0.515  0.00  0.00     0.035 H 
ENDBRANCH   1  17
TORSDOF 4
