REMARK  2 active torsions:
REMARK  status: ('A' for Active; 'I' for Inactive)
REMARK    1  A    between atoms: C2_2  and  C5_8 
REMARK    2  A    between atoms: C4_6  and  O1_7 
ROOT
ATOM      1  C1  <0> d           1.638   2.738   0.922  0.00  0.00    -0.008 A 
ATOM      2  C2  <0> d           1.338   1.754  -0.001  0.00  0.00     0.044 A 
ATOM      3  N1  <0> d           2.254   1.402  -0.891  0.00  0.00    -0.246 NA
ATOM      4  C3  <0> d           3.437   1.984  -0.913  0.00  0.00     0.089 A 
ATOM      5  N2  <0> d           3.764   2.925  -0.051  0.00  0.00    -0.218 NA
ATOM      6  C4  <0> d           2.900   3.328   0.875  0.00  0.00     0.165 A 
ATOM      7  H1  <0> d           0.913   3.043   1.662  0.00  0.00     0.093 H 
ATOM      8  H2  <0> d           4.160   1.677  -1.654  0.00  0.00     0.146 H 
ENDROOT
BRANCH   2   9
ATOM      9  C5  <0> d          -0.013   1.086   0.008  0.00  0.00    -0.011 A 
ATOM     10  C7  <0> d          -1.150   1.781  -0.743  0.00  0.00    -0.056 A 
ATOM     11  C6  <0> d          -1.136   1.773   0.788  0.00  0.00    -0.056 A 
ATOM     12  H7  <0> d          -0.922   2.722  -1.243  0.00  0.00     0.034 H 
ATOM     13  H8  <0> d          -1.883   1.149  -1.243  0.00  0.00     0.034 H 
ATOM     14  H5  <0> d          -1.859   1.135   1.295  0.00  0.00     0.034 H 
ATOM     15  H6  <0> d          -0.897   2.708   1.294  0.00  0.00     0.034 H 
ATOM     16  H4  <0> d           0.002  -0.004   0.002  0.00  0.00     0.049 H 
ENDBRANCH   2   9
BRANCH   6  17
ATOM     17  O1  <0> d           3.241   4.296   1.759  0.00  0.00    -0.345 OA
ATOM     18  H3  <0> d           3.648   3.962   2.570  0.00  0.00     0.219 HD
ENDBRANCH   6  17
TORSDOF 2
