REMARK  3 active torsions:
REMARK  status: ('A' for Active; 'I' for Inactive)
REMARK    1  A    between atoms: C1_1  and  N1_2 
REMARK    2  A    between atoms: C4_6  and  C5_7 
REMARK    3  A    between atoms: C5_7  and  O1_8 
ROOT
ATOM      1  N1  <0> d           0.002  -0.004   0.002  0.00  0.00    -0.327 N 
ATOM      2  C2  <0> d           0.009  -0.810  -1.104  0.00  0.00     0.124 A 
ATOM      3  C3  <0> d           0.028  -2.082  -0.659  0.00  0.00     0.042 A 
ATOM      4  N2  <0> d           0.033  -2.053   0.682  0.00  0.00    -0.242 NA
ATOM      5  C4  <0> d           0.023  -0.812   1.085  0.00  0.00     0.130 A 
ATOM      6 Cl1  <0> d          -0.006  -0.294  -2.761  0.00  0.00    -0.063 Cl
ATOM      7  H4  <0> d           0.037  -2.970  -1.274  0.00  0.00     0.119 H 
ENDROOT
BRANCH   5   8
ATOM      8  C5  <0> d           0.031  -0.355   2.522  0.00  0.00     0.071 C 
ATOM      9  H5  <0> d           0.561  -1.086   3.132  0.00  0.00     0.086 H 
ATOM     10  H6  <0> d           0.533   0.610   2.593  0.00  0.00     0.086 H 
BRANCH   8  11
ATOM     11  O1  <0> d          -1.314  -0.229   2.988  0.00  0.00    -0.393 OA
ATOM     12  H7  <0> d          -1.385   0.062   3.908  0.00  0.00     0.209 HD
ENDBRANCH   8  11
ENDBRANCH   5   8
BRANCH   1  13
ATOM     13  C1  <0> d          -0.018   1.461   0.010  0.00  0.00    -0.012 C 
ATOM     14  H1  <0> d           1.005   1.838   0.002  0.00  0.00     0.057 H 
ATOM     15  H2  <0> d          -0.545   1.822  -0.873  0.00  0.00     0.057 H 
ATOM     16  H3  <0> d          -0.528   1.812   0.907  0.00  0.00     0.057 H 
ENDBRANCH   1  13
TORSDOF 3
