REMARK  3 active torsions:
REMARK  status: ('A' for Active; 'I' for Inactive)
REMARK    1  A    between atoms: C1_1  and  C2_2 
REMARK    2  A    between atoms: C5_5  and  C8_8 
REMARK    3  A    between atoms: C8_8  and  C9_10 
ROOT
ATOM      1  C9  <0> d           1.280   1.980   0.001  0.00  0.00     0.074 C 
ATOM      2  C10 <0> d           2.412   1.038  -0.015  0.00  0.00     0.067 C 
ATOM      3  N1  <0> d           3.285   0.312  -0.028  0.00  0.00    -0.197 NA
ATOM      4  H8  <0> d           1.318   2.559  -0.813  0.00  0.00     0.067 H 
ATOM      5  H9  <0> d           1.338   2.602   0.893  0.00  0.00     0.067 H 
ENDROOT
BRANCH   1   6
ATOM      6  C8  <0> d          -0.014   1.208   0.009  0.00  0.00     0.172 C 
ATOM      7  O1  <0> d           0.002  -0.004   0.002  0.00  0.00    -0.291 OA
BRANCH   6   8
ATOM      8  C5  <0> d          -1.299   1.927   0.019  0.00  0.00     0.011 A 
ATOM      9  C4  <0> d          -2.502   1.215   0.021  0.00  0.00    -0.069 A 
ATOM     10  C3  <0> d          -3.702   1.895   0.030  0.00  0.00    -0.076 A 
ATOM     11  H5  <0> d          -2.493   0.135   0.014  0.00  0.00     0.085 H 
ATOM     12  C2  <0> d          -3.716   3.279   0.039  0.00  0.00    -0.062 A 
ATOM     13  H4  <0> d          -4.632   1.347   0.032  0.00  0.00     0.084 H 
ATOM     14  C7  <0> d          -2.529   3.991   0.037  0.00  0.00    -0.076 A 
ATOM     15  C6  <0> d          -1.322   3.325   0.032  0.00  0.00    -0.069 A 
ATOM     16  H7  <0> d          -2.549   5.071   0.043  0.00  0.00     0.084 H 
ATOM     17  H6  <0> d          -0.396   3.882   0.035  0.00  0.00     0.085 H 
BRANCH  12  18
ATOM     18  C1  <0> d          -5.031   4.015   0.050  0.00  0.00    -0.051 C 
ATOM     19  H1  <0> d          -5.344   4.186   1.080  0.00  0.00     0.033 H 
ATOM     20  H2  <0> d          -4.916   4.972  -0.459  0.00  0.00     0.033 H 
ATOM     21  H3  <0> d          -5.785   3.418  -0.464  0.00  0.00     0.033 H 
ENDBRANCH  12  18
ENDBRANCH   6   8
ENDBRANCH   1   6
TORSDOF 3
