REMARK  9 active torsions:
REMARK  status: ('A' for Active; 'I' for Inactive)
REMARK    1  A    between atoms: C1_1  and  C2_2 
REMARK    2  A    between atoms: C2_2  and  O1_3 
REMARK    3  A    between atoms: O1_3  and  C3_4 
REMARK    4  A    between atoms: C3_4  and  C4_6 
REMARK    5  A    between atoms: C3_4  and  C5_7 
REMARK    6  A    between atoms: C5_7  and  C6_8 
REMARK    7  A    between atoms: C6_8  and  C7_9 
REMARK    8  A    between atoms: C7_9  and  O2_10 
REMARK    9  A    between atoms: O2_10  and  C8_11 
ROOT
ATOM      1  C3  <0> d           0.746  -1.888  -1.280  0.00  0.00     0.049 C 
ATOM      2  H1  <0> d           0.777  -2.326  -0.282  0.00  0.00     0.084 H 
ENDROOT
BRANCH   1   3
ATOM      3  O1  <0> d           0.671  -0.465  -1.174  0.00  0.00    -0.385 OA
BRANCH   3   4
ATOM      4  C2  <0> d           0.002  -0.004   0.002  0.00  0.00     0.017 C 
ATOM      5  H5  <0> d           0.529  -0.365   0.885  0.00  0.00     0.073 H 
ATOM      6  H6  <0> d          -1.020  -0.381   0.010  0.00  0.00     0.073 H 
BRANCH   4   7
ATOM      7  C1  <0> d          -0.019   1.526   0.010  0.00  0.00    -0.056 C 
ATOM      8  H2  <0> d           1.004   1.903   0.003  0.00  0.00     0.030 H 
ATOM      9  H3  <0> d          -0.546   1.887  -0.873  0.00  0.00     0.030 H 
ATOM     10  H4  <0> d          -0.529   1.877   0.907  0.00  0.00     0.030 H 
ENDBRANCH   4   7
ENDBRANCH   3   4
ENDBRANCH   1   3
BRANCH   1  11
ATOM     11  C4  <0> d          -0.483  -2.409  -2.027  0.00  0.00    -0.051 C 
ATOM     12  H7  <0> d          -0.426  -3.494  -2.108  0.00  0.00     0.030 H 
ATOM     13  H8  <0> d          -1.385  -2.132  -1.481  0.00  0.00     0.030 H 
ATOM     14  H9  <0> d          -0.515  -1.971  -3.025  0.00  0.00     0.030 H 
ENDBRANCH   1  11
BRANCH   1  15
ATOM     15  C5  <0> d           1.992  -2.271  -2.035  0.00  0.00     0.036 C 
ATOM     16  H10 <0> d           2.137  -1.925  -3.048  0.00  0.00     0.064 H 
BRANCH  15  17
ATOM     17  C6  <0> d           2.898  -3.020  -1.464  0.00  0.00    -0.139 C 
BRANCH  17  18
ATOM     18  C7  <0> d           3.804  -3.769  -0.893  0.00  0.00     0.119 C 
ATOM     19  H11 <0> d           3.748  -4.845  -0.980  0.00  0.00     0.107 H 
BRANCH  18  20
ATOM     20  O2  <0> d           4.812  -3.199  -0.194  0.00  0.00    -0.376 OA
BRANCH  20  21
ATOM     21  C8  <0> d           5.767  -4.078   0.403  0.00  0.00     0.006 C 
ATOM     22  H12 <0> d           5.261  -4.740   1.106  0.00  0.00     0.066 H 
ATOM     23  H13 <0> d           6.249  -4.673  -0.373  0.00  0.00     0.066 H 
ATOM     24  H14 <0> d           6.519  -3.493   0.932  0.00  0.00     0.066 H 
ENDBRANCH  20  21
ENDBRANCH  18  20
ENDBRANCH  17  18
ENDBRANCH  15  17
ENDBRANCH   1  15
TORSDOF 9
