REMARK  6 active torsions:
REMARK  status: ('A' for Active; 'I' for Inactive)
REMARK    1  A    between atoms: C1_1  and  C2_2 
REMARK    2  A    between atoms: C2_2  and  C3_3 
REMARK    3  A    between atoms: C3_3  and  C4_4 
REMARK    4  A    between atoms: C4_4  and  C5_5 
REMARK    5  A    between atoms: C5_5  and  N1_6 
REMARK    6  A    between atoms: C8_10  and  C9_11 
ROOT
ATOM      1  C5  <0> d          -0.037   1.099  -2.490  0.00  0.00     0.001 C 
ATOM      2  H10 <0> d           0.986   1.476  -2.498  0.00  0.00     0.065 H 
ATOM      3  H11 <0> d          -0.022   0.009  -2.496  0.00  0.00     0.065 H 
ENDROOT
BRANCH   1   4
ATOM      4  C4  <0> d          -0.753   1.593  -1.232  0.00  0.00    -0.050 C 
ATOM      5  H8  <0> d          -1.775   1.215  -1.224  0.00  0.00     0.035 H 
ATOM      6  H9  <0> d          -0.767   2.683  -1.226  0.00  0.00     0.035 H 
BRANCH   4   7
ATOM      7  C3  <0> d          -0.013   1.086   0.008  0.00  0.00    -0.064 C 
ATOM      8  H6  <0> d           0.002  -0.004   0.002  0.00  0.00     0.033 H 
ATOM      9  H7  <0> d           1.010   1.463   0.000  0.00  0.00     0.033 H 
BRANCH   7  10
ATOM     10  C2  <0> d          -0.729   1.579   1.267  0.00  0.00    -0.068 C 
ATOM     11  H4  <0> d          -0.744   2.669   1.273  0.00  0.00     0.032 H 
ATOM     12  H5  <0> d          -1.751   1.202   1.275  0.00  0.00     0.032 H 
BRANCH  10  13
ATOM     13  C1  <0> d           0.011   1.072   2.506  0.00  0.00    -0.077 C 
ATOM     14  H1  <0> d          -0.499   1.424   3.403  0.00  0.00     0.027 H 
ATOM     15  H2  <0> d           0.026  -0.018   2.500  0.00  0.00     0.027 H 
ATOM     16  H3  <0> d           1.034   1.450   2.499  0.00  0.00     0.027 H 
ENDBRANCH  10  13
ENDBRANCH   7  10
ENDBRANCH   4   7
ENDBRANCH   1   4
BRANCH   1  17
ATOM     17  N1  <0> d          -0.745   1.585  -3.677  0.00  0.00    -0.344 N 
ATOM     18  C8  <0> d          -0.583   2.786  -4.272  0.00  0.00     0.101 A 
ATOM     19  N2  <0> d          -1.385   2.856  -5.299  0.00  0.00    -0.246 NA
ATOM     20  C7  <0> d          -2.081   1.714  -5.396  0.00  0.00     0.019 A 
ATOM     21  C6  <0> d          -1.691   0.902  -4.394  0.00  0.00    -0.002 A 
ATOM     22  H13 <0> d          -2.820   1.483  -6.148  0.00  0.00     0.117 H 
ATOM     23  H12 <0> d          -2.057  -0.094  -4.193  0.00  0.00     0.113 H 
BRANCH  18  24
ATOM     24  C9  <0> d           0.368   3.866  -3.824  0.00  0.00    -0.021 C 
ATOM     25  H14 <0> d           1.330   3.731  -4.317  0.00  0.00     0.037 H 
ATOM     26  H15 <0> d          -0.041   4.842  -4.088  0.00  0.00     0.037 H 
ATOM     27  H16 <0> d           0.501   3.808  -2.744  0.00  0.00     0.037 H 
ENDBRANCH  18  24
ENDBRANCH   1  17
TORSDOF 6
