REMARK  8 active torsions:
REMARK  status: ('A' for Active; 'I' for Inactive)
REMARK    1  A    between atoms: C1_1  and  C2_2 
REMARK    2  A    between atoms: C1_1  and  O4_9 
REMARK    3  A    between atoms: C2_2  and  C3_3 
REMARK    4  A    between atoms: C2_2  and  C4_5 
REMARK    5  A    between atoms: C2_2  and  C5_7 
REMARK    6  A    between atoms: C3_3  and  O1_4 
REMARK    7  A    between atoms: C4_5  and  O2_6 
REMARK    8  A    between atoms: C5_7  and  O3_8 
ROOT
ATOM      1  C2  <0> d           1.145   3.085   0.008  0.00  0.00     0.044 C 
ENDROOT
BRANCH   1   2
ATOM      2  C1  <0> d           0.392   3.519   1.266  0.00  0.00     0.030 C 
ATOM      3  H1  <0> d           0.291   4.605   1.273  0.00  0.00     0.075 H 
ATOM      4  H2  <0> d          -0.598   3.063   1.274  0.00  0.00     0.075 H 
BRANCH   2   5
ATOM      5  O4  <0> d           1.117   3.101   2.424  0.00  0.00    -0.400 OA
ATOM      6  H12 <0> d           0.697   3.344   3.261  0.00  0.00     0.209 HD
ENDBRANCH   2   5
ENDBRANCH   1   2
BRANCH   1   7
ATOM      7  C3  <0> d           1.286   1.562  -0.002  0.00  0.00     0.030 C 
ATOM      8  H3  <0> d           1.840   1.243   0.881  0.00  0.00     0.075 H 
ATOM      9  H4  <0> d           1.823   1.252  -0.899  0.00  0.00     0.075 H 
BRANCH   7  10
ATOM     10  O1  <0> d          -0.011   0.963   0.007  0.00  0.00    -0.400 OA
ATOM     11  H5  <0> d           0.002  -0.004   0.002  0.00  0.00     0.209 HD
ENDBRANCH   7  10
ENDBRANCH   1   7
BRANCH   1  12
ATOM     12  C4  <0> d           2.534   3.726  -0.002  0.00  0.00     0.030 C 
ATOM     13  H6  <0> d           3.088   3.407   0.881  0.00  0.00     0.075 H 
ATOM     14  H7  <0> d           3.071   3.417  -0.899  0.00  0.00     0.075 H 
BRANCH  12  15
ATOM     15  O2  <0> d           2.402   5.149   0.007  0.00  0.00    -0.400 OA
ATOM     16  H8  <0> d           3.245   5.623   0.001  0.00  0.00     0.209 HD
ENDBRANCH  12  15
ENDBRANCH   1  12
BRANCH   1  17
ATOM     17  C5  <0> d           0.368   3.533  -1.232  0.00  0.00     0.030 C 
ATOM     18  H9  <0> d          -0.622   3.076  -1.225  0.00  0.00     0.075 H 
ATOM     19  H10 <0> d           0.267   4.618  -1.225  0.00  0.00     0.075 H 
BRANCH  17  20
ATOM     20  O3  <0> d           1.071   3.127  -2.408  0.00  0.00    -0.400 OA
ATOM     21  H11 <0> d           0.635   3.378  -3.233  0.00  0.00     0.209 HD
ENDBRANCH  17  20
ENDBRANCH   1  17
TORSDOF 8
