REMARK  1 active torsions:
REMARK  status: ('A' for Active; 'I' for Inactive)
REMARK    1  A    between atoms: C1_1  and  C2_2 
ROOT
ATOM      1  C2  <0> d          -0.718   1.572   1.248  0.00  0.00     0.102 A 
ATOM      2  N1  <0> d          -2.041   1.817   1.342  0.00  0.00    -0.334 N 
ATOM      3  H1  <0> d          -2.716   1.712   0.612  0.00  0.00     0.168 HD
ATOM      4  C3  <0> d          -2.291   2.239   2.626  0.00  0.00     0.155 A 
ATOM      5  C4  <0> d          -1.062   2.239   3.278  0.00  0.00     0.176 A 
ATOM      6  N2  <0> d          -0.141   1.824   2.390  0.00  0.00    -0.222 NA
ATOM      7  C5  <0> d          -0.822   2.611   4.640  0.00  0.00     0.123 C 
ATOM      8  N3  <0> d          -0.632   2.906   5.721  0.00  0.00    -0.190 NA
ATOM      9  C6  <0> d          -3.559   2.608   3.179  0.00  0.00     0.121 C 
ATOM     10  N4  <0> d          -4.565   2.901   3.618  0.00  0.00    -0.190 NA
ENDROOT
BRANCH   1  11
ATOM     11  C1  <0> d          -0.013   1.086   0.008  0.00  0.00    -0.021 C 
ATOM     12  H2  <0> d           0.002  -0.004   0.002  0.00  0.00     0.037 H 
ATOM     13  H3  <0> d           1.010   1.463   0.000  0.00  0.00     0.037 H 
ATOM     14  H4  <0> d          -0.540   1.447  -0.875  0.00  0.00     0.037 H 
ENDBRANCH   1  11
TORSDOF 1
