REMARK  4 active torsions:
REMARK  status: ('A' for Active; 'I' for Inactive)
REMARK    1  A    between atoms: C1_1  and  C2_2 
REMARK    2  A    between atoms: C2_2  and  C3_3 
REMARK    3  A    between atoms: C2_2  and  C4_4 
REMARK    4  A    between atoms: C2_2  and  C5_5 
ROOT
ATOM      1  C2  <0> d           2.024   1.598   1.250  0.00  0.00    -0.029 C 
ENDROOT
BRANCH   1   2
ATOM      2  C1  <0> d           2.512   0.148   1.264  0.00  0.00    -0.068 C 
ATOM      3  H2  <0> d           3.112  -0.043   0.374  0.00  0.00     0.028 H 
ATOM      4  H3  <0> d           3.118  -0.023   2.154  0.00  0.00     0.028 H 
ATOM      5  H4  <0> d           1.654  -0.524   1.274  0.00  0.00     0.028 H 
ENDBRANCH   1   2
BRANCH   1   6
ATOM      6  C3  <0> d           3.229   2.541   1.235  0.00  0.00    -0.068 C 
ATOM      7  H5  <0> d           2.881   3.574   1.225  0.00  0.00     0.028 H 
ATOM      8  H6  <0> d           3.835   2.370   2.125  0.00  0.00     0.028 H 
ATOM      9  H7  <0> d           3.829   2.351   0.345  0.00  0.00     0.028 H 
ENDBRANCH   1   6
BRANCH   1  10
ATOM     10  C4  <0> d           1.183   1.865   2.499  0.00  0.00    -0.068 C 
ATOM     11  H8  <0> d           0.324   1.193   2.509  0.00  0.00     0.028 H 
ATOM     12  H9  <0> d           1.788   1.694   3.389  0.00  0.00     0.028 H 
ATOM     13  H10 <0> d           0.835   2.898   2.489  0.00  0.00     0.028 H 
ENDBRANCH   1  10
BRANCH   1  14
ATOM     14  C5  <0> d           1.174   1.837   0.001  0.00  0.00     0.042 A 
ATOM     15  H1  <0> d           1.764   1.674  -0.901  0.00  0.00     0.077 H 
ATOM     16  N1  <0> d          -0.011   0.966   0.007  0.00  0.00    -0.329 N 
ATOM     17  C7  <0> d          -1.112   1.730   0.016  0.00  0.00     0.361 A 
ATOM     18  H13 <0> d           0.002  -0.004   0.002  0.00  0.00     0.165 HD
ATOM     19  O1  <0> d          -0.858   3.044   0.026  0.00  0.00    -0.302 OA
ATOM     20  O2  <0> d          -2.237   1.272   0.019  0.00  0.00    -0.239 OA
ATOM     21  C6  <0> d           0.583   3.260   0.013  0.00  0.00     0.050 A 
ATOM     22  H11 <0> d           0.896   3.796   0.909  0.00  0.00     0.078 H 
ATOM     23  H12 <0> d           0.881   3.806  -0.881  0.00  0.00     0.078 H 
ENDBRANCH   1  14
TORSDOF 4
