REMARK  1 active torsions:
REMARK  status: ('A' for Active; 'I' for Inactive)
REMARK    1  A    between atoms: C1_1  and  C2_2 
ROOT
ATOM      1  C2  <0> d          -1.087   2.572   0.020  0.00  0.00    -0.033 A 
ATOM      2  C3  <0> d          -0.864   3.936   0.032  0.00  0.00    -0.069 A 
ATOM      3  C4  <0> d           0.412   4.394   0.022  0.00  0.00    -0.043 A 
ATOM      4  S1  <0> d           1.350   2.875   0.005  0.00  0.00    -0.089 SA
ATOM      5  C5  <0> d          -0.021   1.732   0.012  0.00  0.00     0.080 A 
ATOM      6 Cl1  <0> d           0.002  -0.004   0.002  0.00  0.00    -0.076 Cl
ATOM      7  H4  <0> d          -1.693   4.627   0.043  0.00  0.00     0.085 H 
ATOM      8  H5  <0> d           0.769   5.413   0.024  0.00  0.00     0.095 H 
ENDROOT
BRANCH   1   9
ATOM      9  C1  <0> d          -2.491   2.026   0.023  0.00  0.00    -0.049 C 
ATOM     10  H1  <0> d          -2.826   1.889   1.051  0.00  0.00     0.033 H 
ATOM     11  H2  <0> d          -3.154   2.727  -0.485  0.00  0.00     0.033 H 
ATOM     12  H3  <0> d          -2.510   1.067  -0.496  0.00  0.00     0.033 H 
ENDBRANCH   1   9
TORSDOF 1
