REMARK  2 active torsions:
REMARK  status: ('A' for Active; 'I' for Inactive)
REMARK    1  A    between atoms: C5_5  and  C8_8 
REMARK    2  A    between atoms: C5_5  and  O2_10 
ROOT
ATOM      1  C1  <0> d           2.182  -0.521   1.049  0.00  0.00    -0.065 C 
ATOM      2  C2  <0> d           0.693  -0.590   1.251  0.00  0.00    -0.065 C 
ATOM      3  C3  <0> d           0.002  -0.004   0.002  0.00  0.00    -0.062 C 
ATOM      4  C4  <0> d          -0.018   1.451   0.010  0.00  0.00    -0.026 C 
ATOM      5  C5  <0> d           1.400   2.058  -0.000  0.00  0.00     0.145 C 
ATOM      6  C6  <0> d           1.951   2.011   1.399  0.00  0.00    -0.026 C 
ATOM      7  C7  <0> d           2.802   0.752   1.656  0.00  0.00    -0.062 C 
ATOM      8  H1  <0> d           2.642  -1.393   1.515  0.00  0.00     0.033 H 
ATOM      9  H2  <0> d           2.395  -0.540  -0.020  0.00  0.00     0.033 H 
ATOM     10  H3  <0> d           0.415  -0.008   2.129  0.00  0.00     0.033 H 
ATOM     11  H4  <0> d           0.386  -1.627   1.386  0.00  0.00     0.033 H 
ATOM     12  H5  <0> d          -1.024  -0.371  -0.038  0.00  0.00     0.033 H 
ATOM     13  H6  <0> d           0.534  -0.345  -0.886  0.00  0.00     0.033 H 
ATOM     14  H7  <0> d          -0.558   1.802  -0.869  0.00  0.00     0.038 H 
ATOM     15  H8  <0> d          -0.541   1.792   0.903  0.00  0.00     0.038 H 
ATOM     16  H9  <0> d           1.121   2.025   2.106  0.00  0.00     0.038 H 
ATOM     17  H10 <0> d           2.568   2.894   1.566  0.00  0.00     0.038 H 
ATOM     18  H11 <0> d           2.908   0.613   2.732  0.00  0.00     0.033 H 
ATOM     19  H12 <0> d           3.791   0.903   1.223  0.00  0.00     0.033 H 
ENDROOT
BRANCH   5  20
ATOM     20  C8  <0> d           1.335   3.489  -0.470  0.00  0.00     0.209 C 
ATOM     21  O1  <0> d           0.314   4.122  -0.340  0.00  0.00    -0.646 OA
ATOM     22  O3  <0> d           2.411   4.060  -1.034  0.00  0.00    -0.646 OA
ENDBRANCH   5  20
BRANCH   5  23
ATOM     23  O2  <0> d           2.241   1.300  -0.873  0.00  0.00    -0.379 OA
ATOM     24  H13 <0> d           3.149   1.628  -0.927  0.00  0.00     0.211 HD
ENDBRANCH   5  23
TORSDOF 2
