REMARK  2 active torsions:
REMARK  status: ('A' for Active; 'I' for Inactive)
REMARK    1  A    between atoms: C2_2  and  C5_10 
REMARK    2  A    between atoms: C5_10  and  O1_11 
ROOT
ATOM      1  C1  <0> d           1.394   0.090   0.649  0.00  0.00     0.013 C 
ATOM      2  C2  <0> d           0.002  -0.004   0.002  0.00  0.00     0.041 C 
ATOM      3  H1  <0> d           0.012  -0.435  -0.999  0.00  0.00     0.053 H 
ATOM      4  C3  <0> d          -0.019   1.534   0.011  0.00  0.00     0.313 C 
ATOM      5  C4  <0> d           1.518   1.476  -0.004  0.00  0.00     0.309 C 
ATOM      6  F1  <0> d           2.065   1.442  -1.292  0.00  0.00    -0.200 F 
ATOM      7  F2  <0> d           2.122   2.432   0.819  0.00  0.00    -0.200 F 
ATOM      8  F3  <0> d          -0.570   2.093  -1.147  0.00  0.00    -0.199 F 
ATOM      9  F4  <0> d          -0.548   2.080   1.185  0.00  0.00    -0.199 F 
ATOM     10  H2  <0> d           1.368   0.121   1.738  0.00  0.00     0.043 H 
ATOM     11  H3  <0> d           2.105  -0.641   0.263  0.00  0.00     0.043 H 
ENDROOT
BRANCH   2  12
ATOM     12  C5  <0> d          -1.054  -0.636   0.910  0.00  0.00     0.026 C 
ATOM     13  H4  <0> d          -0.837  -0.387   1.949  0.00  0.00     0.074 H 
ATOM     14  H5  <0> d          -2.039  -0.254   0.643  0.00  0.00     0.074 H 
BRANCH  12  15
ATOM     15  O1  <0> d          -1.035  -2.056   0.747  0.00  0.00    -0.400 OA
ATOM     16  H6  <0> d          -1.681  -2.524   1.294  0.00  0.00     0.209 HD
ENDBRANCH  12  15
ENDBRANCH   2  12
TORSDOF 2
