REMARK  2 active torsions:
REMARK  status: ('A' for Active; 'I' for Inactive)
REMARK    1  A    between atoms: C5_5  and  O1_8 
REMARK    2  A    between atoms: C6_6  and  N1_7 
ROOT
ATOM      1  C1  <0> d           1.171   2.108   0.002  0.00  0.00    -0.033 A 
ATOM      2  C2  <0> d           2.389   1.433  -0.013  0.00  0.00     0.067 A 
ATOM      3  C3  <0> d           2.408   0.022  -0.021  0.00  0.00     0.068 A 
ATOM      4  C4  <0> d           1.205  -0.685  -0.013  0.00  0.00    -0.027 A 
ATOM      5  C5  <0> d           0.002  -0.004   0.002  0.00  0.00     0.093 A 
ATOM      6  C6  <0> d          -0.017   1.393   0.010  0.00  0.00     0.060 A 
ATOM      7  C7  <0> d           3.655  -0.680  -0.036  0.00  0.00     0.101 C 
ATOM      8  N2  <0> d           4.645  -1.238  -0.048  0.00  0.00    -0.191 NA
ATOM      9  C8  <0> d           3.619   2.167  -0.020  0.00  0.00     0.101 C 
ATOM     10  N3  <0> d           4.594   2.750  -0.026  0.00  0.00    -0.191 NA
ATOM     11  H1  <0> d           1.151   3.188   0.008  0.00  0.00     0.089 H 
ATOM     12  H2  <0> d           1.215  -1.765  -0.019  0.00  0.00     0.090 H 
ENDROOT
BRANCH   5  13
ATOM     13  O1  <0> d          -1.167  -0.697   0.010  0.00  0.00    -0.358 OA
ATOM     14  H5  <0> d          -1.514  -0.892  -0.871  0.00  0.00     0.217 HD
ENDBRANCH   5  13
BRANCH   6  15
ATOM     15  N1  <0> d          -1.236   2.072   0.019  0.00  0.00    -0.397 N 
ATOM     16  H3  <0> d          -2.068   1.573   0.020  0.00  0.00     0.156 HD
ATOM     17  H4  <0> d          -1.251   3.041   0.025  0.00  0.00     0.156 HD
ENDBRANCH   6  15
TORSDOF 2
