REMARK  1 active torsions:
REMARK  status: ('A' for Active; 'I' for Inactive)
REMARK    1  A    between atoms: C6_6  and  O1_7 
ROOT
ATOM      1  C1  <0> d          -0.017   1.388   0.010  0.00  0.00    -0.065 A 
ATOM      2  C2  <0> d           1.158   2.086   0.002  0.00  0.00    -0.069 A 
ATOM      3  C3  <0> d           2.362   1.360  -0.013  0.00  0.00    -0.007 A 
ATOM      4  C4  <0> d           3.608   2.011  -0.021  0.00  0.00    -0.068 A 
ATOM      5  C5  <0> d           4.752   1.276  -0.035  0.00  0.00    -0.050 A 
ATOM      6  C6  <0> d           4.705  -0.122  -0.043  0.00  0.00     0.068 A 
ATOM      7  C7  <0> d           3.511  -0.785  -0.035  0.00  0.00    -0.022 A 
ATOM      8  C8  <0> d           2.310  -0.057  -0.020  0.00  0.00     0.069 A 
ATOM      9  N1  <0> d           1.127  -0.679  -0.012  0.00  0.00    -0.260 NA
ATOM     10  C9  <0> d           0.002  -0.004   0.002  0.00  0.00     0.003 A 
ATOM     11  H1  <0> d          -0.959   1.916   0.026  0.00  0.00     0.085 H 
ATOM     12  H2  <0> d           1.161   3.166   0.008  0.00  0.00     0.085 H 
ATOM     13  H3  <0> d           3.656   3.090  -0.016  0.00  0.00     0.085 H 
ATOM     14  H4  <0> d           5.708   1.777  -0.042  0.00  0.00     0.087 H 
ATOM     15  H5  <0> d           3.490  -1.865  -0.041  0.00  0.00     0.091 H 
ATOM     16  H6  <0> d          -0.934  -0.543   0.008  0.00  0.00     0.114 H 
ENDROOT
BRANCH   6  17
ATOM     17  O1  <0> d           5.864  -0.831  -0.057  0.00  0.00    -0.361 OA
ATOM     18  H7  <0> d           6.207  -1.041   0.822  0.00  0.00     0.217 HD
ENDBRANCH   6  17
TORSDOF 1
