REMARK  1 active torsions:
REMARK  status: ('A' for Active; 'I' for Inactive)
REMARK    1  A    between atoms: C1_1  and  N1_2 
ROOT
ATOM      1  N1  <0> d           1.060   2.259   0.004  0.00  0.00    -0.262 N 
ATOM      2  C2  <0> d          -0.017   1.428   0.010  0.00  0.00     0.144 A 
ATOM      3  C3  <0> d          -1.150   2.253   0.019  0.00  0.00     0.033 A 
ATOM      4  C4  <0> d          -2.538   2.069   0.024  0.00  0.00    -0.068 A 
ATOM      5  C5  <0> d          -3.357   3.156   0.032  0.00  0.00    -0.082 A 
ATOM      6  C6  <0> d          -2.848   4.455   0.037  0.00  0.00    -0.081 A 
ATOM      7  C7  <0> d          -1.512   4.700   0.039  0.00  0.00    -0.053 A 
ATOM      8  C8  <0> d          -0.607   3.620   0.026  0.00  0.00     0.090 A 
ATOM      9  N2  <0> d           0.708   3.494   0.013  0.00  0.00    -0.171 NA
ATOM     10  C9  <0> d           0.002  -0.004   0.002  0.00  0.00     0.120 C 
ATOM     11  N3  <0> d           0.018  -1.140  -0.004  0.00  0.00    -0.190 NA
ATOM     12  H4  <0> d          -2.956   1.073   0.020  0.00  0.00     0.085 H 
ATOM     13  H5  <0> d          -4.427   3.009   0.036  0.00  0.00     0.083 H 
ATOM     14  H6  <0> d          -3.535   5.288   0.044  0.00  0.00     0.083 H 
ATOM     15  H7  <0> d          -1.146   5.716   0.041  0.00  0.00     0.087 H 
ENDROOT
BRANCH   1  16
ATOM     16  C1  <0> d           2.452   1.801  -0.011  0.00  0.00     0.004 C 
ATOM     17  H1  <0> d           2.788   1.692  -1.042  0.00  0.00     0.059 H 
ATOM     18  H2  <0> d           3.080   2.530   0.501  0.00  0.00     0.059 H 
ATOM     19  H3  <0> d           2.523   0.839   0.498  0.00  0.00     0.059 H 
ENDBRANCH   1  16
TORSDOF 1
