REMARK  1 active torsions:
REMARK  status: ('A' for Active; 'I' for Inactive)
REMARK    1  A    between atoms: C1_1  and  C2_2 
ROOT
ATOM      1  C2  <0> d          -0.018   1.503   0.010  0.00  0.00     0.030 A 
ATOM      2  C3  <0> d          -1.226   2.169   0.020  0.00  0.00     0.087 A 
ATOM      3  C4  <0> d          -1.224   3.639   0.033  0.00  0.00     0.072 A 
ATOM      4  C5  <0> d          -0.003   4.290   0.025  0.00  0.00     0.004 A 
ATOM      5  C6  <0> d           1.180   3.527   0.010  0.00  0.00     0.247 A 
ATOM      6  O1  <0> d           2.259   4.096   0.003  0.00  0.00    -0.268 OA
ATOM      7  N1  <0> d           1.142   2.185   0.003  0.00  0.00    -0.326 N 
ATOM      8  H1  <0> d           1.977   1.692  -0.008  0.00  0.00     0.169 HD
ATOM      9  C7  <0> d          -2.451   4.377   0.049  0.00  0.00     0.101 C 
ATOM     10  N2  <0> d          -3.425   4.962   0.061  0.00  0.00    -0.191 NA
ATOM     11  C8  <0> d          -2.460   1.442   0.022  0.00  0.00     0.103 C 
ATOM     12  N3  <0> d          -3.438   0.866   0.023  0.00  0.00    -0.191 NA
ATOM     13  H5  <0> d           0.042   5.369   0.030  0.00  0.00     0.094 H 
ENDROOT
BRANCH   1  14
ATOM     14  C1  <0> d           0.002  -0.004   0.002  0.00  0.00    -0.036 C 
ATOM     15  H2  <0> d           1.034  -0.353  -0.010  0.00  0.00     0.035 H 
ATOM     16  H3  <0> d          -0.498  -0.379   0.895  0.00  0.00     0.035 H 
ATOM     17  H4  <0> d          -0.515  -0.370  -0.885  0.00  0.00     0.035 H 
ENDBRANCH   1  14
TORSDOF 1
