REMARK  1 active torsions:
REMARK  status: ('A' for Active; 'I' for Inactive)
REMARK    1  A    between atoms: C2_3  and  N6_10 
ROOT
ATOM      1  C1  <0> d           1.117   2.013   0.002  0.00  0.00     0.124 A 
ATOM      2  N1  <0> d          -0.016   1.319   0.009  0.00  0.00    -0.055 NA
ATOM      3  C2  <0> d           0.002  -0.004   0.002  0.00  0.00     0.737 A 
ATOM      4  N2  <0> d           1.200  -0.654  -0.013  0.00  0.00     0.119 N 
ATOM      5  C3  <0> d           2.360   0.075  -0.020  0.00  0.00     0.767 A 
ATOM      6  N3  <0> d           2.287   1.415  -0.011  0.00  0.00    -0.053 NA
ATOM      7  N4  <0> d           3.365  -0.785  -0.034  0.00  0.00    -0.052 NA
ATOM      8  C4  <0> d           2.892  -2.027  -0.036  0.00  0.00     0.126 A 
ATOM      9  N5  <0> d           1.582  -2.000  -0.024  0.00  0.00    -0.130 NA
ATOM     10  H1  <0> d           1.075   3.092   0.008  0.00  0.00     0.148 H 
ATOM     11  H2  <0> d           3.495  -2.923  -0.047  0.00  0.00     0.150 H 
ENDROOT
BRANCH   3  12
ATOM     12  N6  <0> d          -1.170  -0.713   0.009  0.00  0.00    -0.230 N 
ATOM     13  H3  <0> d          -2.020  -0.245   0.019  0.00  0.00     0.174 HD
ATOM     14  H4  <0> d          -1.151  -1.683   0.004  0.00  0.00     0.174 HD
ENDBRANCH   3  12
TORSDOF 1
