REMARK  3 active torsions:
REMARK  status: ('A' for Active; 'I' for Inactive)
REMARK    1  A    between atoms: C1_1  and  C2_2 
REMARK    2  A    between atoms: C6_7  and  C8_11 
REMARK    3  A    between atoms: C7_9  and  O1_10 
ROOT
ATOM      1  C2  <0> d           1.417   2.055  -0.000  0.00  0.00    -0.032 C 
ATOM      2  H1  <0> d           1.927   1.704  -0.897  0.00  0.00     0.043 H 
ATOM      3  C3  <0> d          -0.019   1.526   0.010  0.00  0.00    -0.060 C 
ATOM      4  C4  <0> d           0.002  -0.004   0.002  0.00  0.00    -0.064 C 
ATOM      5  C5  <0> d           0.742  -0.511   1.242  0.00  0.00    -0.060 C 
ATOM      6  C6  <0> d           2.178   0.019   1.231  0.00  0.00    -0.032 C 
ATOM      7  H2  <0> d           2.705  -0.342   2.114  0.00  0.00     0.043 H 
ATOM      8  C7  <0> d           2.157   1.548   1.239  0.00  0.00     0.042 C 
ATOM      9  H6  <0> d          -0.546   1.887  -0.873  0.00  0.00     0.033 H 
ATOM     10  H7  <0> d          -0.529   1.877   0.907  0.00  0.00     0.033 H 
ATOM     11  H8  <0> d          -1.020  -0.381   0.010  0.00  0.00     0.033 H 
ATOM     12  H9  <0> d           0.512  -0.356  -0.895  0.00  0.00     0.033 H 
ATOM     13  H10 <0> d           0.232  -0.159   2.138  0.00  0.00     0.033 H 
ATOM     14  H11 <0> d           0.757  -1.601   1.236  0.00  0.00     0.033 H 
ATOM     15  H12 <0> d           1.647   1.900   2.136  0.00  0.00     0.084 H 
ENDROOT
BRANCH   1  16
ATOM     16  C1  <0> d           1.396   3.585   0.008  0.00  0.00    -0.071 C 
ATOM     17  H3  <0> d           0.886   3.937   0.905  0.00  0.00     0.028 H 
ATOM     18  H4  <0> d           2.419   3.962   0.000  0.00  0.00     0.028 H 
ATOM     19  H5  <0> d           0.869   3.946  -0.875  0.00  0.00     0.028 H 
ENDBRANCH   1  16
BRANCH   8  20
ATOM     20  O1  <0> d           3.497   2.043   1.229  0.00  0.00    -0.395 OA
ATOM     21  H13 <0> d           3.561   3.008   1.234  0.00  0.00     0.210 HD
ENDBRANCH   8  20
BRANCH   6  22
ATOM     22  C8  <0> d           2.894  -0.475  -0.028  0.00  0.00    -0.071 C 
ATOM     23  H14 <0> d           2.366  -0.114  -0.911  0.00  0.00     0.028 H 
ATOM     24  H15 <0> d           3.916  -0.098  -0.036  0.00  0.00     0.028 H 
ATOM     25  H16 <0> d           2.908  -1.565  -0.034  0.00  0.00     0.028 H 
ENDBRANCH   6  22
TORSDOF 3
