REMARK  2 active torsions:
REMARK  status: ('A' for Active; 'I' for Inactive)
REMARK    1  A    between atoms: C3_3  and  S1_4 
REMARK    2  A    between atoms: S1_4  and  O2_6 
ROOT
ATOM      1  C1  <0> d           0.460   1.806  -1.256  0.00  0.00    -0.048 A 
ATOM      2  C2  <0> d           1.335   1.811  -0.001  0.00  0.00    -0.048 A 
ATOM      3  C3  <0> d          -0.013   1.086   0.008  0.00  0.00     0.044 A 
ATOM      4  H1  <0> d           0.542   1.083  -2.081  0.00  0.00     0.035 H 
ATOM      5  H2  <0> d          -0.264   2.588  -1.526  0.00  0.00     0.035 H 
ATOM      6  H3  <0> d           2.304   1.342  -0.227  0.00  0.00     0.035 H 
ATOM      7  H4  <0> d           1.497   2.848   0.329  0.00  0.00     0.035 H 
ATOM      8  H5  <0> d          -0.238   0.021   0.169  0.00  0.00     0.063 H 
ENDROOT
BRANCH   3   9
ATOM      9  S1  <0> d          -1.366   1.845   0.948  0.00  0.00     0.155 S 
ATOM     10  O1  <0> d          -1.084   1.758   2.338  0.00  0.00    -0.228 OA
BRANCH   9  11
ATOM     11  O2  <0> d          -2.534   0.890   0.748  0.00  0.00    -0.306 OA
ATOM     12  H6  <0> d          -3.506   1.104   1.216  0.00  0.00     0.230 HD
ENDBRANCH   9  11
ENDBRANCH   3   9
TORSDOF 2
