REMARK  3 active torsions:
REMARK  status: ('A' for Active; 'I' for Inactive)
REMARK    1  A    between atoms: C1_1  and  C2_2 
REMARK    2  A    between atoms: C2_2  and  O1_3 
REMARK    3  A    between atoms: O1_3  and  C3_4 
ROOT
ATOM      1  C3  <0> d          -1.498  -1.844   0.006  0.00  0.00     0.270 A 
ATOM      2  N1  <0> d          -2.721  -2.348   0.015  0.00  0.00    -0.219 NA
ATOM      3  C4  <0> d          -2.916  -3.659   0.010  0.00  0.00     0.011 A 
ATOM      4  C5  <0> d          -1.824  -4.504  -0.005  0.00  0.00    -0.012 A 
ATOM      5  C6  <0> d          -0.548  -3.942  -0.014  0.00  0.00     0.205 A 
ATOM      6  N2  <0> d          -0.426  -2.620  -0.013  0.00  0.00    -0.180 NA
ATOM      7  O2  <0> d           0.552  -4.733  -0.028  0.00  0.00    -0.170 OA
ATOM      8  H6  <0> d          -3.918  -4.061   0.018  0.00  0.00     0.115 H 
ATOM      9  H7  <0> d          -1.955  -5.576  -0.009  0.00  0.00     0.092 H 
ENDROOT
BRANCH   1  10
ATOM     10  O1  <0> d          -1.339  -0.499   0.012  0.00  0.00    -0.320 OA
BRANCH  10  11
ATOM     11  C2  <0> d           0.002  -0.004   0.002  0.00  0.00     0.026 C 
ATOM     12  H4  <0> d           0.512  -0.356  -0.895  0.00  0.00     0.074 H 
ATOM     13  H5  <0> d           0.529  -0.365   0.885  0.00  0.00     0.074 H 
BRANCH  11  14
ATOM     14  C1  <0> d          -0.019   1.526   0.010  0.00  0.00    -0.056 C 
ATOM     15  H1  <0> d           1.004   1.903   0.003  0.00  0.00     0.030 H 
ATOM     16  H2  <0> d          -0.546   1.887  -0.873  0.00  0.00     0.030 H 
ATOM     17  H3  <0> d          -0.529   1.877   0.907  0.00  0.00     0.030 H 
ENDBRANCH  11  14
ENDBRANCH  10  11
ENDBRANCH   1  10
TORSDOF 3
