REMARK  1 active torsions:
REMARK  status: ('A' for Active; 'I' for Inactive)
REMARK    1  A    between atoms: C3_3  and  C5_7 
ROOT
ATOM      1  C5  <0> d           3.614   0.681  -0.029  0.00  0.00     0.052 C 
ATOM      2  C6  <0> d           4.119   0.792   1.349  0.00  0.00     0.065 C 
ATOM      3  N2  <0> d           4.509   0.878   2.413  0.00  0.00    -0.197 NA
ATOM      4  H5  <0> d           3.969  -0.250  -0.472  0.00  0.00     0.064 H 
ATOM      5  H6  <0> d           3.976   1.524  -0.618  0.00  0.00     0.064 H 
ENDROOT
BRANCH   1   6
ATOM      6  C3  <0> d           2.107   0.688  -0.014  0.00  0.00     0.022 A 
ATOM      7  C2  <0> d           1.322   1.784  -0.001  0.00  0.00    -0.059 A 
ATOM      8  C1  <0> d          -0.016   1.344   0.009  0.00  0.00    -0.066 A 
ATOM      9  H3  <0> d           1.658   2.811   0.001  0.00  0.00     0.086 H 
ATOM     10  C4  <0> d           0.002  -0.004   0.002  0.00  0.00    -0.023 A 
ATOM     11  H2  <0> d          -0.895   1.972   0.025  0.00  0.00     0.085 H 
ATOM     12  N1  <0> d           1.303  -0.413  -0.013  0.00  0.00    -0.368 N 
ATOM     13  H4  <0> d          -0.864  -0.649   0.007  0.00  0.00     0.111 H 
ATOM     14  H1  <0> d           1.606  -1.334  -0.021  0.00  0.00     0.165 HD
ENDBRANCH   1   6
TORSDOF 1
