REMARK  1 active torsions:
REMARK  status: ('A' for Active; 'I' for Inactive)
REMARK    1  A    between atoms: C1_1  and  C2_2 
ROOT
ATOM      1  C2  <0> d           1.141   2.106   0.003  0.00  0.00    -0.031 A 
ATOM      2  C3  <0> d          -0.017   1.389   0.010  0.00  0.00    -0.075 A 
ATOM      3  C4  <0> d           0.002  -0.004   0.002  0.00  0.00    -0.080 A 
ATOM      4  C5  <0> d           1.178  -0.688  -0.013  0.00  0.00    -0.053 A 
ATOM      5  C6  <0> d           2.394   0.016  -0.021  0.00  0.00     0.085 A 
ATOM      6  C7  <0> d           2.375   1.434  -0.013  0.00  0.00     0.091 A 
ATOM      7  N1  <0> d           3.529   2.110  -0.021  0.00  0.00    -0.257 NA
ATOM      8  C8  <0> d           4.667   1.455  -0.036  0.00  0.00     0.020 A 
ATOM      9  C9  <0> d           4.686   0.058  -0.044  0.00  0.00     0.020 A 
ATOM     10  N2  <0> d           3.566  -0.628  -0.037  0.00  0.00    -0.257 NA
ATOM     11  H4  <0> d          -0.964   1.909   0.017  0.00  0.00     0.084 H 
ATOM     12  H5  <0> d          -0.930  -0.549   0.008  0.00  0.00     0.083 H 
ATOM     13  H6  <0> d           1.177  -1.768  -0.019  0.00  0.00     0.087 H 
ATOM     14  H7  <0> d           5.599   2.002  -0.043  0.00  0.00     0.117 H 
ATOM     15  H8  <0> d           5.632  -0.463  -0.056  0.00  0.00     0.117 H 
ENDROOT
BRANCH   1  16
ATOM     16  C1  <0> d           1.098   3.612   0.011  0.00  0.00    -0.049 C 
ATOM     17  H1  <0> d           1.098   3.970   1.040  0.00  0.00     0.033 H 
ATOM     18  H2  <0> d           1.973   4.003  -0.509  0.00  0.00     0.033 H 
ATOM     19  H3  <0> d           0.194   3.953  -0.493  0.00  0.00     0.033 H 
ENDBRANCH   1  16
TORSDOF 1
