REMARK  0 active torsions:
REMARK  status: ('A' for Active; 'I' for Inactive)
ROOT
ATOM      1  C1  <0> d          -0.013   1.076   0.008  0.00  0.00    -0.080 A 
ATOM      2  C2  <0> d          -1.219   1.750   0.017  0.00  0.00    -0.062 A 
ATOM      3  C3  <0> d          -1.238   3.134   0.031  0.00  0.00     0.035 A 
ATOM      4  C4  <0> d          -0.050   3.842   0.024  0.00  0.00    -0.041 A 
ATOM      5  C5  <0> d           1.157   3.166   0.009  0.00  0.00     0.035 A 
ATOM      6  C6  <0> d           1.175   1.783   0.000  0.00  0.00    -0.062 A 
ATOM      7 Cl1  <0> d           2.649   4.054   0.000  0.00  0.00    -0.084 Cl
ATOM      8 Cl2  <0> d          -2.754   3.981   0.050  0.00  0.00    -0.084 Cl
ATOM      9  H1  <0> d           0.002  -0.004   0.002  0.00  0.00     0.083 H 
ATOM     10  H2  <0> d          -2.147   1.197   0.019  0.00  0.00     0.086 H 
ATOM     11  H3  <0> d          -0.065   4.922   0.030  0.00  0.00     0.088 H 
ATOM     12  H4  <0> d           2.117   1.255  -0.011  0.00  0.00     0.086 H 
ENDROOT
TORSDOF 0
