REMARK  2 active torsions:
REMARK  status: ('A' for Active; 'I' for Inactive)
REMARK    1  A    between atoms: C1_1  and  C2_2 
REMARK    2  A    between atoms: C6_9  and  C7_11 
ROOT
ATOM      1  C2  <0> d           0.046   3.371   1.331  0.00  0.00    -0.037 C 
ATOM      2  H1  <0> d          -0.257   4.378   1.618  0.00  0.00     0.041 H 
ATOM      3  C3  <0> d           0.587   3.357  -0.135  0.00  0.00    -0.033 C 
ATOM      4  H2  <0> d           1.282   4.153  -0.401  0.00  0.00     0.046 H 
ATOM      5  C4  <0> d          -0.754   3.288  -0.954  0.00  0.00    -0.051 C 
ATOM      6  C5  <0> d          -1.227   1.967  -0.251  0.00  0.00    -0.024 C 
ATOM      7  H3  <0> d          -2.150   1.522  -0.621  0.00  0.00     0.047 H 
ATOM      8  C6  <0> d          -1.209   2.424   1.242  0.00  0.00     0.041 C 
ATOM      9  H4  <0> d          -2.123   2.965   1.488  0.00  0.00     0.058 H 
ATOM     10  C8  <0> d           0.043   1.120  -0.397  0.00  0.00    -0.101 C 
ATOM     11  C9  <0> d           1.088   1.921  -0.333  0.00  0.00    -0.102 C 
ATOM     12  H8  <0> d          -1.413   4.131  -0.748  0.00  0.00     0.035 H 
ATOM     13  H9  <0> d          -0.584   3.152  -2.022  0.00  0.00     0.035 H 
ATOM     14  H10 <0> d           0.076   0.049  -0.533  0.00  0.00     0.077 H 
ATOM     15  H11 <0> d           2.122   1.618  -0.409  0.00  0.00     0.077 H 
ENDROOT
BRANCH   1  16
ATOM     16  C1  <0> d           1.101   2.829   2.298  0.00  0.00    -0.071 C 
ATOM     17  H5  <0> d           2.029   3.388   2.174  0.00  0.00     0.028 H 
ATOM     18  H6  <0> d           0.745   2.939   3.323  0.00  0.00     0.028 H 
ATOM     19  H7  <0> d           1.280   1.775   2.087  0.00  0.00     0.028 H 
ENDBRANCH   1  16
BRANCH   8  20
ATOM     20  C7  <0> d          -1.034   1.239   2.157  0.00  0.00     0.178 C 
ATOM     21  O1  <0> d          -0.889   0.134   1.692  0.00  0.00    -0.648 OA
ATOM     22  O2  <0> d          -1.041   1.412   3.488  0.00  0.00    -0.648 OA
ENDBRANCH   8  20
TORSDOF 2
