REMARK  5 active torsions:
REMARK  status: ('A' for Active; 'I' for Inactive)
REMARK    1  A    between atoms: C1_1  and  C2_2 
REMARK    2  A    between atoms: C2_2  and  C3_3 
REMARK    3  A    between atoms: C3_3  and  C4_5 
REMARK    4  A    between atoms: C3_3  and  N1_6 
REMARK    5  A    between atoms: C5_7  and  N2_8 
ROOT
ATOM      1  C3  <0> d           0.718  -0.497  -1.257  0.00  0.00     0.030 C 
ATOM      2  H1  <0> d           0.244  -0.064  -2.138  0.00  0.00     0.075 H 
ENDROOT
BRANCH   1   3
ATOM      3  C2  <0> d           0.002  -0.004   0.002  0.00  0.00    -0.048 C 
ATOM      4  H6  <0> d           0.529  -0.365   0.885  0.00  0.00     0.035 H 
ATOM      5  H7  <0> d          -1.020  -0.381   0.010  0.00  0.00     0.035 H 
BRANCH   3   6
ATOM      6  C1  <0> d          -0.019   1.526   0.010  0.00  0.00    -0.075 C 
ATOM      7  H3  <0> d           1.004   1.903   0.003  0.00  0.00     0.027 H 
ATOM      8  H4  <0> d          -0.546   1.887  -0.873  0.00  0.00     0.027 H 
ATOM      9  H5  <0> d          -0.529   1.877   0.907  0.00  0.00     0.027 H 
ENDBRANCH   3   6
ENDBRANCH   1   3
BRANCH   1  10
ATOM     10  C4  <0> d           2.187  -0.073  -1.207  0.00  0.00    -0.055 C 
ATOM     11  H8  <0> d           2.661  -0.506  -0.326  0.00  0.00     0.030 H 
ATOM     12  H9  <0> d           2.697  -0.425  -2.104  0.00  0.00     0.030 H 
ATOM     13  H10 <0> d           2.250   1.014  -1.156  0.00  0.00     0.030 H 
ENDBRANCH   1  10
BRANCH   1  14
ATOM     14  N1  <0> d           0.634  -1.958  -1.325  0.00  0.00    -0.273 N 
ATOM     15  N3  <0> d           1.132  -2.858  -0.375  0.00  0.00    -0.308 N 
ATOM     16  C7  <0> d           0.866  -4.074  -0.778  0.00  0.00    -0.003 A 
ATOM     17  H2  <0> d           1.594  -2.620   0.445  0.00  0.00     0.186 HD
ATOM     18  C6  <0> d           0.198  -3.994  -2.003  0.00  0.00    -0.023 A 
ATOM     19  H13 <0> d           1.123  -4.984  -0.256  0.00  0.00     0.113 H 
ATOM     20  C5  <0> d           0.067  -2.677  -2.321  0.00  0.00     0.117 A 
ATOM     21  H12 <0> d          -0.151  -4.829  -2.593  0.00  0.00     0.091 H 
BRANCH  20  22
ATOM     22  N2  <0> d          -0.541  -2.163  -3.463  0.00  0.00    -0.384 N 
ATOM     23  H11 <0> d          -0.585  -1.203  -3.599  0.00  0.00     0.157 HD
ATOM     24  H14 <0> d          -0.921  -2.764  -4.122  0.00  0.00     0.157 HD
ENDBRANCH  20  22
ENDBRANCH   1  14
TORSDOF 5
