REMARK  2 active torsions:
REMARK  status: ('A' for Active; 'I' for Inactive)
REMARK    1  A    between atoms: C3_3  and  C4_4 
REMARK    2  A    between atoms: C6_7  and  N2_9 
ROOT
ATOM      1  C4  <0> d          -0.016   1.339   0.009  0.00  0.00     0.153 A 
ATOM      2  N1  <0> d           1.199   1.794   0.000  0.00  0.00    -0.213 NA
ATOM      3  C5  <0> d           2.061   0.738  -0.014  0.00  0.00     0.189 A 
ATOM      4  C6  <0> d           1.285  -0.409  -0.012  0.00  0.00     0.183 A 
ATOM      5  O1  <0> d           0.002  -0.004   0.002  0.00  0.00    -0.276 OA
ATOM      6  C7  <0> d           3.491   0.802  -0.026  0.00  0.00     0.124 C 
ATOM      7  N3  <0> d           4.626   0.853  -0.037  0.00  0.00    -0.190 NA
ENDROOT
BRANCH   4   8
ATOM      8  N2  <0> d           1.739  -1.712  -0.024  0.00  0.00    -0.377 N 
ATOM      9  H6  <0> d           1.105  -2.446  -0.022  0.00  0.00     0.158 HD
ATOM     10  H7  <0> d           2.692  -1.893  -0.035  0.00  0.00     0.158 HD
ENDBRANCH   4   8
BRANCH   1  11
ATOM     11  C3  <0> d          -1.260   2.189   0.020  0.00  0.00     0.011 A 
ATOM     12  C1  <0> d          -1.088   3.696  -0.176  0.00  0.00    -0.054 A 
ATOM     13  C2  <0> d          -1.455   3.141   1.202  0.00  0.00    -0.054 A 
ATOM     14  H1  <0> d          -0.074   4.073  -0.313  0.00  0.00     0.034 H 
ATOM     15  H2  <0> d          -1.865   4.224  -0.729  0.00  0.00     0.034 H 
ATOM     16  H3  <0> d          -2.474   3.304   1.555  0.00  0.00     0.034 H 
ATOM     17  H4  <0> d          -0.683   3.153   1.971  0.00  0.00     0.034 H 
ATOM     18  H5  <0> d          -2.151   1.725  -0.404  0.00  0.00     0.052 H 
ENDBRANCH   1  11
TORSDOF 2
