REMARK  4 active torsions:
REMARK  status: ('A' for Active; 'I' for Inactive)
REMARK    1  A    between atoms: C2_2  and  N4_10 
REMARK    2  A    between atoms: C4_4  and  N3_9 
REMARK    3  A    between atoms: C5_5  and  N2_8 
REMARK    4  A    between atoms: C6_6  and  N1_7 
ROOT
ATOM      1  C1  <0> d          -0.017   1.384   0.010  0.00  0.00    -0.030 A 
ATOM      2  C2  <0> d           1.175   2.095   0.002  0.00  0.00     0.030 A 
ATOM      3  C3  <0> d           2.388   1.420  -0.014  0.00  0.00    -0.030 A 
ATOM      4  C4  <0> d           2.411   0.032  -0.022  0.00  0.00     0.056 A 
ATOM      5  C5  <0> d           1.217  -0.683  -0.014  0.00  0.00     0.079 A 
ATOM      6  C6  <0> d           0.002  -0.004   0.002  0.00  0.00     0.056 A 
ATOM      7  H1  <0> d          -0.959   1.911   0.026  0.00  0.00     0.090 H 
ATOM      8  H2  <0> d           3.315   1.975  -0.020  0.00  0.00     0.090 H 
ENDROOT
BRANCH   2   9
ATOM      9  N4  <0> d           1.154   3.494   0.010  0.00  0.00    -0.399 N 
ATOM     10  H9  <0> d           0.307   3.967   0.021  0.00  0.00     0.156 HD
ATOM     11  H10 <0> d           1.987   3.992   0.005  0.00  0.00     0.156 HD
ENDBRANCH   2   9
BRANCH   6  12
ATOM     12  N1  <0> d          -1.201  -0.721   0.010  0.00  0.00    -0.397 N 
ATOM     13  H3  <0> d          -2.047  -0.248   0.021  0.00  0.00     0.156 HD
ATOM     14  H4  <0> d          -1.187  -1.691   0.005  0.00  0.00     0.156 HD
ENDBRANCH   6  12
BRANCH   4  15
ATOM     15  N3  <0> d           3.635  -0.648  -0.038  0.00  0.00    -0.397 N 
ATOM     16  H7  <0> d           4.467  -0.149  -0.044  0.00  0.00     0.156 HD
ATOM     17  H8  <0> d           3.651  -1.618  -0.044  0.00  0.00     0.156 HD
ENDBRANCH   4  15
BRANCH   5  18
ATOM     18  N2  <0> d           1.238  -2.090  -0.022  0.00  0.00    -0.395 N 
ATOM     19  H5  <0> d           2.086  -2.562  -0.034  0.00  0.00     0.156 HD
ATOM     20  H6  <0> d           0.406  -2.587  -0.017  0.00  0.00     0.156 HD
ENDBRANCH   5  18
TORSDOF 4
