REMARK  3 active torsions:
REMARK  status: ('A' for Active; 'I' for Inactive)
REMARK    1  A    between atoms: C3_3  and  C5_7 
REMARK    2  A    between atoms: C5_7  and  C6_8 
REMARK    3  A    between atoms: C6_8  and  C7_9 
ROOT
ATOM      1  C1  <0> d           2.837   5.365   0.786  0.00  0.00    -0.043 C 
ATOM      2  C2  <0> d           2.830   4.120  -0.129  0.00  0.00    -0.039 C 
ATOM      3  C3  <0> d           1.396   3.562   0.008  0.00  0.00     0.039 C 
ATOM      4  H1  <0> d           0.765   3.937  -0.798  0.00  0.00     0.083 H 
ATOM      5  O1  <0> d           0.930   4.052   1.284  0.00  0.00    -0.386 OA
ATOM      6  C4  <0> d           1.407   5.412   1.367  0.00  0.00     0.020 C 
ATOM      7  H2  <0> d           3.571   5.249   1.584  0.00  0.00     0.036 H 
ATOM      8  H3  <0> d           3.046   6.264   0.205  0.00  0.00     0.036 H 
ATOM      9  H4  <0> d           3.560   3.388   0.217  0.00  0.00     0.036 H 
ATOM     10  H5  <0> d           3.034   4.402  -1.162  0.00  0.00     0.036 H 
ATOM     11  H6  <0> d           1.430   5.744   2.405  0.00  0.00     0.074 H 
ATOM     12  H7  <0> d           0.777   6.074   0.772  0.00  0.00     0.074 H 
ENDROOT
BRANCH   3  13
ATOM     13  C5  <0> d           1.417   2.032  -0.001  0.00  0.00    -0.032 C 
ATOM     14  H8  <0> d           1.944   1.671   0.882  0.00  0.00     0.037 H 
ATOM     15  H9  <0> d           1.927   1.681  -0.897  0.00  0.00     0.037 H 
BRANCH  13  16
ATOM     16  C6  <0> d          -0.018   1.503   0.010  0.00  0.00     0.018 C 
ATOM     17  H10 <0> d          -0.545   1.864  -0.873  0.00  0.00     0.049 H 
ATOM     18  H11 <0> d          -0.529   1.854   0.907  0.00  0.00     0.049 H 
BRANCH  16  19
ATOM     19  C7  <0> d           0.002  -0.004   0.002  0.00  0.00     0.172 C 
ATOM     20  O2  <0> d           1.056  -0.594  -0.011  0.00  0.00    -0.648 OA
ATOM     21  O3  <0> d          -1.151  -0.691   0.009  0.00  0.00    -0.648 OA
ENDBRANCH  16  19
ENDBRANCH  13  16
ENDBRANCH   3  13
TORSDOF 3
