REMARK  4 active torsions:
REMARK  status: ('A' for Active; 'I' for Inactive)
REMARK    1  A    between atoms: C1_1  and  N1_2 
REMARK       I    between atoms: N1_2  and  C2_3 
REMARK    2  A    between atoms: C2_3  and  C3_5 
REMARK    3  A    between atoms: C4_6  and  C5_7 
REMARK       I    between atoms: C5_7  and  N2_9 
REMARK    4  A    between atoms: N2_9  and  C6_10 
ROOT
ATOM      1  C3  <0> d           0.002  -0.004   0.002  0.00  0.00     0.004 C 
ATOM      2  C4  <0> d           0.018  -1.178  -0.004  0.00  0.00     0.004 C 
ENDROOT
BRANCH   1   3
ATOM      3  C2  <0> d          -0.017   1.428   0.010  0.00  0.00     0.296 C 
ATOM      4  N1  <0> d          -1.194   2.086   0.019  0.00  0.00    -0.355 N 
ATOM      5  H4  <0> d          -2.027   1.589   0.020  0.00  0.00     0.162 HD
ATOM      6  O1  <0> d           1.027   2.050   0.003  0.00  0.00    -0.258 OA
BRANCH   4   7
ATOM      7  C1  <0> d          -1.213   3.551   0.027  0.00  0.00    -0.018 C 
ATOM      8  H1  <0> d          -2.246   3.900   0.034  0.00  0.00     0.056 H 
ATOM      9  H2  <0> d          -0.700   3.916   0.917  0.00  0.00     0.056 H 
ATOM     10  H3  <0> d          -0.709   3.926  -0.863  0.00  0.00     0.056 H 
ENDBRANCH   4   7
ENDBRANCH   1   3
BRANCH   2  11
ATOM     11  C5  <0> d           0.037  -2.610  -0.012  0.00  0.00     0.296 C 
ATOM     12  O2  <0> d          -1.007  -3.232  -0.006  0.00  0.00    -0.258 OA
ATOM     13  N2  <0> d           1.214  -3.268  -0.027  0.00  0.00    -0.355 N 
ATOM     14  H5  <0> d           2.047  -2.771  -0.032  0.00  0.00     0.162 HD
BRANCH  13  15
ATOM     15  C6  <0> d           1.234  -4.733  -0.035  0.00  0.00    -0.018 C 
ATOM     16  H6  <0> d           0.733  -5.108   0.858  0.00  0.00     0.056 H 
ATOM     17  H7  <0> d           0.716  -5.098  -0.922  0.00  0.00     0.056 H 
ATOM     18  H8  <0> d           2.266  -5.082  -0.047  0.00  0.00     0.056 H 
ENDBRANCH  13  15
ENDBRANCH   2  11
TORSDOF 4
