REMARK  2 active torsions:
REMARK  status: ('A' for Active; 'I' for Inactive)
REMARK    1  A    between atoms: C1_1  and  C2_2 
REMARK    2  A    between atoms: N1_5  and  C5_7 
ROOT
ATOM      1  C5  <0> d          -0.018   1.461   0.010  0.00  0.00     0.034 C 
ATOM      2  C6  <0> d          -0.768   1.972   1.257  0.00  0.00    -0.044 C 
ATOM      3  C7  <0> d          -1.536   3.220   0.752  0.00  0.00    -0.063 C 
ATOM      4  C8  <0> d          -1.983   2.796  -0.668  0.00  0.00    -0.063 C 
ATOM      5  C9  <0> d          -0.790   1.984  -1.214  0.00  0.00    -0.044 C 
ATOM      6  H6  <0> d           1.001   1.848   0.002  0.00  0.00     0.075 H 
ATOM      7  H7  <0> d          -1.465   1.216   1.620  0.00  0.00     0.036 H 
ATOM      8  H8  <0> d          -0.062   2.249   2.040  0.00  0.00     0.036 H 
ATOM      9  H9  <0> d          -0.876   4.087   0.707  0.00  0.00     0.033 H 
ATOM     10  H10 <0> d          -2.400   3.424   1.385  0.00  0.00     0.033 H 
ATOM     11  H11 <0> d          -2.164   3.673  -1.290  0.00  0.00     0.033 H 
ATOM     12  H12 <0> d          -2.876   2.173  -0.617  0.00  0.00     0.033 H 
ATOM     13  H13 <0> d          -0.145   2.626  -1.815  0.00  0.00     0.036 H 
ATOM     14  H14 <0> d          -1.149   1.148  -1.814  0.00  0.00     0.036 H 
ENDROOT
BRANCH   1  15
ATOM     15  N1  <0> d           0.002  -0.004   0.002  0.00  0.00    -0.276 N 
ATOM     16  C4  <0> d          -0.963  -0.814   0.485  0.00  0.00     0.001 A 
ATOM     17  C3  <0> d          -0.568  -2.092   0.285  0.00  0.00    -0.041 A 
ATOM     18  H5  <0> d          -1.888  -0.498   0.946  0.00  0.00     0.114 H 
ATOM     19  C2  <0> d           0.687  -2.063  -0.333  0.00  0.00     0.052 A 
ATOM     20  H4  <0> d          -1.121  -2.979   0.558  0.00  0.00     0.088 H 
ATOM     21  N2  <0> d           1.029  -0.812  -0.503  0.00  0.00    -0.178 NA
BRANCH  19  22
ATOM     22  C1  <0> d           1.503  -3.265  -0.733  0.00  0.00    -0.034 C 
ATOM     23  H1  <0> d           2.154  -3.553   0.092  0.00  0.00     0.035 H 
ATOM     24  H2  <0> d           0.837  -4.092  -0.976  0.00  0.00     0.035 H 
ATOM     25  H3  <0> d           2.109  -3.018  -1.605  0.00  0.00     0.035 H 
ENDBRANCH  19  22
ENDBRANCH   1  15
TORSDOF 2
