REMARK  9 active torsions:
REMARK  status: ('A' for Active; 'I' for Inactive)
REMARK    1  A    between atoms: C1_1  and  C2_2 
REMARK    2  A    between atoms: C2_2  and  O1_3 
REMARK    3  A    between atoms: O1_3  and  C3_4 
REMARK    4  A    between atoms: C3_4  and  C4_6 
REMARK    5  A    between atoms: C3_4  and  O2_7 
REMARK    6  A    between atoms: O2_7  and  C5_8 
REMARK    7  A    between atoms: C5_8  and  C6_9 
REMARK    8  A    between atoms: C6_9  and  C7_10 
REMARK    9  A    between atoms: C6_9  and  C8_11 
ROOT
ATOM      1  C3  <0> d           0.008   0.942  -0.228  0.00  0.00     0.127 C 
ATOM      2  H1  <0> d          -0.527   0.054  -0.565  0.00  0.00     0.128 H 
ENDROOT
BRANCH   1   3
ATOM      3  O1  <0> d          -0.302   2.040  -1.089  0.00  0.00    -0.362 OA
BRANCH   3   4
ATOM      4  C2  <0> d          -1.696   2.180  -1.373  0.00  0.00     0.019 C 
ATOM      5  H5  <0> d          -2.086   1.236  -1.752  0.00  0.00     0.073 H 
ATOM      6  H6  <0> d          -2.227   2.453  -0.461  0.00  0.00     0.073 H 
BRANCH   4   7
ATOM      7  C1  <0> d          -1.894   3.272  -2.426  0.00  0.00    -0.056 C 
ATOM      8  H2  <0> d          -2.957   3.380  -2.643  0.00  0.00     0.030 H 
ATOM      9  H3  <0> d          -1.503   4.217  -2.047  0.00  0.00     0.030 H 
ATOM     10  H4  <0> d          -1.363   2.999  -3.338  0.00  0.00     0.030 H 
ENDBRANCH   4   7
ENDBRANCH   3   4
ENDBRANCH   1   3
BRANCH   1  11
ATOM     11  C4  <0> d           1.514   0.674  -0.265  0.00  0.00    -0.031 C 
ATOM     12  H7  <0> d           2.049   1.562   0.072  0.00  0.00     0.034 H 
ATOM     13  H8  <0> d           1.750  -0.163   0.392  0.00  0.00     0.034 H 
ATOM     14  H9  <0> d           1.815   0.433  -1.284  0.00  0.00     0.034 H 
ENDBRANCH   1  11
BRANCH   1  15
ATOM     15  O2  <0> d          -0.387   1.258   1.108  0.00  0.00    -0.361 OA
BRANCH  15  16
ATOM     16  C5  <0> d          -1.727   0.875   1.424  0.00  0.00     0.025 C 
ATOM     17  H10 <0> d          -2.410   1.305   0.692  0.00  0.00     0.075 H 
ATOM     18  H11 <0> d          -1.809  -0.212   1.403  0.00  0.00     0.075 H 
BRANCH  16  19
ATOM     19  C6  <0> d          -2.088   1.386   2.821  0.00  0.00    -0.040 C 
ATOM     20  H12 <0> d          -1.921   2.462   2.868  0.00  0.00     0.042 H 
BRANCH  19  21
ATOM     21  C7  <0> d          -3.560   1.085   3.109  0.00  0.00    -0.071 C 
ATOM     22  H13 <0> d          -3.727   0.009   3.062  0.00  0.00     0.028 H 
ATOM     23  H14 <0> d          -3.817   1.449   4.104  0.00  0.00     0.028 H 
ATOM     24  H15 <0> d          -4.185   1.582   2.367  0.00  0.00     0.028 H 
ENDBRANCH  19  21
BRANCH  19  25
ATOM     25  C8  <0> d          -1.211   0.688   3.862  0.00  0.00    -0.071 C 
ATOM     26  H16 <0> d          -0.162   0.902   3.656  0.00  0.00     0.028 H 
ATOM     27  H17 <0> d          -1.468   1.052   4.856  0.00  0.00     0.028 H 
ATOM     28  H18 <0> d          -1.378  -0.388   3.814  0.00  0.00     0.028 H 
ENDBRANCH  19  25
ENDBRANCH  16  19
ENDBRANCH  15  16
ENDBRANCH   1  15
TORSDOF 9
