REMARK  3 active torsions:
REMARK  status: ('A' for Active; 'I' for Inactive)
REMARK    1  A    between atoms: C1_1  and  C2_2 
REMARK    2  A    between atoms: C3_4  and  C5_7 
REMARK    3  A    between atoms: C5_7  and  C6_8 
REMARK       I    between atoms: C6_8  and  N2_10 
ROOT
ATOM      1  C2  <0> d           2.277   1.350  -0.012  0.00  0.00     0.071 A 
ATOM      2  N1  <0> d           1.133   1.995   0.002  0.00  0.00    -0.250 NA
ATOM      3  C3  <0> d          -0.016   1.353   0.009  0.00  0.00     0.050 A 
ATOM      4  C4  <0> d           0.002  -0.004   0.002  0.00  0.00    -0.019 A 
ATOM      5  S1  <0> d           1.763  -0.308  -0.016  0.00  0.00    -0.085 SA
ATOM      6  H4  <0> d          -0.819  -0.705   0.006  0.00  0.00     0.098 H 
ENDROOT
BRANCH   3   7
ATOM      7  C5  <0> d          -1.321   2.107   0.020  0.00  0.00     0.049 C 
ATOM      8  H5  <0> d          -1.423   2.670  -0.908  0.00  0.00     0.056 H 
ATOM      9  H6  <0> d          -2.147   1.403   0.110  0.00  0.00     0.056 H 
BRANCH   7  10
ATOM     10  C6  <0> d          -1.343   3.058   1.189  0.00  0.00     0.221 C 
ATOM     11  O1  <0> d          -0.392   3.117   1.940  0.00  0.00    -0.273 OA
ATOM     12  N2  <0> d          -2.418   3.842   1.400  0.00  0.00    -0.370 N 
ATOM     13  H7  <0> d          -3.178   3.795   0.799  0.00  0.00     0.159 HD
ATOM     14  H8  <0> d          -2.432   4.454   2.153  0.00  0.00     0.159 HD
ENDBRANCH   7  10
ENDBRANCH   3   7
BRANCH   1  15
ATOM     15  C1  <0> d           3.678   1.907  -0.023  0.00  0.00    -0.029 C 
ATOM     16  H1  <0> d           4.395   1.087  -0.034  0.00  0.00     0.036 H 
ATOM     17  H2  <0> d           3.817   2.523  -0.911  0.00  0.00     0.036 H 
ATOM     18  H3  <0> d           3.834   2.515   0.869  0.00  0.00     0.036 H 
ENDBRANCH   1  15
TORSDOF 3
