REMARK  8 active torsions:
REMARK  status: ('A' for Active; 'I' for Inactive)
REMARK    1  A    between atoms: C1_1  and  C2_2 
REMARK    2  A    between atoms: C2_2  and  C3_4 
REMARK    3  A    between atoms: C2_2  and  O2_6 
REMARK    4  A    between atoms: C3_4  and  O1_5 
REMARK    5  A    between atoms: O2_6  and  C4_7 
REMARK    6  A    between atoms: C4_7  and  C5_8 
REMARK    7  A    between atoms: C5_8  and  C6_10 
REMARK    8  A    between atoms: C5_8  and  O3_11 
ROOT
ATOM      1  O2  <0> d           1.376   1.645  -2.415  0.00  0.00    -0.382 OA
ENDROOT
BRANCH   1   2
ATOM      2  C2  <0> d           2.002   1.296  -3.651  0.00  0.00     0.055 C 
ATOM      3  H1  <0> d           2.500   0.332  -3.546  0.00  0.00     0.086 H 
BRANCH   2   4
ATOM      4  C1  <0> d           3.033   2.364  -4.021  0.00  0.00    -0.050 C 
ATOM      5  H3  <0> d           2.535   3.328  -4.126  0.00  0.00     0.031 H 
ATOM      6  H4  <0> d           3.787   2.428  -3.237  0.00  0.00     0.031 H 
ATOM      7  H5  <0> d           3.511   2.097  -4.964  0.00  0.00     0.031 H 
ENDBRANCH   2   4
BRANCH   2   8
ATOM      8  C3  <0> d           0.943   1.206  -4.752  0.00  0.00     0.040 C 
ATOM      9  H6  <0> d           1.406   0.853  -5.674  0.00  0.00     0.077 H 
ATOM     10  H7  <0> d           0.162   0.509  -4.449  0.00  0.00     0.077 H 
BRANCH   8  11
ATOM     11  O1  <0> d           0.372   2.497  -4.970  0.00  0.00    -0.398 OA
ATOM     12  H8  <0> d          -0.309   2.515  -5.656  0.00  0.00     0.209 HD
ENDBRANCH   8  11
ENDBRANCH   2   8
ENDBRANCH   1   2
BRANCH   1  13
ATOM     13  C4  <0> d           2.040   1.127  -1.261  0.00  0.00     0.043 C 
ATOM     14  H9  <0> d           3.059   1.512  -1.225  0.00  0.00     0.078 H 
ATOM     15  H10 <0> d           2.063   0.039  -1.313  0.00  0.00     0.078 H 
BRANCH  13  16
ATOM     16  C5  <0> d           1.286   1.562  -0.002  0.00  0.00     0.052 C 
ATOM     17  H2  <0> d           1.186   2.647   0.005  0.00  0.00     0.085 H 
BRANCH  16  18
ATOM     18  C6  <0> d           2.064   1.114   1.238  0.00  0.00    -0.051 C 
ATOM     19  H11 <0> d           2.164   0.029   1.231  0.00  0.00     0.031 H 
ATOM     20  H12 <0> d           3.053   1.571   1.231  0.00  0.00     0.031 H 
ATOM     21  H13 <0> d           1.527   1.423   2.135  0.00  0.00     0.031 H 
ENDBRANCH  16  18
BRANCH  16  22
ATOM     22  O3  <0> d          -0.011   0.963   0.007  0.00  0.00    -0.394 OA
ATOM     23  H14 <0> d           0.002  -0.004   0.002  0.00  0.00     0.210 HD
ENDBRANCH  16  22
ENDBRANCH  13  16
ENDBRANCH   1  13
TORSDOF 8
