REMARK  0 active torsions:
REMARK  status: ('A' for Active; 'I' for Inactive)
ROOT
ATOM      1  C1  <0> d          -2.531   2.164   0.025  0.00  0.00     0.125 C 
ATOM      2  N1  <0> d          -3.621   1.843   0.028  0.00  0.00    -0.190 NA
ATOM      3  C2  <0> d          -1.158   2.568   0.021  0.00  0.00     0.200 A 
ATOM      4  C3  <0> d          -0.021   1.732   0.012  0.00  0.00     0.188 A 
ATOM      5  N2  <0> d           1.014   2.538   0.006  0.00  0.00    -0.142 NA
ATOM      6  N3  <0> d           0.599   3.754   0.016  0.00  0.00    -0.194 N 
ATOM      7  H1  <0> d           1.197   4.556   0.014  0.00  0.00     0.213 HD
ATOM      8  N4  <0> d          -0.686   3.806   0.028  0.00  0.00    -0.143 NA
ATOM      9 Cl1  <0> d           0.002  -0.004   0.002  0.00  0.00    -0.057 Cl
ENDROOT
TORSDOF 0
