REMARK  3 active torsions:
REMARK  status: ('A' for Active; 'I' for Inactive)
REMARK    1  A    between atoms: C1_1  and  C2_2 
REMARK    2  A    between atoms: C3_4  and  C6_10 
REMARK    3  A    between atoms: C4_6  and  C5_9 
ROOT
ATOM      1  C2  <0> d           0.472   1.771  -2.087  0.00  0.00     0.075 C 
ATOM      2  H1  <0> d           0.266   2.621  -2.754  0.00  0.00     0.092 H 
ATOM      3  C3  <0> d           1.661   2.004  -1.181  0.00  0.00     0.034 C 
ATOM      4  N1  <0> d           1.359   1.609  -0.002  0.00  0.00    -0.265 NA
ATOM      5  C4  <0> d          -0.013   1.086   0.008  0.00  0.00     0.121 C 
ATOM      6  H2  <0> d          -0.009  -0.014  -0.010  0.00  0.00     0.120 H 
ATOM      7  O1  <0> d          -0.641   1.579  -1.191  0.00  0.00    -0.355 OA
ENDROOT
BRANCH   1   8
ATOM      8  C1  <0> d           0.690   0.521  -2.941  0.00  0.00    -0.047 C 
ATOM      9  H3  <0> d           1.542   0.683  -3.619  0.00  0.00     0.031 H 
ATOM     10  H4  <0> d          -0.215   0.318  -3.533  0.00  0.00     0.031 H 
ATOM     11  H5  <0> d           0.901  -0.338  -2.287  0.00  0.00     0.031 H 
ENDBRANCH   1   8
BRANCH   3  12
ATOM     12  C6  <0> d           2.981   2.601  -1.598  0.00  0.00    -0.037 C 
ATOM     13  H9  <0> d           3.653   2.647  -0.728  0.00  0.00     0.035 H 
ATOM     14  H10 <0> d           2.817   3.615  -1.989  0.00  0.00     0.035 H 
ATOM     15  H11 <0> d           3.436   1.975  -2.380  0.00  0.00     0.035 H 
ENDBRANCH   3  12
BRANCH   5  16
ATOM     16  C5  <0> d          -0.760   1.594   1.242  0.00  0.00    -0.035 C 
ATOM     17  H6  <0> d          -1.786   1.196   1.240  0.00  0.00     0.033 H 
ATOM     18  H7  <0> d          -0.793   2.693   1.224  0.00  0.00     0.033 H 
ATOM     19  H8  <0> d          -0.239   1.258   2.151  0.00  0.00     0.033 H 
ENDBRANCH   5  16
TORSDOF 3
