REMARK  2 active torsions:
REMARK  status: ('A' for Active; 'I' for Inactive)
REMARK    1  A    between atoms: C2_2  and  C5_8 
REMARK    2  A    between atoms: C4_5  and  N3_7 
ROOT
ATOM      1  C1  <0> d          -2.502   1.218   0.015  0.00  0.00     0.039 A 
ATOM      2  C2  <0> d          -1.303   1.932   0.019  0.00  0.00     0.150 A 
ATOM      3  N1  <0> d          -1.322   3.264   0.026  0.00  0.00    -0.249 NA
ATOM      4  C3  <0> d          -2.469   3.906   0.035  0.00  0.00     0.047 A 
ATOM      5  C4  <0> d          -3.671   3.191   0.037  0.00  0.00     0.138 A 
ATOM      6  N2  <0> d          -3.654   1.863   0.030  0.00  0.00    -0.240 NA
ATOM      7  H1  <0> d          -2.488   0.138   0.004  0.00  0.00     0.118 H 
ATOM      8  H2  <0> d          -2.483   4.986   0.041  0.00  0.00     0.120 H 
ENDROOT
BRANCH   2   9
ATOM      9  C5  <0> d          -0.014   1.211   0.009  0.00  0.00     0.230 C 
ATOM     10  O1  <0> d           0.002  -0.004   0.002  0.00  0.00    -0.643 OA
ATOM     11  O2  <0> d           1.143   1.900   0.001  0.00  0.00    -0.643 OA
ENDBRANCH   2   9
BRANCH   5  12
ATOM     12  N3  <0> d          -4.878   3.867   0.046  0.00  0.00    -0.383 N 
ATOM     13  H3  <0> d          -5.824   3.304   0.047  0.00  0.00     0.157 HD
ATOM     14  H4  <0> d          -4.893   4.967   0.052  0.00  0.00     0.157 HD
ENDBRANCH   5  12
TORSDOF 2
