REMARK  4 active torsions:
REMARK  status: ('A' for Active; 'I' for Inactive)
REMARK    1  A    between atoms: C1_1  and  C2_2 
REMARK    2  A    between atoms: C1_1  and  C4_7 
REMARK    3  A    between atoms: C2_2  and  N1_3 
REMARK       I    between atoms: N1_3  and  C3_4 
REMARK       I    between atoms: C3_4  and  N2_6 
REMARK    4  A    between atoms: C4_7  and  O2_8 
ROOT
ATOM      1  C2  <0> d           2.422   1.186  -0.015  0.00  0.00    -0.001 C 
ATOM      2  H3  <0> d           2.497   0.556   0.871  0.00  0.00     0.064 H 
ATOM      3  H4  <0> d           2.480   0.565  -0.909  0.00  0.00     0.064 H 
ENDROOT
BRANCH   1   4
ATOM      4  C1  <0> d           3.571   2.196  -0.020  0.00  0.00    -0.031 C 
ATOM      5  H1  <0> d           3.497   2.827  -0.906  0.00  0.00     0.038 H 
ATOM      6  H2  <0> d           3.514   2.817   0.874  0.00  0.00     0.038 H 
BRANCH   4   7
ATOM      7  C4  <0> d           4.907   1.449  -0.037  0.00  0.00     0.018 C 
ATOM      8  H8  <0> d           4.981   0.819   0.849  0.00  0.00     0.074 H 
ATOM      9  H9  <0> d           4.964   0.828  -0.931  0.00  0.00     0.074 H 
BRANCH   7  10
ATOM     10  O2  <0> d           5.980   2.393  -0.042  0.00  0.00    -0.401 OA
ATOM     11  H10 <0> d           6.858   1.989  -0.053  0.00  0.00     0.209 HD
ENDBRANCH   7  10
ENDBRANCH   4   7
ENDBRANCH   1   4
BRANCH   1  12
ATOM     12  N1  <0> d           1.143   1.901   0.001  0.00  0.00    -0.343 N 
ATOM     13  C3  <0> d          -0.014   1.212   0.009  0.00  0.00     0.313 C 
ATOM     14  O1  <0> d           0.002  -0.004   0.002  0.00  0.00    -0.248 OA
ATOM     15  N2  <0> d          -1.191   1.870   0.018  0.00  0.00    -0.352 N 
ATOM     16  H6  <0> d          -2.024   1.373   0.019  0.00  0.00     0.160 HD
ATOM     17  H7  <0> d          -1.204   2.840   0.023  0.00  0.00     0.160 HD
ATOM     18  H5  <0> d           1.130   2.871   0.007  0.00  0.00     0.164 HD
ENDBRANCH   1  12
TORSDOF 4
