REMARK  1 active torsions:
REMARK  status: ('A' for Active; 'I' for Inactive)
REMARK    1  A    between atoms: C3_5  and  N4_7 
ROOT
ATOM      1  C1  <0> d          -0.013   1.076   0.008  0.00  0.00     0.106 A 
ATOM      2  N1  <0> d           1.125   1.752   0.001  0.00  0.00    -0.234 NA
ATOM      3  C2  <0> d           1.112   3.075   0.007  0.00  0.00     0.106 A 
ATOM      4  N2  <0> d          -0.037   3.726   0.021  0.00  0.00    -0.056 NA
ATOM      5  C3  <0> d          -1.183   3.050   0.029  0.00  0.00     0.722 A 
ATOM      6  N3  <0> d          -1.166   1.720   0.017  0.00  0.00    -0.056 NA
ATOM      7  H1  <0> d           0.002  -0.004   0.002  0.00  0.00     0.147 H 
ATOM      8  H2  <0> d           2.042   3.624   0.001  0.00  0.00     0.147 H 
ENDROOT
BRANCH   5   9
ATOM      9  N4  <0> d          -2.385   3.726   0.043  0.00  0.00    -0.231 N 
ATOM     10  H3  <0> d          -2.396   4.696   0.049  0.00  0.00     0.174 HD
ATOM     11  H4  <0> d          -3.220   3.232   0.049  0.00  0.00     0.174 HD
ENDBRANCH   5   9
TORSDOF 1
