REMARK  1 active torsions:
REMARK  status: ('A' for Active; 'I' for Inactive)
REMARK    1  A    between atoms: C1_1  and  C2_2 
ROOT
ATOM      1  C2  <0> d          -0.761   1.597  -1.227  0.00  0.00    -0.051 C 
ATOM      2  H1  <0> d          -1.751   1.142  -1.267  0.00  0.00     0.040 H 
ATOM      3  C3  <0> d          -0.902   3.118  -1.143  0.00  0.00    -0.061 C 
ATOM      4  C4  <0> d          -1.760   3.493   0.067  0.00  0.00    -0.059 C 
ATOM      5  C5  <0> d          -1.049   3.053   1.351  0.00  0.00    -0.010 C 
ATOM      6  C6  <0> d          -0.728   1.577   1.247  0.00  0.00     0.127 C 
ATOM      7  O1  <0> d          -1.040   0.812   2.127  0.00  0.00    -0.298 OA
ATOM      8  C7  <0> d          -0.013   1.086   0.008  0.00  0.00    -0.007 C 
ATOM      9  H5  <0> d           0.085   3.568  -1.040  0.00  0.00     0.033 H 
ATOM     10  H6  <0> d          -1.377   3.489  -2.051  0.00  0.00     0.033 H 
ATOM     11  H7  <0> d          -1.909   4.572   0.086  0.00  0.00     0.033 H 
ATOM     12  H8  <0> d          -2.726   2.993  -0.003  0.00  0.00     0.033 H 
ATOM     13  H9  <0> d          -0.205   3.578   1.462  0.00  0.00     0.044 H 
ATOM     14  H10 <0> d          -1.699   3.227   2.208  0.00  0.00     0.044 H 
ATOM     15  H11 <0> d           0.004   0.086  -0.002  0.00  0.00     0.044 H 
ATOM     16  H12 <0> d           1.009   1.466   0.000  0.00  0.00     0.044 H 
ENDROOT
BRANCH   1  17
ATOM     17  C1  <0> d           0.022   1.226  -2.488  0.00  0.00    -0.073 C 
ATOM     18  H2  <0> d           0.123   0.143  -2.548  0.00  0.00     0.028 H 
ATOM     19  H3  <0> d          -0.511   1.590  -3.367  0.00  0.00     0.028 H 
ATOM     20  H4  <0> d           1.011   1.682  -2.449  0.00  0.00     0.028 H 
ENDBRANCH   1  17
TORSDOF 1
