REMARK  4 active torsions:
REMARK  status: ('A' for Active; 'I' for Inactive)
REMARK    1  A    between atoms: C3_3  and  C5_6 
REMARK    2  A    between atoms: C5_6  and  C6_7 
REMARK    3  A    between atoms: C6_7  and  C7_8 
REMARK    4  A    between atoms: C7_8  and  O2_9 
ROOT
ATOM      1  C5  <0> d           0.718  -0.497  -1.257  0.00  0.00    -0.018 C 
ATOM      2  H4  <0> d           0.191  -0.136  -2.140  0.00  0.00     0.043 H 
ATOM      3  H5  <0> d           1.741  -0.120  -1.264  0.00  0.00     0.043 H 
ENDROOT
BRANCH   1   4
ATOM      4  C3  <0> d           0.739  -2.004  -1.265  0.00  0.00     0.052 A 
ATOM      5  C2  <0> d          -0.201  -2.801  -1.806  0.00  0.00    -0.052 A 
ATOM      6  C1  <0> d           0.217  -4.134  -1.588  0.00  0.00    -0.059 A 
ATOM      7  H2  <0> d          -1.102  -2.483  -2.310  0.00  0.00     0.087 H 
ATOM      8  C4  <0> d           1.387  -4.072  -0.926  0.00  0.00     0.019 A 
ATOM      9  H1  <0> d          -0.303  -5.029  -1.893  0.00  0.00     0.086 H 
ATOM     10  O1  <0> d           1.701  -2.780  -0.739  0.00  0.00    -0.327 OA
ATOM     11  H3  <0> d           1.976  -4.918  -0.605  0.00  0.00     0.123 H 
ENDBRANCH   1   4
BRANCH   1  12
ATOM     12  C6  <0> d           0.002  -0.004   0.002  0.00  0.00    -0.040 C 
ATOM     13  H6  <0> d           0.529  -0.365   0.885  0.00  0.00     0.036 H 
ATOM     14  H7  <0> d          -1.020  -0.381   0.010  0.00  0.00     0.036 H 
BRANCH  12  15
ATOM     15  C7  <0> d          -0.019   1.526   0.010  0.00  0.00     0.017 C 
ATOM     16  H8  <0> d           1.004   1.903   0.003  0.00  0.00     0.073 H 
ATOM     17  H9  <0> d          -0.546   1.887  -0.873  0.00  0.00     0.073 H 
BRANCH  15  18
ATOM     18  O2  <0> d          -0.688   1.987   1.186  0.00  0.00    -0.401 OA
ATOM     19  H10 <0> d          -0.738   2.950   1.258  0.00  0.00     0.209 HD
ENDBRANCH  15  18
ENDBRANCH  12  15
ENDBRANCH   1  12
TORSDOF 4
