REMARK  1 active torsions:
REMARK  status: ('A' for Active; 'I' for Inactive)
REMARK    1  A    between atoms: C1_1  and  C2_2 
ROOT
ATOM      1  C2  <0> d           3.588   0.714  -0.029  0.00  0.00    -0.045 A 
ATOM      2  C3  <0> d           4.220  -0.513  -0.042  0.00  0.00    -0.076 A 
ATOM      3  C4  <0> d           3.478  -1.681  -0.041  0.00  0.00    -0.082 A 
ATOM      4  C5  <0> d           2.094  -1.627  -0.027  0.00  0.00    -0.074 A 
ATOM      5  C6  <0> d           1.454  -0.410  -0.014  0.00  0.00    -0.017 A 
ATOM      6  C7  <0> d           2.194   0.775  -0.015  0.00  0.00     0.053 A 
ATOM      7  C8  <0> d           1.246   1.905   0.000  0.00  0.00     0.294 A 
ATOM      8  O1  <0> d           1.563   3.078   0.004  0.00  0.00    -0.259 OA
ATOM      9  O2  <0> d          -0.018   1.450   0.010  0.00  0.00    -0.313 OA
ATOM     10  C9  <0> d           0.002  -0.004   0.002  0.00  0.00     0.054 A 
ATOM     11  H4  <0> d           5.299  -0.562  -0.053  0.00  0.00     0.084 H 
ATOM     12  H5  <0> d           3.980  -2.637  -0.051  0.00  0.00     0.083 H 
ATOM     13  H6  <0> d           1.518  -2.541  -0.027  0.00  0.00     0.084 H 
ATOM     14  H7  <0> d          -0.484  -0.390   0.898  0.00  0.00     0.082 H 
ATOM     15  H8  <0> d          -0.502  -0.380  -0.888  0.00  0.00     0.082 H 
ENDROOT
BRANCH   1  16
ATOM     16  C1  <0> d           4.401   1.982  -0.030  0.00  0.00    -0.050 C 
ATOM     17  H1  <0> d           4.587   2.294  -1.058  0.00  0.00     0.033 H 
ATOM     18  H2  <0> d           3.853   2.766   0.493  0.00  0.00     0.033 H 
ATOM     19  H3  <0> d           5.352   1.806   0.473  0.00  0.00     0.033 H 
ENDBRANCH   1  16
TORSDOF 1
