REMARK  2 active torsions:
REMARK  status: ('A' for Active; 'I' for Inactive)
REMARK    1  A    between atoms: C3_3  and  O3_10 
REMARK    2  A    between atoms: C6_6  and  C7_7 
ROOT
ATOM      1  C1  <0> d          -0.017   1.395   0.010  0.00  0.00    -0.064 A 
ATOM      2  C2  <0> d           1.167   2.097   0.002  0.00  0.00    -0.050 A 
ATOM      3  C3  <0> d           2.380   1.418  -0.013  0.00  0.00     0.065 A 
ATOM      4  C4  <0> d           2.404   0.028  -0.022  0.00  0.00    -0.050 A 
ATOM      5  C5  <0> d           1.225  -0.683  -0.014  0.00  0.00    -0.064 A 
ATOM      6  C6  <0> d           0.002  -0.004   0.002  0.00  0.00     0.041 A 
ATOM      7  H1  <0> d          -0.959   1.923   0.026  0.00  0.00     0.085 H 
ATOM      8  H2  <0> d           1.153   3.177   0.008  0.00  0.00     0.087 H 
ATOM      9  H3  <0> d           3.349  -0.495  -0.034  0.00  0.00     0.087 H 
ATOM     10  H4  <0> d           1.245  -1.762  -0.021  0.00  0.00     0.085 H 
ENDROOT
BRANCH   6  11
ATOM     11  C7  <0> d          -1.262  -0.760   0.011  0.00  0.00     0.209 C 
ATOM     12  O1  <0> d          -2.330  -0.165   0.024  0.00  0.00    -0.644 OA
ATOM     13  O2  <0> d          -1.243  -1.983   0.004  0.00  0.00    -0.644 OA
ENDBRANCH   6  11
BRANCH   3  14
ATOM     14  O3  <0> d           3.545   2.114  -0.021  0.00  0.00    -0.361 OA
ATOM     15  H5  <0> d           3.891   2.312   0.860  0.00  0.00     0.217 HD
ENDBRANCH   3  14
TORSDOF 2
