REMARK  4 active torsions:
REMARK  status: ('A' for Active; 'I' for Inactive)
REMARK    1  A    between atoms: C1_1  and  C2_2 
REMARK    2  A    between atoms: C2_2  and  C3_3 
REMARK    3  A    between atoms: C3_3  and  C4_4 
REMARK    4  A    between atoms: C6_6  and  C7_9 
ROOT
ATOM      1  C3  <0> d           1.417   2.055  -0.000  0.00  0.00    -0.023 C 
ATOM      2  H6  <0> d           1.944   1.694   0.883  0.00  0.00     0.042 H 
ATOM      3  H7  <0> d           1.927   1.704  -0.897  0.00  0.00     0.042 H 
ENDROOT
BRANCH   1   4
ATOM      4  C2  <0> d          -0.019   1.526   0.010  0.00  0.00    -0.063 C 
ATOM      5  H4  <0> d          -0.546   1.887  -0.873  0.00  0.00     0.033 H 
ATOM      6  H5  <0> d          -0.529   1.877   0.907  0.00  0.00     0.033 H 
BRANCH   4   7
ATOM      7  C1  <0> d           0.002  -0.004   0.002  0.00  0.00    -0.076 C 
ATOM      8  H1  <0> d          -1.020  -0.381   0.010  0.00  0.00     0.027 H 
ATOM      9  H2  <0> d           0.512  -0.356  -0.895  0.00  0.00     0.027 H 
ATOM     10  H3  <0> d           0.529  -0.365   0.885  0.00  0.00     0.027 H 
ENDBRANCH   4   7
ENDBRANCH   1   4
BRANCH   1  11
ATOM     11  C4  <0> d           1.396   3.562   0.008  0.00  0.00     0.065 A 
ATOM     12  N1  <0> d           0.784   4.336  -0.840  0.00  0.00    -0.132 NA
ATOM     13  O1  <0> d           0.942   5.506  -0.581  0.00  0.00    -0.206 OA
ATOM     14  C6  <0> d           1.717   5.670   0.508  0.00  0.00     0.179 A 
ATOM     15  C5  <0> d           2.043   4.410   0.934  0.00  0.00    -0.015 A 
ATOM     16  H8  <0> d           2.653   4.130   1.780  0.00  0.00     0.091 H 
BRANCH  14  17
ATOM     17  C7  <0> d           2.131   6.946   1.118  0.00  0.00     0.236 C 
ATOM     18  O2  <0> d           2.837   6.946   2.107  0.00  0.00    -0.642 OA
ATOM     19  O3  <0> d           1.725   8.113   0.580  0.00  0.00    -0.642 OA
ENDBRANCH  14  17
ENDBRANCH   1  11
TORSDOF 4
