REMARK  1 active torsions:
REMARK  status: ('A' for Active; 'I' for Inactive)
REMARK    1  A    between atoms: C3_3  and  C7_8 
ROOT
ATOM      1  C1  <0> d           1.177   1.781   0.000  0.00  0.00    -0.079 A 
ATOM      2  C2  <0> d           1.166   3.160   0.007  0.00  0.00    -0.066 A 
ATOM      3  C3  <0> d          -0.049   3.846   0.023  0.00  0.00     0.043 A 
ATOM      4  C4  <0> d          -1.248   3.131   0.031  0.00  0.00    -0.029 A 
ATOM      5  C5  <0> d          -1.224   1.750   0.017  0.00  0.00     0.117 A 
ATOM      6  C6  <0> d          -0.013   1.076   0.008  0.00  0.00    -0.046 A 
ATOM      7  F1  <0> d          -2.382   1.054   0.019  0.00  0.00    -0.206 F 
ATOM      8  H1  <0> d           2.118   1.250  -0.011  0.00  0.00     0.083 H 
ATOM      9  H2  <0> d           2.097   3.709   0.001  0.00  0.00     0.085 H 
ATOM     10  H3  <0> d          -2.192   3.656   0.043  0.00  0.00     0.089 H 
ATOM     11  H4  <0> d           0.002  -0.004   0.002  0.00  0.00     0.088 H 
ENDROOT
BRANCH   3  12
ATOM     12  C7  <0> d          -0.067   5.324   0.031  0.00  0.00     0.209 C 
ATOM     13  O1  <0> d           0.977   5.944   0.024  0.00  0.00    -0.644 OA
ATOM     14  O2  <0> d          -1.242   5.983   0.046  0.00  0.00    -0.644 OA
ENDBRANCH   3  12
TORSDOF 1
