REMARK  2 active torsions:
REMARK  status: ('A' for Active; 'I' for Inactive)
REMARK    1  A    between atoms: C1_1  and  O1_2 
REMARK    2  A    between atoms: O1_2  and  C2_3 
ROOT
ATOM      1  C2  <0> d          -2.037   1.106   1.292  0.00  0.00     0.138 C 
ATOM      2  C3  <0> d          -2.716   1.624   2.569  0.00  0.00    -0.025 C 
ATOM      3  C4  <0> d          -4.162   1.133   2.628  0.00  0.00    -0.055 C 
ATOM      4  C5  <0> d          -4.469   0.216   1.437  0.00  0.00    -0.031 C 
ATOM      5  H1  <0> d          -5.462  -0.223   1.530  0.00  0.00     0.046 H 
ATOM      6  C6  <0> d          -4.336   1.052   0.148  0.00  0.00     0.000 C 
ATOM      7  C7  <0> d          -2.892   1.573   0.118  0.00  0.00     0.165 C 
ATOM      8  O2  <0> d          -2.462   2.289  -0.754  0.00  0.00    -0.294 OA
ATOM      9  C8  <0> d          -3.399  -0.864   1.396  0.00  0.00    -0.099 C 
ATOM     10  C9  <0> d          -2.149  -0.416   1.323  0.00  0.00    -0.066 C 
ATOM     11  H5  <0> d          -2.174   1.258   3.442  0.00  0.00     0.038 H 
ATOM     12  H6  <0> d          -2.704   2.714   2.569  0.00  0.00     0.038 H 
ATOM     13  H7  <0> d          -4.317   0.582   3.555  0.00  0.00     0.034 H 
ATOM     14  H8  <0> d          -4.834   1.991   2.603  0.00  0.00     0.034 H 
ATOM     15  H9  <0> d          -4.535   0.475  -0.645  0.00  0.00     0.045 H 
ATOM     16  H10 <0> d          -5.030   1.892   0.172  0.00  0.00     0.045 H 
ATOM     17  H11 <0> d          -3.637  -1.917   1.423  0.00  0.00     0.077 H 
ATOM     18  H12 <0> d          -1.290  -1.070   1.300  0.00  0.00     0.081 H 
ENDROOT
BRANCH   1  19
ATOM     19  O1  <0> d          -0.682   1.547   1.184  0.00  0.00    -0.373 OA
BRANCH  19  20
ATOM     20  C1  <0> d          -0.013   1.086   0.008  0.00  0.00     0.006 C 
ATOM     21  H2  <0> d           0.002  -0.004   0.002  0.00  0.00     0.066 H 
ATOM     22  H3  <0> d           1.010   1.463   0.000  0.00  0.00     0.066 H 
ATOM     23  H4  <0> d          -0.540   1.447  -0.875  0.00  0.00     0.066 H 
ENDBRANCH  19  20
ENDBRANCH   1  19
TORSDOF 2
