REMARK  2 active torsions:
REMARK  status: ('A' for Active; 'I' for Inactive)
REMARK    1  A    between atoms: C1_1  and  C2_2 
REMARK    2  A    between atoms: C2_2  and  C6_8 
ROOT
ATOM      1  C2  <0> d          -0.835   1.635  -1.181  0.00  0.00     0.035 C 
ATOM      2  C3  <0> d          -0.013   1.086   0.008  0.00  0.00    -0.036 C 
ATOM      3  C4  <0> d          -0.811   1.621   1.217  0.00  0.00    -0.004 C 
ATOM      4  N1  <0> d          -1.508   2.817   0.727  0.00  0.00    -0.360 N 
ATOM      5  C5  <0> d          -1.541   2.847  -0.616  0.00  0.00     0.225 C 
ATOM      6  O1  <0> d          -2.060   3.720  -1.279  0.00  0.00    -0.273 OA
ATOM      7  H4  <0> d           0.002  -0.004   0.002  0.00  0.00     0.037 H 
ATOM      8  H5  <0> d           1.000   1.488   0.001  0.00  0.00     0.037 H 
ATOM      9  H6  <0> d          -1.532   0.876   1.554  0.00  0.00     0.064 H 
ATOM     10  H7  <0> d          -0.133   1.885   2.030  0.00  0.00     0.064 H 
ATOM     11  H8  <0> d          -1.895   3.498   1.300  0.00  0.00     0.162 HD
ENDROOT
BRANCH   1  12
ATOM     12  C1  <0> d           0.091   2.041  -2.330  0.00  0.00    -0.061 C 
ATOM     13  H1  <0> d           0.659   1.172  -2.663  0.00  0.00     0.029 H 
ATOM     14  H2  <0> d          -0.504   2.425  -3.158  0.00  0.00     0.029 H 
ATOM     15  H3  <0> d           0.778   2.815  -1.987  0.00  0.00     0.029 H 
ENDBRANCH   1  12
BRANCH   1  16
ATOM     16  C6  <0> d          -1.850   0.593  -1.656  0.00  0.00    -0.061 C 
ATOM     17  H9  <0> d          -2.529   0.349  -0.839  0.00  0.00     0.029 H 
ATOM     18  H10 <0> d          -2.419   0.997  -2.494  0.00  0.00     0.029 H 
ATOM     19  H11 <0> d          -1.325  -0.307  -1.974  0.00  0.00     0.029 H 
ENDBRANCH   1  16
TORSDOF 2
