REMARK  2 active torsions:
REMARK  status: ('A' for Active; 'I' for Inactive)
REMARK    1  A    between atoms: C3_3  and  O2_10 
REMARK    2  A    between atoms: C5_6  and  O1_9 
ROOT
ATOM      1  C1  <0> d          -0.019   1.526   0.010  0.00  0.00    -0.060 C 
ATOM      2  C2  <0> d           1.417   2.055  -0.000  0.00  0.00    -0.041 C 
ATOM      3  C3  <0> d           2.157   1.548   1.239  0.00  0.00     0.038 C 
ATOM      4  H1  <0> d           3.179   1.926   1.231  0.00  0.00     0.083 H 
ATOM      5  C4  <0> d           2.178   0.019   1.231  0.00  0.00    -0.017 C 
ATOM      6  C5  <0> d           0.742  -0.511   1.242  0.00  0.00     0.038 C 
ATOM      7  H2  <0> d           0.232  -0.159   2.138  0.00  0.00     0.083 H 
ATOM      8  C6  <0> d           0.002  -0.004   0.002  0.00  0.00    -0.041 C 
ATOM      9  H3  <0> d          -0.546   1.887  -0.873  0.00  0.00     0.033 H 
ATOM     10  H4  <0> d          -0.529   1.877   0.907  0.00  0.00     0.033 H 
ATOM     11  H5  <0> d           1.927   1.704  -0.897  0.00  0.00     0.036 H 
ATOM     12  H6  <0> d           1.402   3.145   0.006  0.00  0.00     0.036 H 
ATOM     13  H7  <0> d           2.705  -0.342   2.114  0.00  0.00     0.040 H 
ATOM     14  H8  <0> d           2.688  -0.333   0.334  0.00  0.00     0.040 H 
ATOM     15  H9  <0> d          -1.020  -0.381   0.010  0.00  0.00     0.036 H 
ATOM     16  H10 <0> d           0.512  -0.356  -0.895  0.00  0.00     0.036 H 
ENDROOT
BRANCH   3  17
ATOM     17  O2  <0> d           1.488   2.009   2.415  0.00  0.00    -0.395 OA
ATOM     18  H12 <0> d           1.437   2.972   2.487  0.00  0.00     0.210 HD
ENDBRANCH   3  17
BRANCH   6  19
ATOM     19  O1  <0> d           0.761  -1.940   1.234  0.00  0.00    -0.395 OA
ATOM     20  H11 <0> d          -0.117  -2.345   1.240  0.00  0.00     0.210 HD
ENDBRANCH   6  19
TORSDOF 2
