REMARK  4 active torsions:
REMARK  status: ('A' for Active; 'I' for Inactive)
REMARK    1  A    between atoms: C3_3  and  C7_7 
REMARK    2  A    between atoms: C3_3  and  C8_9 
REMARK    3  A    between atoms: C7_7  and  O1_8 
REMARK    4  A    between atoms: C8_9  and  O2_10 
ROOT
ATOM      1  C1  <0> d          -0.013   1.086   0.008  0.00  0.00    -0.049 C 
ATOM      2  C2  <0> d          -0.747   1.590  -1.236  0.00  0.00    -0.051 C 
ATOM      3  C3  <0> d          -0.985   3.097  -1.081  0.00  0.00     0.005 C 
ATOM      4  C4  <0> d          -1.983   3.316   0.058  0.00  0.00    -0.039 C 
ATOM      5  C5  <0> d          -1.560   2.540   1.271  0.00  0.00    -0.106 C 
ATOM      6  C6  <0> d          -0.710   1.567   1.247  0.00  0.00    -0.106 C 
ATOM      7  H1  <0> d           0.002  -0.004   0.002  0.00  0.00     0.038 H 
ATOM      8  H2  <0> d           1.011   1.461   0.000  0.00  0.00     0.038 H 
ATOM      9  H3  <0> d          -0.139   1.404  -2.121  0.00  0.00     0.034 H 
ATOM     10  H4  <0> d          -1.702   1.073  -1.333  0.00  0.00     0.034 H 
ATOM     11  H5  <0> d          -2.025   4.377   0.304  0.00  0.00     0.040 H 
ATOM     12  H6  <0> d          -2.971   2.981  -0.259  0.00  0.00     0.040 H 
ATOM     13  H7  <0> d          -1.996   2.809   2.222  0.00  0.00     0.076 H 
ATOM     14  H8  <0> d          -0.485   1.071   2.179  0.00  0.00     0.076 H 
ENDROOT
BRANCH   3  15
ATOM     15  C7  <0> d           0.335   3.795  -0.749  0.00  0.00     0.026 C 
ATOM     16  H9  <0> d           0.733   3.394   0.183  0.00  0.00     0.075 H 
ATOM     17  H10 <0> d           1.050   3.622  -1.554  0.00  0.00     0.075 H 
BRANCH  15  18
ATOM     18  O1  <0> d           0.109   5.199  -0.606  0.00  0.00    -0.400 OA
ATOM     19  H11 <0> d           0.905   5.706  -0.394  0.00  0.00     0.209 HD
ENDBRANCH  15  18
ENDBRANCH   3  15
BRANCH   3  20
ATOM     20  C8  <0> d          -1.558   3.664  -2.382  0.00  0.00     0.026 C 
ATOM     21  H12 <0> d          -0.853   3.490  -3.196  0.00  0.00     0.075 H 
ATOM     22  H13 <0> d          -2.503   3.170  -2.609  0.00  0.00     0.075 H 
BRANCH  20  23
ATOM     23  O2  <0> d          -1.778   5.068  -2.234  0.00  0.00    -0.400 OA
ATOM     24  H14 <0> d          -2.141   5.494  -3.022  0.00  0.00     0.209 HD
ENDBRANCH  20  23
ENDBRANCH   3  20
TORSDOF 4
