REMARK  4 active torsions:
REMARK  status: ('A' for Active; 'I' for Inactive)
REMARK    1  A    between atoms: C1_1  and  N1_2 
REMARK    2  A    between atoms: N1_2  and  C2_3 
REMARK       I    between atoms: N1_2  and  C3_4 
REMARK       I    between atoms: C3_4  and  N2_6 
REMARK    3  A    between atoms: N2_6  and  C4_7 
REMARK    4  A    between atoms: C4_7  and  C5_8 
ROOT
ATOM      1  N1  <0> d          -1.191   2.021   0.018  0.00  0.00    -0.343 N 
ATOM      2  C3  <0> d          -0.026   1.343   0.005  0.00  0.00     0.318 C 
ATOM      3  O1  <0> d           1.029   1.947   0.004  0.00  0.00    -0.247 OA
ATOM      4  N2  <0> d          -0.031  -0.004  -0.013  0.00  0.00    -0.333 N 
ATOM      5  H7  <0> d          -0.869  -0.487   0.061  0.00  0.00     0.164 HD
ENDROOT
BRANCH   1   6
ATOM      6  C1  <0> d          -1.188   3.483  -0.086  0.00  0.00    -0.015 C 
ATOM      7  H1  <0> d          -1.242   3.772  -1.135  0.00  0.00     0.056 H 
ATOM      8  H2  <0> d          -2.050   3.886   0.447  0.00  0.00     0.056 H 
ATOM      9  H3  <0> d          -0.272   3.877   0.353  0.00  0.00     0.056 H 
ENDBRANCH   1   6
BRANCH   1  10
ATOM     10  C2  <0> d          -2.459   1.297   0.137  0.00  0.00    -0.015 C 
ATOM     11  H4  <0> d          -2.259   0.238   0.296  0.00  0.00     0.056 H 
ATOM     12  H5  <0> d          -3.024   1.691   0.981  0.00  0.00     0.056 H 
ATOM     13  H6  <0> d          -3.037   1.425  -0.778  0.00  0.00     0.056 H 
ENDBRANCH   1  10
BRANCH   4  14
ATOM     14  C4  <0> d           1.229  -0.740  -0.143  0.00  0.00     0.077 C 
ATOM     15  H8  <0> d           1.714  -0.466  -1.080  0.00  0.00     0.080 H 
ATOM     16  H9  <0> d           1.884  -0.490   0.692  0.00  0.00     0.080 H 
BRANCH  14  17
ATOM     17  C5  <0> d           0.949  -2.221  -0.137  0.00  0.00     0.191 C 
ATOM     18  O2  <0> d          -0.186  -2.621  -0.034  0.00  0.00    -0.647 OA
ATOM     19  O3  <0> d           1.962  -3.096  -0.245  0.00  0.00    -0.647 OA
ENDBRANCH  14  17
ENDBRANCH   4  14
TORSDOF 4
