REMARK  1 active torsions:
REMARK  status: ('A' for Active; 'I' for Inactive)
REMARK    1  A    between atoms: C1_1  and  C2_2 
ROOT
ATOM      1  C2  <0> d          -1.247   2.090   0.031  0.00  0.00    -0.050 A 
ATOM      2  C3  <0> d          -2.407   1.378   0.033  0.00  0.00    -0.076 A 
ATOM      3  C4  <0> d          -2.391  -0.015   0.025  0.00  0.00    -0.080 A 
ATOM      4  C5  <0> d          -1.217  -0.704   0.010  0.00  0.00    -0.054 A 
ATOM      5  C6  <0> d           0.002  -0.004   0.002  0.00  0.00     0.067 A 
ATOM      6  C7  <0> d          -0.017   1.413   0.010  0.00  0.00    -0.002 A 
ATOM      7  C8  <0> d           1.205   2.112   0.002  0.00  0.00    -0.069 A 
ATOM      8  C9  <0> d           2.362   1.387  -0.012  0.00  0.00    -0.065 A 
ATOM      9  C10 <0> d           2.310  -0.005  -0.019  0.00  0.00     0.003 A 
ATOM     10  N1  <0> d           1.171  -0.653  -0.012  0.00  0.00    -0.260 NA
ATOM     11  H4  <0> d          -3.353   1.899   0.044  0.00  0.00     0.084 H 
ATOM     12  H5  <0> d          -3.325  -0.558   0.031  0.00  0.00     0.083 H 
ATOM     13  H6  <0> d          -1.222  -1.784   0.004  0.00  0.00     0.087 H 
ATOM     14  H7  <0> d           1.226   3.192   0.008  0.00  0.00     0.085 H 
ATOM     15  H8  <0> d           3.316   1.892  -0.018  0.00  0.00     0.085 H 
ATOM     16  H9  <0> d           3.233  -0.566  -0.031  0.00  0.00     0.114 H 
ENDROOT
BRANCH   1  17
ATOM     17  C1  <0> d          -1.282   3.596   0.040  0.00  0.00    -0.050 C 
ATOM     18  H1  <0> d          -1.306   3.965  -0.986  0.00  0.00     0.033 H 
ATOM     19  H2  <0> d          -2.173   3.936   0.568  0.00  0.00     0.033 H 
ATOM     20  H3  <0> d          -0.394   3.978   0.543  0.00  0.00     0.033 H 
ENDBRANCH   1  17
TORSDOF 1
