REMARK  2 active torsions:
REMARK  status: ('A' for Active; 'I' for Inactive)
REMARK    1  A    between atoms: C1_1  and  N1_2 
REMARK       I    between atoms: N1_2  and  C2_3 
REMARK    2  A    between atoms: C2_3  and  C3_5 
ROOT
ATOM      1  C3  <0> d          -1.135  -2.201   0.001  0.00  0.00     0.028 C 
ATOM      2  C4  <0> d          -0.930  -2.822   1.393  0.00  0.00    -0.026 C 
ATOM      3  C5  <0> d          -1.969  -3.880   0.988  0.00  0.00     0.074 C 
ATOM      4  C6  <0> d          -2.536  -2.836   0.011  0.00  0.00    -0.026 C 
ATOM      5  O2  <0> d          -2.872  -4.228   2.040  0.00  0.00    -0.235 OA
ATOM      6  H5  <0> d          -0.475  -2.611  -0.763  0.00  0.00     0.054 H 
ATOM      7  H6  <0> d           0.070  -3.228   1.546  0.00  0.00     0.038 H 
ATOM      8  H7  <0> d          -1.257  -2.179   2.210  0.00  0.00     0.038 H 
ATOM      9  H8  <0> d          -1.537  -4.750   0.494  0.00  0.00     0.088 H 
ATOM     10  H9  <0> d          -3.302  -2.197   0.451  0.00  0.00     0.038 H 
ATOM     11  H10 <0> d          -2.833  -3.253  -0.951  0.00  0.00     0.038 H 
ENDROOT
BRANCH   1  12
ATOM     12  C2  <0> d          -1.156  -0.694   0.009  0.00  0.00     0.221 C 
ATOM     13  N1  <0> d           0.002  -0.004   0.002  0.00  0.00    -0.365 N 
ATOM     14  H4  <0> d           0.849  -0.478  -0.009  0.00  0.00     0.161 HD
ATOM     15  O1  <0> d          -2.214  -0.102   0.023  0.00  0.00    -0.273 OA
BRANCH  13  16
ATOM     16  C1  <0> d          -0.018   1.461   0.010  0.00  0.00    -0.018 C 
ATOM     17  H1  <0> d           1.005   1.838   0.002  0.00  0.00     0.056 H 
ATOM     18  H2  <0> d          -0.545   1.822  -0.873  0.00  0.00     0.056 H 
ATOM     19  H3  <0> d          -0.528   1.812   0.907  0.00  0.00     0.056 H 
ENDBRANCH  13  16
ENDBRANCH   1  12
TORSDOF 2
