REMARK  5 active torsions:
REMARK  status: ('A' for Active; 'I' for Inactive)
REMARK    1  A    between atoms: C1_1  and  C2_2 
REMARK    2  A    between atoms: C2_2  and  C3_3 
REMARK    3  A    between atoms: C3_3  and  C4_4 
REMARK    4  A    between atoms: C3_3  and  C5_5 
REMARK    5  A    between atoms: C3_3  and  C6_6 
ROOT
ATOM      1  C3  <0> d          -1.433  -0.534   0.013  0.00  0.00     0.041 C 
ENDROOT
BRANCH   1   2
ATOM      2  C2  <0> d           0.002  -0.004   0.002  0.00  0.00    -0.053 C 
ATOM      3  H4  <0> d           0.512  -0.356  -0.895  0.00  0.00     0.034 H 
ATOM      4  H5  <0> d           0.529  -0.365   0.885  0.00  0.00     0.034 H 
BRANCH   2   5
ATOM      5  C1  <0> d          -0.019   1.526   0.010  0.00  0.00    -0.075 C 
ATOM      6  H1  <0> d           1.004   1.903   0.003  0.00  0.00     0.027 H 
ATOM      7  H2  <0> d          -0.546   1.887  -0.873  0.00  0.00     0.027 H 
ATOM      8  H3  <0> d          -0.529   1.877   0.907  0.00  0.00     0.027 H 
ENDBRANCH   2   5
ENDBRANCH   1   2
BRANCH   1   9
ATOM      9  C4  <0> d          -2.149  -0.040   1.272  0.00  0.00    -0.060 C 
ATOM     10  H6  <0> d          -2.164   1.050   1.278  0.00  0.00     0.029 H 
ATOM     11  H7  <0> d          -3.172  -0.417   1.279  0.00  0.00     0.029 H 
ATOM     12  H8  <0> d          -1.622  -0.401   2.155  0.00  0.00     0.029 H 
ENDBRANCH   1   9
BRANCH   1  13
ATOM     13  C5  <0> d          -2.173  -0.027  -1.227  0.00  0.00    -0.060 C 
ATOM     14  H9  <0> d          -1.663  -0.378  -2.123  0.00  0.00     0.029 H 
ATOM     15  H10 <0> d          -3.196  -0.404  -1.219  0.00  0.00     0.029 H 
ATOM     16  H11 <0> d          -2.188   1.063  -1.221  0.00  0.00     0.029 H 
ENDBRANCH   1  13
BRANCH   1  17
ATOM     17  C6  <0> d          -1.413  -2.041   0.005  0.00  0.00     0.181 C 
ATOM     18  O1  <0> d          -2.314  -2.665   0.538  0.00  0.00    -0.647 OA
ATOM     19  O2  <0> d          -0.495  -2.635  -0.535  0.00  0.00    -0.647 OA
ENDBRANCH   1  17
TORSDOF 5
