REMARK  4 active torsions:
REMARK  status: ('A' for Active; 'I' for Inactive)
REMARK    1  A    between atoms: C1_1  and  C2_2 
REMARK    2  A    between atoms: C2_2  and  C3_3 
REMARK    3  A    between atoms: C2_2  and  S1_4 
REMARK    4  A    between atoms: S1_4  and  O2_6 
ROOT
ATOM      1  C2  <0> d          -0.772   1.955  -1.581  0.00  0.00     0.037 C 
ATOM      2  H4  <0> d          -1.820   1.675  -1.766  0.00  0.00     0.062 H 
ENDROOT
BRANCH   1   3
ATOM      3  C1  <0> d          -0.742   3.474  -1.759  0.00  0.00    -0.060 C 
ATOM      4  H1  <0> d          -1.305   3.951  -0.943  0.00  0.00     0.029 H 
ATOM      5  H2  <0> d          -1.199   3.740  -2.724  0.00  0.00     0.029 H 
ATOM      6  H3  <0> d           0.301   3.825  -1.738  0.00  0.00     0.029 H 
ENDBRANCH   1   3
BRANCH   1   7
ATOM      7  C3  <0> d           0.011   1.293  -2.715  0.00  0.00    -0.060 C 
ATOM      8  H5  <0> d          -0.011   0.200  -2.587  0.00  0.00     0.029 H 
ATOM      9  H6  <0> d           1.054   1.643  -2.695  0.00  0.00     0.029 H 
ATOM     10  H7  <0> d          -0.446   1.558  -3.680  0.00  0.00     0.029 H 
ENDBRANCH   1   7
BRANCH   1  11
ATOM     11  S1  <0> d          -0.019   1.518   0.010  0.00  0.00     0.154 S 
ATOM     12  O1  <0> d           1.355   1.880  -0.001  0.00  0.00    -0.228 OA
BRANCH  11  13
ATOM     13  O2  <0> d           0.002  -0.004   0.002  0.00  0.00    -0.306 OA
ATOM     14  H8  <0> d           0.414  -0.553   0.861  0.00  0.00     0.230 HD
ENDBRANCH  11  13
ENDBRANCH   1  11
TORSDOF 4
