REMARK  6 active torsions:
REMARK  status: ('A' for Active; 'I' for Inactive)
REMARK    1  A    between atoms: C1_1  and  C2_2 
REMARK    2  A    between atoms: C2_2  and  C3_3 
REMARK    3  A    between atoms: C3_3  and  C4_5 
REMARK    4  A    between atoms: C3_3  and  N1_6 
REMARK    5  A    between atoms: C5_7  and  C8_12 
REMARK    6  A    between atoms: C6_8  and  N3_11 
ROOT
ATOM      1  N1  <0> d          -0.092   0.997   2.451  0.00  0.00    -0.268 N 
ATOM      2  C5  <0> d          -0.696   0.206   3.377  0.00  0.00     0.054 A 
ATOM      3  C6  <0> d           0.237  -0.122   4.306  0.00  0.00     0.069 A 
ATOM      4  C7  <0> d           1.443   0.494   3.941  0.00  0.00     0.049 A 
ATOM      5  N2  <0> d           1.246   1.162   2.833  0.00  0.00    -0.182 NA
ATOM      6  H10 <0> d           2.375   0.429   4.482  0.00  0.00     0.121 H 
ENDROOT
BRANCH   1   7
ATOM      7  C3  <0> d          -0.729   1.579   1.267  0.00  0.00     0.031 C 
ATOM      8  H1  <0> d          -1.779   1.251   1.269  0.00  0.00     0.075 H 
BRANCH   7   9
ATOM      9  C2  <0> d          -0.013   1.086   0.008  0.00  0.00    -0.048 C 
ATOM     10  H5  <0> d           0.002  -0.014   0.002  0.00  0.00     0.035 H 
ATOM     11  H6  <0> d           1.019   1.466   0.000  0.00  0.00     0.035 H 
BRANCH   9  12
ATOM     12  C1  <0> d          -0.753   1.593  -1.232  0.00  0.00    -0.075 C 
ATOM     13  H2  <0> d          -0.238   1.238  -2.136  0.00  0.00     0.027 H 
ATOM     14  H3  <0> d          -0.768   2.693  -1.225  0.00  0.00     0.027 H 
ATOM     15  H4  <0> d          -1.785   1.212  -1.224  0.00  0.00     0.027 H 
ENDBRANCH   9  12
ENDBRANCH   7   9
BRANCH   7  16
ATOM     16  C4  <0> d          -0.641   3.105   1.339  0.00  0.00    -0.055 C 
ATOM     17  H7  <0> d          -1.156   3.460   2.244  0.00  0.00     0.030 H 
ATOM     18  H8  <0> d          -1.119   3.542   0.450  0.00  0.00     0.030 H 
ATOM     19  H9  <0> d           0.415   3.410   1.374  0.00  0.00     0.030 H 
ENDBRANCH   7  16
ENDBRANCH   1   7
BRANCH   2  20
ATOM     20  C8  <0> d          -2.138  -0.231   3.371  0.00  0.00    -0.034 C 
ATOM     21  H13 <0> d          -2.333  -0.865   4.248  0.00  0.00     0.035 H 
ATOM     22  H14 <0> d          -2.345  -0.800   2.453  0.00  0.00     0.035 H 
ATOM     23  H15 <0> d          -2.789   0.655   3.408  0.00  0.00     0.035 H 
ENDBRANCH   2  20
BRANCH   3  24
ATOM     24  N3  <0> d           0.030  -0.932   5.439  0.00  0.00    -0.396 N 
ATOM     25  H11 <0> d           0.862  -1.134   6.130  0.00  0.00     0.156 HD
ATOM     26  H12 <0> d          -0.963  -1.363   5.633  0.00  0.00     0.156 HD
ENDBRANCH   3  24
TORSDOF 6
