REMARK  5 active torsions:
REMARK  status: ('A' for Active; 'I' for Inactive)
REMARK    1  A    between atoms: C1_1  and  C2_2 
REMARK    2  A    between atoms: C4_4  and  N1_11 
REMARK    3  A    between atoms: C7_7  and  C8_8 
REMARK    4  A    between atoms: C8_8  and  C9_9 
REMARK    5  A    between atoms: C8_8  and  C10_10 
ROOT
ATOM      1  C2  <0> d          -3.657   1.668   0.003  0.00  0.00    -0.053 A 
ATOM      2  C3  <0> d          -2.491   0.962  -0.220  0.00  0.00    -0.051 A 
ATOM      3  C4  <0> d          -1.268   1.619  -0.196  0.00  0.00     0.026 A 
ATOM      4  C5  <0> d          -1.221   2.984   0.057  0.00  0.00    -0.057 A 
ATOM      5  C6  <0> d          -2.391   3.685   0.274  0.00  0.00    -0.074 A 
ATOM      6  C7  <0> d          -3.607   3.027   0.250  0.00  0.00    -0.049 A 
ATOM      7  H4  <0> d          -2.530  -0.100  -0.412  0.00  0.00     0.087 H 
ATOM      8  H5  <0> d          -0.271   3.497   0.081  0.00  0.00     0.086 H 
ATOM      9  H6  <0> d          -2.355   4.747   0.467  0.00  0.00     0.084 H 
ENDROOT
BRANCH   6  10
ATOM     10  C8  <0> d          -4.881   3.795   0.492  0.00  0.00    -0.035 C 
ATOM     11  H7  <0> d          -5.721   3.100   0.536  0.00  0.00     0.046 H 
BRANCH  10  12
ATOM     12  C9  <0> d          -4.776   4.553   1.816  0.00  0.00    -0.069 C 
ATOM     13  H8  <0> d          -3.937   5.247   1.772  0.00  0.00     0.028 H 
ATOM     14  H9  <0> d          -5.698   5.108   1.991  0.00  0.00     0.028 H 
ATOM     15  H10 <0> d          -4.619   3.845   2.629  0.00  0.00     0.028 H 
ENDBRANCH  10  12
BRANCH  10  16
ATOM     16  C10 <0> d          -5.103   4.790  -0.650  0.00  0.00    -0.069 C 
ATOM     17  H11 <0> d          -5.177   4.249  -1.593  0.00  0.00     0.028 H 
ATOM     18  H12 <0> d          -6.024   5.344  -0.474  0.00  0.00     0.028 H 
ATOM     19  H13 <0> d          -4.263   5.484  -0.694  0.00  0.00     0.028 H 
ENDBRANCH  10  16
ENDBRANCH   6  10
BRANCH   1  20
ATOM     20  C1  <0> d          -4.985   0.956  -0.022  0.00  0.00    -0.051 C 
ATOM     21  H1  <0> d          -5.272   0.685   0.994  0.00  0.00     0.033 H 
ATOM     22  H2  <0> d          -5.741   1.613  -0.451  0.00  0.00     0.033 H 
ATOM     23  H3  <0> d          -4.902   0.053  -0.628  0.00  0.00     0.033 H 
ENDBRANCH   1  20
BRANCH   3  24
ATOM     24  N1  <0> d          -0.087   0.908  -0.421  0.00  0.00    -0.399 N 
ATOM     25  H14 <0> d          -0.120  -0.046  -0.594  0.00  0.00     0.156 HD
ATOM     26  H15 <0> d           0.767   1.369  -0.408  0.00  0.00     0.156 HD
ENDBRANCH   3  24
TORSDOF 5
