REMARK  2 active torsions:
REMARK  status: ('A' for Active; 'I' for Inactive)
REMARK    1  A    between atoms: C1_1  and  C2_2 
REMARK    2  A    between atoms: C2_2  and  C3_3 
ROOT
ATOM      1  C3  <0> d          -1.412  -0.526   0.013  0.00  0.00     0.065 A 
ATOM      2  C4  <0> d          -1.964  -1.422  -0.916  0.00  0.00    -0.012 A 
ATOM      3  C5  <0> d          -3.261  -1.646  -0.562  0.00  0.00     0.182 A 
ATOM      4  O1  <0> d          -3.514  -0.920   0.544  0.00  0.00    -0.202 OA
ATOM      5  N1  <0> d          -2.329  -0.226   0.889  0.00  0.00    -0.132 NA
ATOM      6  C6  <0> d          -4.187  -2.499  -1.244  0.00  0.00     0.127 C 
ATOM      7  N2  <0> d          -4.922  -3.176  -1.785  0.00  0.00    -0.189 NA
ATOM      8  H6  <0> d          -1.452  -1.857  -1.761  0.00  0.00     0.092 H 
ENDROOT
BRANCH   1   9
ATOM      9  C2  <0> d           0.002  -0.004   0.002  0.00  0.00    -0.026 C 
ATOM     10  H4  <0> d           0.512  -0.356  -0.895  0.00  0.00     0.041 H 
ATOM     11  H5  <0> d           0.529  -0.365   0.885  0.00  0.00     0.041 H 
BRANCH   9  12
ATOM     12  C1  <0> d          -0.019   1.526   0.010  0.00  0.00    -0.071 C 
ATOM     13  H1  <0> d           1.004   1.903   0.003  0.00  0.00     0.028 H 
ATOM     14  H2  <0> d          -0.546   1.887  -0.873  0.00  0.00     0.028 H 
ATOM     15  H3  <0> d          -0.529   1.877   0.907  0.00  0.00     0.028 H 
ENDBRANCH   9  12
ENDBRANCH   1   9
TORSDOF 2
