REMARK  4 active torsions:
REMARK  status: ('A' for Active; 'I' for Inactive)
REMARK    1  A    between atoms: C1_1  and  C2_2 
REMARK    2  A    between atoms: C2_2  and  C3_3 
REMARK    3  A    between atoms: C2_2  and  C4_4 
REMARK    4  A    between atoms: C2_2  and  C5_5 
ROOT
ATOM      1  C2  <0> d           0.002  -0.004   0.002  0.00  0.00    -0.044 C 
ENDROOT
BRANCH   1   2
ATOM      2  C1  <0> d          -0.019   1.526   0.010  0.00  0.00    -0.069 C 
ATOM      3  H2  <0> d           1.004   1.903   0.003  0.00  0.00     0.028 H 
ATOM      4  H3  <0> d          -0.546   1.887  -0.873  0.00  0.00     0.028 H 
ATOM      5  H4  <0> d          -0.529   1.877   0.907  0.00  0.00     0.028 H 
ENDBRANCH   1   2
BRANCH   1   6
ATOM      6  C3  <0> d           0.742  -0.511   1.242  0.00  0.00    -0.069 C 
ATOM      7  H5  <0> d           0.232  -0.159   2.138  0.00  0.00     0.028 H 
ATOM      8  H6  <0> d           0.757  -1.601   1.236  0.00  0.00     0.028 H 
ATOM      9  H7  <0> d           1.765  -0.134   1.234  0.00  0.00     0.028 H 
ENDBRANCH   1   6
BRANCH   1  10
ATOM     10  C4  <0> d          -1.433  -0.534   0.013  0.00  0.00    -0.069 C 
ATOM     11  H8  <0> d          -1.960  -0.173  -0.870  0.00  0.00     0.028 H 
ATOM     12  H9  <0> d          -1.419  -1.623   0.007  0.00  0.00     0.028 H 
ATOM     13  H10 <0> d          -1.944  -0.182   0.910  0.00  0.00     0.028 H 
ENDBRANCH   1  10
BRANCH   1  14
ATOM     14  C5  <0> d           0.718  -0.497  -1.257  0.00  0.00    -0.031 C 
ATOM     15  H1  <0> d           0.209  -0.134  -2.150  0.00  0.00     0.046 H 
ATOM     16  C9  <0> d           2.160  -0.047  -1.253  0.00  0.00    -0.102 C 
ATOM     17  C8  <0> d           2.957  -1.023  -1.601  0.00  0.00    -0.106 C 
ATOM     18  H16 <0> d           2.489   0.949  -0.995  0.00  0.00     0.076 H 
ATOM     19  C7  <0> d           2.177  -2.283  -1.898  0.00  0.00    -0.049 C 
ATOM     20  H15 <0> d           4.032  -0.939  -1.669  0.00  0.00     0.076 H 
ATOM     21  C6  <0> d           0.786  -2.042  -1.267  0.00  0.00    -0.055 C 
ATOM     22  H13 <0> d           2.659  -3.145  -1.438  0.00  0.00     0.038 H 
ATOM     23  H14 <0> d           2.086  -2.428  -2.975  0.00  0.00     0.038 H 
ATOM     24  H11 <0> d           0.742  -2.443  -0.255  0.00  0.00     0.034 H 
ATOM     25  H12 <0> d          -0.004  -2.465  -1.889  0.00  0.00     0.034 H 
ENDBRANCH   1  14
TORSDOF 4
