REMARK  2 active torsions:
REMARK  status: ('A' for Active; 'I' for Inactive)
REMARK    1  A    between atoms: C1_1  and  C2_2 
REMARK       I    between atoms: C2_2  and  N1_4 
REMARK    2  A    between atoms: N1_4  and  C3_5 
ROOT
ATOM      1  C3  <0> d          -0.086  -2.063  -1.174  0.00  0.00     0.129 A 
ATOM      2  C4  <0> d          -0.176  -2.752   0.031  0.00  0.00    -0.038 A 
ATOM      3  C5  <0> d          -0.261  -4.133   0.012  0.00  0.00    -0.078 A 
ATOM      4  C6  <0> d          -0.254  -4.780  -1.217  0.00  0.00    -0.066 A 
ATOM      5  C7  <0> d          -0.162  -4.032  -2.374  0.00  0.00     0.004 A 
ATOM      6  N2  <0> d          -0.088  -2.716  -2.325  0.00  0.00    -0.243 NA
ATOM      7  H5  <0> d          -0.178  -2.216   0.969  0.00  0.00     0.089 H 
ATOM      8  H6  <0> d          -0.331  -4.694   0.931  0.00  0.00     0.083 H 
ATOM      9  H7  <0> d          -0.318  -5.857  -1.266  0.00  0.00     0.085 H 
ATOM     10  H8  <0> d          -0.156  -4.531  -3.332  0.00  0.00     0.114 H 
ENDROOT
BRANCH   1  11
ATOM     11  N1  <0> d           0.000  -0.672  -1.169  0.00  0.00    -0.312 N 
ATOM     12  C2  <0> d          -0.016   0.009  -2.332  0.00  0.00     0.219 C 
ATOM     13  O1  <0> d          -0.013  -0.592  -3.386  0.00  0.00    -0.274 OA
ATOM     14  H4  <0> d           0.072  -0.193  -0.328  0.00  0.00     0.170 HD
BRANCH  12  15
ATOM     15  C1  <0> d          -0.038   1.515  -2.324  0.00  0.00    -0.002 C 
ATOM     16  H1  <0> d          -1.071   1.863  -2.316  0.00  0.00     0.040 H 
ATOM     17  H2  <0> d           0.475   1.881  -1.435  0.00  0.00     0.040 H 
ATOM     18  H3  <0> d           0.465   1.891  -3.214  0.00  0.00     0.040 H 
ENDBRANCH  12  15
ENDBRANCH   1  11
TORSDOF 2
