REMARK  1 active torsions:
REMARK  status: ('A' for Active; 'I' for Inactive)
REMARK    1  A    between atoms: C1_1  and  C2_2 
ROOT
ATOM      1  C2  <0> d           1.217  -0.671  -0.013  0.00  0.00     0.033 A 
ATOM      2  C3  <0> d           0.002  -0.004   0.002  0.00  0.00    -0.057 A 
ATOM      3  C4  <0> d          -0.017   1.377   0.010  0.00  0.00    -0.049 A 
ATOM      4  C5  <0> d           1.207   2.054   0.002  0.00  0.00     0.104 A 
ATOM      5  C6  <0> d           2.398   1.307  -0.014  0.00  0.00     0.157 A 
ATOM      6  N1  <0> d           2.359  -0.016  -0.021  0.00  0.00    -0.234 NA
ATOM      7  N2  <0> d           3.421   2.231  -0.019  0.00  0.00    -0.334 N 
ATOM      8  H1  <0> d           4.401   2.030  -0.029  0.00  0.00     0.168 HD
ATOM      9  C7  <0> d           2.854   3.468  -0.007  0.00  0.00     0.066 A 
ATOM     10  N3  <0> d           1.557   3.365   0.005  0.00  0.00    -0.240 NA
ATOM     11  H5  <0> d          -0.924  -0.560   0.008  0.00  0.00     0.086 H 
ATOM     12  H6  <0> d          -0.951   1.920   0.017  0.00  0.00     0.087 H 
ATOM     13  H7  <0> d           3.400   4.400  -0.007  0.00  0.00     0.143 H 
ENDROOT
BRANCH   1  14
ATOM     14  C1  <0> d           1.231  -2.178  -0.021  0.00  0.00    -0.035 C 
ATOM     15  H2  <0> d           1.225  -2.536  -1.050  0.00  0.00     0.035 H 
ATOM     16  H3  <0> d           2.130  -2.536   0.482  0.00  0.00     0.035 H 
ATOM     17  H4  <0> d           0.350  -2.553   0.500  0.00  0.00     0.035 H 
ENDBRANCH   1  14
TORSDOF 1
