REMARK  1 active torsions:
REMARK  status: ('A' for Active; 'I' for Inactive)
REMARK    1  A    between atoms: C7_10  and  O1_11 
ROOT
ATOM      1  C1  <0> d          -0.017   1.390   0.010  0.00  0.00    -0.050 A 
ATOM      2  C2  <0> d           1.148   2.100   0.002  0.00  0.00    -0.067 A 
ATOM      3  C3  <0> d           2.374   1.426  -0.013  0.00  0.00     0.011 A 
ATOM      4  C4  <0> d           3.767   1.861  -0.025  0.00  0.00     0.034 A 
ATOM      5  N1  <0> d           4.517   0.796  -0.038  0.00  0.00    -0.186 NA
ATOM      6  N2  <0> d           3.719  -0.353  -0.036  0.00  0.00    -0.278 N 
ATOM      7  H1  <0> d           4.047  -1.266  -0.044  0.00  0.00     0.189 HD
ATOM      8  C5  <0> d           2.400   0.018  -0.021  0.00  0.00     0.064 A 
ATOM      9  C6  <0> d           1.201  -0.690  -0.013  0.00  0.00    -0.023 A 
ATOM     10  C7  <0> d           0.002  -0.004   0.002  0.00  0.00     0.068 A 
ATOM     11  H2  <0> d          -0.962   1.912   0.026  0.00  0.00     0.087 H 
ATOM     12  H3  <0> d           1.123   3.179   0.008  0.00  0.00     0.085 H 
ATOM     13  H4  <0> d           4.115   2.883  -0.023  0.00  0.00     0.118 H 
ATOM     14  H5  <0> d           1.208  -1.770  -0.019  0.00  0.00     0.091 H 
ENDROOT
BRANCH  10  15
ATOM     15  O1  <0> d          -1.169  -0.694   0.009  0.00  0.00    -0.361 OA
ATOM     16  H6  <0> d          -1.516  -0.889  -0.872  0.00  0.00     0.217 HD
ENDBRANCH  10  15
TORSDOF 1
