REMARK  8 active torsions:
REMARK  status: ('A' for Active; 'I' for Inactive)
REMARK    1  A    between atoms: C1_1  and  C2_2 
REMARK    2  A    between atoms: C2_2  and  C3_3 
REMARK    3  A    between atoms: C3_3  and  C4_5 
REMARK    4  A    between atoms: C3_3  and  N1_6 
REMARK       I    between atoms: N1_6  and  C5_7 
REMARK    5  A    between atoms: C5_7  and  C6_9 
REMARK    6  A    between atoms: C6_9  and  O2_10 
REMARK    7  A    between atoms: O2_10  and  C7_11 
REMARK    8  A    between atoms: C7_11  and  C8_12 
ROOT
ATOM      1  N1  <0> d          -0.011   0.966   0.007  0.00  0.00    -0.355 N 
ATOM      2  C5  <0> d           1.147   1.655  -0.000  0.00  0.00     0.241 C 
ATOM      3  O1  <0> d           1.130   2.868   0.007  0.00  0.00    -0.271 OA
ATOM      4  H10 <0> d           0.002  -0.004   0.002  0.00  0.00     0.162 HD
ENDROOT
BRANCH   1   5
ATOM      5  C3  <0> d          -1.290   1.681   0.017  0.00  0.00     0.008 C 
ATOM      6  H1  <0> d          -1.193   2.590   0.611  0.00  0.00     0.071 H 
BRANCH   5   7
ATOM      7  C2  <0> d          -2.370   0.786   0.627  0.00  0.00    -0.050 C 
ATOM      8  H5  <0> d          -3.337   1.282   0.554  0.00  0.00     0.035 H 
ATOM      9  H6  <0> d          -2.405  -0.160   0.087  0.00  0.00     0.035 H 
BRANCH   7  10
ATOM     10  C1  <0> d          -2.043   0.521   2.098  0.00  0.00    -0.075 C 
ATOM     11  H2  <0> d          -2.007   1.467   2.638  0.00  0.00     0.027 H 
ATOM     12  H3  <0> d          -2.812  -0.117   2.533  0.00  0.00     0.027 H 
ATOM     13  H4  <0> d          -1.075   0.025   2.171  0.00  0.00     0.027 H 
ENDBRANCH   7  10
ENDBRANCH   5   7
BRANCH   5  14
ATOM     14  C4  <0> d          -1.680   2.047  -1.416  0.00  0.00    -0.057 C 
ATOM     15  H7  <0> d          -0.910   2.685  -1.850  0.00  0.00     0.030 H 
ATOM     16  H8  <0> d          -1.777   1.139  -2.010  0.00  0.00     0.030 H 
ATOM     17  H9  <0> d          -2.631   2.580  -1.409  0.00  0.00     0.030 H 
ENDBRANCH   5  14
ENDBRANCH   1   5
BRANCH   2  18
ATOM     18  C6  <0> d           2.462   0.920  -0.017  0.00  0.00     0.093 C 
ATOM     19  H11 <0> d           2.537   0.289   0.869  0.00  0.00     0.089 H 
ATOM     20  H12 <0> d           2.520   0.299  -0.910  0.00  0.00     0.089 H 
BRANCH  18  21
ATOM     21  O2  <0> d           3.535   1.863  -0.022  0.00  0.00    -0.382 OA
BRANCH  21  22
ATOM     22  C7  <0> d           4.834   1.266  -0.037  0.00  0.00     0.017 C 
ATOM     23  H13 <0> d           4.958   0.643   0.848  0.00  0.00     0.073 H 
ATOM     24  H14 <0> d           4.941   0.652  -0.932  0.00  0.00     0.073 H 
BRANCH  22  25
ATOM     25  C8  <0> d           5.900   2.364  -0.042  0.00  0.00    -0.056 C 
ATOM     26  H15 <0> d           5.776   2.987  -0.927  0.00  0.00     0.030 H 
ATOM     27  H16 <0> d           5.793   2.978   0.853  0.00  0.00     0.030 H 
ATOM     28  H17 <0> d           6.890   1.909  -0.053  0.00  0.00     0.030 H 
ENDBRANCH  22  25
ENDBRANCH  21  22
ENDBRANCH  18  21
ENDBRANCH   2  18
TORSDOF 8
