REMARK  2 active torsions:
REMARK  status: ('A' for Active; 'I' for Inactive)
REMARK    1  A    between atoms: C2_2  and  C3_3 
REMARK    2  A    between atoms: C6_6  and  C9_9 
ROOT
ATOM      1  C1  <0> d          -3.235   3.306   5.670  0.00  0.00    -0.149 C 
ATOM      2  C2  <0> d          -2.685   2.927   4.704  0.00  0.00    -0.078 C 
ATOM      3  H1  <0> d          -3.726   3.644   6.533  0.00  0.00     0.166 H 
ENDROOT
BRANCH   2   4
ATOM      4  C3  <0> d          -2.014   2.465   3.526  0.00  0.00     0.017 A 
ATOM      5  C8  <0> d          -1.003   3.233   2.949  0.00  0.00    -0.064 A 
ATOM      6  C7  <0> d          -0.357   2.780   1.817  0.00  0.00    -0.075 A 
ATOM      7  H5  <0> d          -0.723   4.179   3.389  0.00  0.00     0.085 H 
ATOM      8  C6  <0> d          -0.718   1.572   1.248  0.00  0.00    -0.045 A 
ATOM      9  H4  <0> d           0.429   3.372   1.371  0.00  0.00     0.084 H 
ATOM     10  C5  <0> d          -1.720   0.805   1.816  0.00  0.00    -0.075 A 
ATOM     11  C4  <0> d          -2.369   1.244   2.951  0.00  0.00    -0.064 A 
ATOM     12  H3  <0> d          -1.994  -0.139   1.369  0.00  0.00     0.084 H 
ATOM     13  H2  <0> d          -3.151   0.644   3.393  0.00  0.00     0.085 H 
BRANCH   8  14
ATOM     14  C9  <0> d          -0.013   1.086   0.008  0.00  0.00     0.038 C 
ATOM     15  C10 <0> d          -0.725   1.573  -1.185  0.00  0.00     0.063 C 
ATOM     16  N1  <0> d          -1.274   1.950  -2.105  0.00  0.00    -0.197 NA
ATOM     17  H6  <0> d           0.002  -0.004   0.002  0.00  0.00     0.062 H 
ATOM     18  H7  <0> d           1.010   1.463   0.000  0.00  0.00     0.062 H 
ENDBRANCH   8  14
ENDBRANCH   2   4
TORSDOF 2
