REMARK  2 active torsions:
REMARK  status: ('A' for Active; 'I' for Inactive)
REMARK    1  A    between atoms: C2_2  and  C5_10 
REMARK    2  A    between atoms: C3_6  and  C4_7 
ROOT
ATOM      1  C1  <0> d           2.066   0.708  -0.014  0.00  0.00    -0.029 A 
ATOM      2  C2  <0> d           1.292  -0.402  -0.012  0.00  0.00     0.034 A 
ATOM      3  N1  <0> d           0.002  -0.004   0.002  0.00  0.00    -0.281 N 
ATOM      4  H1  <0> d          -0.798  -0.603   0.006  0.00  0.00     0.189 HD
ATOM      5  N2  <0> d          -0.017   1.397   0.010  0.00  0.00    -0.174 NA
ATOM      6  C3  <0> d           1.220   1.822   0.000  0.00  0.00     0.120 A 
ATOM      7  H2  <0> d           3.145   0.730  -0.024  0.00  0.00     0.090 H 
ENDROOT
BRANCH   2   8
ATOM      8  C5  <0> d           1.782  -1.827  -0.025  0.00  0.00    -0.012 A 
ATOM      9  C7  <0> d           0.967  -2.861   0.755  0.00  0.00    -0.056 A 
ATOM     10  C6  <0> d           0.936  -2.858  -0.774  0.00  0.00    -0.056 A 
ATOM     11  H7  <0> d           1.514  -3.666   1.246  0.00  0.00     0.034 H 
ATOM     12  H8  <0> d           0.077  -2.510   1.278  0.00  0.00     0.034 H 
ATOM     13  H5  <0> d           0.025  -2.506  -1.258  0.00  0.00     0.034 H 
ATOM     14  H6  <0> d           1.462  -3.662  -1.290  0.00  0.00     0.034 H 
ATOM     15  H4  <0> d           2.864  -1.952  -0.047  0.00  0.00     0.049 H 
ENDBRANCH   2   8
BRANCH   6  16
ATOM     16  C4  <0> d           1.659   3.264   0.004  0.00  0.00     0.251 C 
ATOM     17  F1  <0> d           0.708   4.039   0.677  0.00  0.00    -0.207 F 
ATOM     18  F2  <0> d           2.894   3.374   0.652  0.00  0.00    -0.207 F 
ATOM     19  H3  <0> d           1.754   3.617  -1.023  0.00  0.00     0.155 H 
ENDBRANCH   6  16
TORSDOF 2
