REMARK  2 active torsions:
REMARK  status: ('A' for Active; 'I' for Inactive)
REMARK    1  A    between atoms: C3_4  and  C5_7 
REMARK    2  A    between atoms: C5_7  and  C6_8 
ROOT
ATOM      1  C1  <0> d          -4.470  -0.820   0.019  0.00  0.00    -0.049 A 
ATOM      2  C2  <0> d          -3.931  -0.358   1.209  0.00  0.00     0.005 A 
ATOM      3  N1  <0> d          -2.938   0.515   1.170  0.00  0.00    -0.245 NA
ATOM      4  C3  <0> d          -2.462   0.945   0.019  0.00  0.00     0.135 A 
ATOM      5  N2  <0> d          -2.952   0.532  -1.132  0.00  0.00    -0.245 NA
ATOM      6  C4  <0> d          -3.943  -0.345  -1.172  0.00  0.00     0.005 A 
ATOM      7  H1  <0> d          -5.281  -1.533   0.019  0.00  0.00     0.087 H 
ATOM      8  H2  <0> d          -4.317  -0.706   2.156  0.00  0.00     0.114 H 
ATOM      9  H3  <0> d          -4.338  -0.683  -2.119  0.00  0.00     0.114 H 
ENDROOT
BRANCH   4  10
ATOM     10  C5  <0> d          -1.329   1.940   0.019  0.00  0.00     0.072 C 
ATOM     11  H4  <0> d          -1.401   2.576  -0.875  0.00  0.00     0.061 H 
ATOM     12  H5  <0> d          -1.392   2.566   0.921  0.00  0.00     0.061 H 
BRANCH  10  13
ATOM     13  C6  <0> d          -0.014   1.204   0.009  0.00  0.00     0.179 C 
ATOM     14  O1  <0> d           0.002  -0.004   0.002  0.00  0.00    -0.648 OA
ATOM     15  O2  <0> d           1.139   1.891   0.001  0.00  0.00    -0.648 OA
ENDBRANCH  10  13
ENDBRANCH   4  10
TORSDOF 2
