REMARK  3 active torsions:
REMARK  status: ('A' for Active; 'I' for Inactive)
REMARK    1  A    between atoms: C4_6  and  C5_8 
REMARK       I    between atoms: C5_8  and  N2_10 
REMARK    2  A    between atoms: N2_10  and  C6_11 
REMARK    3  A    between atoms: C6_11  and  O3_12 
ROOT
ATOM      1  C1  <0> d          -0.194  -0.533  -1.436  0.00  0.00    -0.030 C 
ATOM      2  C2  <0> d           0.714  -1.785  -1.437  0.00  0.00     0.011 C 
ATOM      3  C3  <0> d           1.740  -1.501  -0.363  0.00  0.00     0.218 C 
ATOM      4  O1  <0> d           2.790  -2.093  -0.231  0.00  0.00    -0.274 OA
ATOM      5  N1  <0> d           1.318  -0.496   0.425  0.00  0.00    -0.348 N 
ATOM      6  C4  <0> d           0.002  -0.004   0.002  0.00  0.00     0.090 C 
ATOM      7  H1  <0> d          -0.775  -0.395   0.658  0.00  0.00     0.087 H 
ATOM      8  H2  <0> d          -1.234  -0.806  -1.613  0.00  0.00     0.037 H 
ATOM      9  H3  <0> d           0.148   0.196  -2.170  0.00  0.00     0.037 H 
ATOM     10  H4  <0> d           1.199  -1.904  -2.406  0.00  0.00     0.047 H 
ATOM     11  H5  <0> d           0.138  -2.677  -1.188  0.00  0.00     0.047 H 
ATOM     12  H6  <0> d           1.820  -0.143   1.176  0.00  0.00     0.163 HD
ENDROOT
BRANCH   6  13
ATOM     13  C5  <0> d          -0.018   1.503   0.010  0.00  0.00     0.242 C 
ATOM     14  O2  <0> d           1.024   2.123   0.004  0.00  0.00    -0.271 OA
ATOM     15  N2  <0> d          -1.195   2.161   0.019  0.00  0.00    -0.338 N 
ATOM     16  H7  <0> d          -2.028   1.664   0.021  0.00  0.00     0.164 HD
BRANCH  15  17
ATOM     17  C6  <0> d          -1.214   3.626   0.028  0.00  0.00     0.077 C 
ATOM     18  H8  <0> d          -2.058   3.974   0.623  0.00  0.00     0.106 H 
ATOM     19  H9  <0> d          -0.286   3.999   0.460  0.00  0.00     0.106 H 
BRANCH  17  20
ATOM     20  O3  <0> d          -1.345   4.107  -1.311  0.00  0.00    -0.382 OA
ATOM     21  H10 <0> d          -1.365   5.072  -1.382  0.00  0.00     0.211 HD
ENDBRANCH  17  20
ENDBRANCH  15  17
ENDBRANCH   6  13
TORSDOF 3
