REMARK  2 active torsions:
REMARK  status: ('A' for Active; 'I' for Inactive)
REMARK    1  A    between atoms: C1_1  and  C2_2 
REMARK    2  A    between atoms: C6_6  and  O1_9 
ROOT
ATOM      1  C2  <0> d           1.173   2.091   0.002  0.00  0.00    -0.020 A 
ATOM      2  C3  <0> d           2.379   1.416  -0.013  0.00  0.00    -0.071 A 
ATOM      3  C4  <0> d           2.401   0.034  -0.021  0.00  0.00    -0.042 A 
ATOM      4  C5  <0> d           1.215  -0.679  -0.013  0.00  0.00     0.152 A 
ATOM      5  C6  <0> d           0.002  -0.004   0.002  0.00  0.00     0.144 A 
ATOM      6  C7  <0> d          -0.017   1.384   0.010  0.00  0.00     0.158 A 
ATOM      7  F1  <0> d          -1.195   2.045   0.019  0.00  0.00    -0.203 F 
ATOM      8  F2  <0> d           1.238  -2.030  -0.021  0.00  0.00    -0.203 F 
ATOM      9  H4  <0> d           3.307   1.970  -0.020  0.00  0.00     0.084 H 
ATOM     10  H5  <0> d           3.346  -0.491  -0.033  0.00  0.00     0.088 H 
ENDROOT
BRANCH   1  11
ATOM     11  C1  <0> d           1.153   3.598   0.010  0.00  0.00    -0.048 C 
ATOM     12  H1  <0> d           1.158   3.956   1.039  0.00  0.00     0.033 H 
ATOM     13  H2  <0> d           2.034   3.975  -0.510  0.00  0.00     0.033 H 
ATOM     14  H3  <0> d           0.254   3.952  -0.494  0.00  0.00     0.033 H 
ENDBRANCH   1  11
BRANCH   5  15
ATOM     15  O1  <0> d          -1.166  -0.702   0.009  0.00  0.00    -0.355 OA
ATOM     16  H6  <0> d          -1.511  -0.898  -0.872  0.00  0.00     0.218 HD
ENDBRANCH   5  15
TORSDOF 2
