REMARK  3 active torsions:
REMARK  status: ('A' for Active; 'I' for Inactive)
REMARK    1  A    between atoms: C1_1  and  C2_2 
REMARK    2  A    between atoms: C3_3  and  C6_8 
REMARK    3  A    between atoms: N2_6  and  C5_7 
ROOT
ATOM      1  C2  <0> d           2.381   3.839  -0.000  0.00  0.00     0.044 A 
ATOM      2  C3  <0> d           1.238   3.063   0.007  0.00  0.00     0.083 A 
ATOM      3  C4  <0> d           0.134   3.945   0.016  0.00  0.00     0.040 A 
ATOM      4  N1  <0> d           0.594   5.166   0.024  0.00  0.00    -0.184 NA
ATOM      5  N2  <0> d           1.993   5.124   0.011  0.00  0.00    -0.278 N 
ATOM      6  H4  <0> d          -0.907   3.659   0.019  0.00  0.00     0.119 H 
ENDROOT
BRANCH   1   7
ATOM      7  C1  <0> d           3.801   3.336  -0.017  0.00  0.00    -0.035 C 
ATOM      8  H1  <0> d           4.133   3.220  -1.048  0.00  0.00     0.035 H 
ATOM      9  H2  <0> d           4.446   4.051   0.494  0.00  0.00     0.035 H 
ATOM     10  H3  <0> d           3.852   2.373   0.491  0.00  0.00     0.035 H 
ENDBRANCH   1   7
BRANCH   5  11
ATOM     11  C5  <0> d           2.884   6.287   0.008  0.00  0.00     0.003 C 
ATOM     12  H5  <0> d           3.094   6.581  -1.021  0.00  0.00     0.059 H 
ATOM     13  H6  <0> d           2.404   7.114   0.531  0.00  0.00     0.059 H 
ATOM     14  H7  <0> d           3.816   6.031   0.511  0.00  0.00     0.059 H 
ENDBRANCH   5  11
BRANCH   2  15
ATOM     15  C6  <0> d           1.181   1.591  -0.001  0.00  0.00     0.212 C 
ATOM     16  O1  <0> d           2.209   0.943  -0.014  0.00  0.00    -0.644 OA
ATOM     17  O2  <0> d          -0.011   0.963   0.007  0.00  0.00    -0.644 OA
ENDBRANCH   2  15
TORSDOF 3
