REMARK  4 active torsions:
REMARK  status: ('A' for Active; 'I' for Inactive)
REMARK    1  A    between atoms: C1_1  and  C2_2 
REMARK    2  A    between atoms: C4_4  and  C8_10 
REMARK    3  A    between atoms: C5_5  and  O1_8 
REMARK    4  A    between atoms: O1_8  and  C7_9 
ROOT
ATOM      1  C2  <0> d           0.002  -0.004   0.002  0.00  0.00    -0.043 A 
ATOM      2  C3  <0> d           0.006  -0.696  -1.198  0.00  0.00    -0.062 A 
ATOM      3  C4  <0> d           0.026  -2.093  -1.159  0.00  0.00     0.017 A 
ATOM      4  C5  <0> d           0.041  -2.734   0.088  0.00  0.00     0.174 A 
ATOM      5  N1  <0> d           0.036  -2.027   1.204  0.00  0.00    -0.236 NA
ATOM      6  C6  <0> d           0.023  -0.707   1.191  0.00  0.00     0.011 A 
ATOM      7  H4  <0> d          -0.006  -0.169  -2.141  0.00  0.00     0.085 H 
ATOM      8  H5  <0> d           0.024  -0.168   2.127  0.00  0.00     0.115 H 
ENDROOT
BRANCH   3   9
ATOM      9  C8  <0> d           0.030  -2.880  -2.409  0.00  0.00    -0.078 C 
ATOM     10  C9  <0> d           0.015  -2.261  -3.582  0.00  0.00    -0.120 C 
ATOM     11  H10 <0> d           0.019  -2.837  -4.496  0.00  0.00     0.066 H 
ATOM     12  H11 <0> d           0.000  -1.182  -3.623  0.00  0.00     0.066 H 
ATOM     13  H9  <0> d           0.045  -3.959  -2.368  0.00  0.00     0.083 H 
ENDBRANCH   3   9
BRANCH   4  14
ATOM     14  O1  <0> d           0.060  -4.088   0.148  0.00  0.00    -0.339 OA
BRANCH  14  15
ATOM     15  C7  <0> d           0.074  -4.679   1.450  0.00  0.00     0.012 C 
ATOM     16  H6  <0> d          -0.818  -4.374   1.997  0.00  0.00     0.067 H 
ATOM     17  H7  <0> d           0.089  -5.765   1.355  0.00  0.00     0.067 H 
ATOM     18  H8  <0> d           0.962  -4.349   1.989  0.00  0.00     0.067 H 
ENDBRANCH  14  15
ENDBRANCH   4  14
BRANCH   1  19
ATOM     19  C1  <0> d          -0.018   1.503   0.010  0.00  0.00    -0.050 C 
ATOM     20  H1  <0> d           1.004   1.880   0.003  0.00  0.00     0.033 H 
ATOM     21  H2  <0> d          -0.545   1.864  -0.873  0.00  0.00     0.033 H 
ATOM     22  H3  <0> d          -0.529   1.854   0.907  0.00  0.00     0.033 H 
ENDBRANCH   1  19
TORSDOF 4
