REMARK  4 active torsions:
REMARK  status: ('A' for Active; 'I' for Inactive)
REMARK    1  A    between atoms: C1_1  and  C2_2 
REMARK    2  A    between atoms: C2_2  and  C9_11 
REMARK    3  A    between atoms: C4_4  and  C7_8 
REMARK    4  A    between atoms: C4_4  and  O2_10 
ROOT
ATOM      1  C7  <0> d          -2.401   1.738  -1.137  0.00  0.00    -0.079 C 
ATOM      2  C8  <0> d          -3.490   1.300  -1.159  0.00  0.00    -0.151 C 
ATOM      3  H10 <0> d          -4.465   0.909  -1.178  0.00  0.00     0.166 H 
ENDROOT
BRANCH   1   4
ATOM      4  C4  <0> d          -1.036   2.287  -1.110  0.00  0.00     0.124 C 
ATOM      5  C3  <0> d          -0.170   1.460  -0.153  0.00  0.00     0.002 C 
ATOM      6  C2  <0> d          -0.732   1.581   1.266  0.00  0.00     0.057 C 
ATOM      7  H4  <0> d          -0.182   0.415  -0.463  0.00  0.00     0.043 H 
ATOM      8  H5  <0> d           0.853   1.834  -0.173  0.00  0.00     0.043 H 
ATOM      9  O1  <0> d          -0.770   2.958   1.646  0.00  0.00    -0.381 OA
ATOM     10  C6  <0> d          -1.602   3.771   0.815  0.00  0.00     0.024 C 
ATOM     11  C5  <0> d          -1.074   3.738  -0.621  0.00  0.00    -0.006 C 
ATOM     12  H8  <0> d          -1.592   4.797   1.183  0.00  0.00     0.074 H 
ATOM     13  H9  <0> d          -2.623   3.387   0.837  0.00  0.00     0.074 H 
ATOM     14  H6  <0> d          -0.069   4.159  -0.649  0.00  0.00     0.042 H 
ATOM     15  H7  <0> d          -1.733   4.322  -1.265  0.00  0.00     0.042 H 
BRANCH   6  16
ATOM     16  C1  <0> d          -2.148   1.002   1.305  0.00  0.00    -0.048 C 
ATOM     17  H1  <0> d          -2.178   0.076   0.731  0.00  0.00     0.031 H 
ATOM     18  H2  <0> d          -2.428   0.798   2.338  0.00  0.00     0.031 H 
ATOM     19  H3  <0> d          -2.846   1.720   0.874  0.00  0.00     0.031 H 
ENDBRANCH   6  16
BRANCH   6  20
ATOM     20  C9  <0> d           0.163   0.807   2.236  0.00  0.00    -0.048 C 
ATOM     21  H12 <0> d           1.171   1.220   2.208  0.00  0.00     0.031 H 
ATOM     22  H13 <0> d          -0.237   0.893   3.246  0.00  0.00     0.031 H 
ATOM     23  H14 <0> d           0.192  -0.243   1.944  0.00  0.00     0.031 H 
ENDBRANCH   6  20
BRANCH   4  24
ATOM     24  O2  <0> d          -0.475   2.240  -2.424  0.00  0.00    -0.377 OA
ATOM     25  H11 <0> d          -0.974   2.743  -3.082  0.00  0.00     0.211 HD
ENDBRANCH   4  24
ENDBRANCH   1   4
TORSDOF 4
