REMARK  6 active torsions:
REMARK  status: ('A' for Active; 'I' for Inactive)
REMARK    1  A    between atoms: C1_1  and  C2_2 
REMARK    2  A    between atoms: C2_2  and  C3_3 
REMARK    3  A    between atoms: C3_3  and  C4_4 
REMARK    4  A    between atoms: C4_4  and  C5_6 
REMARK    5  A    between atoms: C4_4  and  O2_9 
REMARK    6  A    between atoms: C5_6  and  C6_7 
ROOT
ATOM      1  C3  <0> d          -3.811   1.673  -0.097  0.00  0.00    -0.041 C 
ATOM      2  H7  <0> d          -3.964   2.284   0.793  0.00  0.00     0.036 H 
ATOM      3  H8  <0> d          -3.795   2.313  -0.979  0.00  0.00     0.036 H 
ENDROOT
BRANCH   1   4
ATOM      4  C2  <0> d          -4.951   0.661  -0.222  0.00  0.00    -0.066 C 
ATOM      5  H5  <0> d          -4.798   0.049  -1.111  0.00  0.00     0.032 H 
ATOM      6  H6  <0> d          -4.967   0.021   0.660  0.00  0.00     0.032 H 
BRANCH   4   7
ATOM      7  C1  <0> d          -6.283   1.404  -0.337  0.00  0.00    -0.076 C 
ATOM      8  H2  <0> d          -6.436   2.015   0.552  0.00  0.00     0.027 H 
ATOM      9  H3  <0> d          -6.267   2.044  -1.220  0.00  0.00     0.027 H 
ATOM     10  H4  <0> d          -7.095   0.683  -0.427  0.00  0.00     0.027 H 
ENDBRANCH   4   7
ENDBRANCH   1   4
BRANCH   1  11
ATOM     11  C4  <0> d          -2.479   0.930   0.019  0.00  0.00     0.044 C 
ATOM     12  H1  <0> d          -2.367   0.252  -0.827  0.00  0.00     0.083 H 
BRANCH  11  13
ATOM     13  C5  <0> d          -1.329   1.940   0.019  0.00  0.00     0.039 C 
ATOM     14  H9  <0> d          -1.391   2.561   0.913  0.00  0.00     0.052 H 
ATOM     15  H10 <0> d          -1.400   2.570  -0.867  0.00  0.00     0.052 H 
BRANCH  13  16
ATOM     16  C6  <0> d          -0.014   1.204   0.009  0.00  0.00     0.175 C 
ATOM     17  O1  <0> d           0.002  -0.004   0.002  0.00  0.00    -0.648 OA
ATOM     18  O3  <0> d           1.139   1.891   0.001  0.00  0.00    -0.648 OA
ENDBRANCH  13  16
ENDBRANCH  11  13
BRANCH  11  19
ATOM     19  O2  <0> d          -2.455   0.181   1.236  0.00  0.00    -0.395 OA
ATOM     20  H11 <0> d          -2.550   0.722   2.032  0.00  0.00     0.210 HD
ENDBRANCH  11  19
ENDBRANCH   1  11
TORSDOF 6
