REMARK  2 active torsions:
REMARK  status: ('A' for Active; 'I' for Inactive)
REMARK    1  A    between atoms: C1_1  and  C2_2 
REMARK    2  A    between atoms: C2_2  and  C3_3 
ROOT
ATOM      1  C3  <0> d           3.102   3.731  -0.007  0.00  0.00    -0.058 A 
ATOM      2  C4  <0> d           3.450   2.392  -0.018  0.00  0.00    -0.075 A 
ATOM      3  C5  <0> d           2.471   1.421  -0.014  0.00  0.00    -0.057 A 
ATOM      4  C6  <0> d           1.122   1.781   0.001  0.00  0.00     0.034 A 
ATOM      5  C7  <0> d           0.785   3.125   0.011  0.00  0.00    -0.030 A 
ATOM      6  C8  <0> d           1.769   4.095   0.007  0.00  0.00    -0.069 A 
ATOM      7  C9  <0> d          -0.723   3.243   0.026  0.00  0.00    -0.024 A 
ATOM      8  C10 <0> d          -1.223   1.789   0.017  0.00  0.00    -0.004 A 
ATOM      9  N1  <0> d          -0.011   0.966   0.007  0.00  0.00    -0.389 N 
ATOM     10  H6  <0> d           4.491   2.106  -0.030  0.00  0.00     0.084 H 
ATOM     11  H7  <0> d           2.749   0.377  -0.022  0.00  0.00     0.086 H 
ATOM     12  H8  <0> d           1.496   5.140   0.016  0.00  0.00     0.085 H 
ATOM     13  H9  <0> d          -1.040   3.780   0.933  0.00  0.00     0.042 H 
ATOM     14  H10 <0> d          -1.056   3.797  -0.863  0.00  0.00     0.042 H 
ATOM     15  H11 <0> d          -1.830   1.604   0.915  0.00  0.00     0.064 H 
ATOM     16  H12 <0> d          -1.835   1.618  -0.881  0.00  0.00     0.064 H 
ATOM     17  H13 <0> d          -0.091  -0.131   0.006  0.00  0.00     0.159 HD
ENDROOT
BRANCH   1  18
ATOM     18  C2  <0> d           4.175   4.789  -0.013  0.00  0.00    -0.044 C 
ATOM     19  H4  <0> d           3.800   5.689  -0.523  0.00  0.00     0.039 H 
ATOM     20  H5  <0> d           5.062   4.410  -0.542  0.00  0.00     0.039 H 
BRANCH  18  21
ATOM     21  C1  <0> d           4.552   5.140   1.428  0.00  0.00    -0.073 C 
ATOM     22  H1  <0> d           5.335   5.913   1.425  0.00  0.00     0.028 H 
ATOM     23  H2  <0> d           4.927   4.241   1.938  0.00  0.00     0.028 H 
ATOM     24  H3  <0> d           3.665   5.519   1.957  0.00  0.00     0.028 H 
ENDBRANCH  18  21
ENDBRANCH   1  18
TORSDOF 2
