REMARK  3 active torsions:
REMARK  status: ('A' for Active; 'I' for Inactive)
REMARK    1  A    between atoms: C1_1  and  C2_2 
REMARK    2  A    between atoms: C2_2  and  C10_14 
REMARK    3  A    between atoms: C8_10  and  O1_13 
ROOT
ATOM      1  C2  <0> d           0.002  -0.004   0.002  0.00  0.00    -0.036 C 
ATOM      2  C3  <0> d           0.657  -0.610  -1.253  0.00  0.00    -0.044 C 
ATOM      3  H1  <0> d           1.688  -0.934  -1.116  0.00  0.00     0.041 H 
ATOM      4  C4  <0> d          -0.392  -1.731  -1.117  0.00  0.00    -0.053 C 
ATOM      5  C5  <0> d          -1.307  -0.642  -0.506  0.00  0.00    -0.023 C 
ATOM      6  H2  <0> d          -2.019  -0.967   0.253  0.00  0.00     0.048 H 
ATOM      7  C6  <0> d          -1.883   0.197  -1.647  0.00  0.00    -0.056 C 
ATOM      8  C7  <0> d          -3.003   0.868  -1.539  0.00  0.00    -0.116 C 
ATOM      9  C8  <0> d          -1.039   0.186  -2.921  0.00  0.00     0.057 C 
ATOM     10  H3  <0> d          -1.291   1.046  -3.542  0.00  0.00     0.090 H 
ATOM     11  C9  <0> d           0.435   0.264  -2.494  0.00  0.00    -0.033 C 
ATOM     12  H7  <0> d          -0.108  -2.514  -0.413  0.00  0.00     0.034 H 
ATOM     13  H8  <0> d          -0.749  -2.123  -2.069  0.00  0.00     0.034 H 
ATOM     14  H9  <0> d          -3.561   0.844  -0.615  0.00  0.00     0.067 H 
ATOM     15  H10 <0> d          -3.368   1.446  -2.375  0.00  0.00     0.067 H 
ATOM     16  H11 <0> d           0.690   1.298  -2.260  0.00  0.00     0.037 H 
ATOM     17  H12 <0> d           1.068  -0.091  -3.306  0.00  0.00     0.037 H 
ENDROOT
BRANCH   1  18
ATOM     18  C1  <0> d          -0.019   1.526   0.010  0.00  0.00    -0.068 C 
ATOM     19  H4  <0> d           1.004   1.903   0.003  0.00  0.00     0.028 H 
ATOM     20  H5  <0> d          -0.546   1.887  -0.873  0.00  0.00     0.028 H 
ATOM     21  H6  <0> d          -0.529   1.877   0.907  0.00  0.00     0.028 H 
ENDBRANCH   1  18
BRANCH   1  22
ATOM     22  C10 <0> d           0.512  -0.602   1.315  0.00  0.00    -0.068 C 
ATOM     23  H14 <0> d          -0.023  -0.152   2.151  0.00  0.00     0.028 H 
ATOM     24  H15 <0> d           0.344  -1.679   1.313  0.00  0.00     0.028 H 
ATOM     25  H16 <0> d           1.579  -0.402   1.415  0.00  0.00     0.028 H 
ENDBRANCH   1  22
BRANCH   9  26
ATOM     26  O1  <0> d          -1.271  -1.022  -3.648  0.00  0.00    -0.391 OA
ATOM     27  H13 <0> d          -2.184  -1.133  -3.947  0.00  0.00     0.210 HD
ENDBRANCH   9  26
TORSDOF 3
