REMARK  1 active torsions:
REMARK  status: ('A' for Active; 'I' for Inactive)
REMARK    1  A    between atoms: C4_5  and  C5_6 
REMARK       I    between atoms: C5_6  and  N1_8 
ROOT
ATOM      1  C1  <0> d           1.276  -0.426  -0.012  0.00  0.00    -0.044 A 
ATOM      2  C2  <0> d           0.002  -0.004   0.002  0.00  0.00     0.019 A 
ATOM      3  O1  <0> d          -0.016   1.338   0.009  0.00  0.00    -0.334 OA
ATOM      4  C3  <0> d           1.226   1.832   0.000  0.00  0.00     0.033 A 
ATOM      5  C4  <0> d           2.104   0.788  -0.014  0.00  0.00     0.055 A 
ATOM      6  H1  <0> d           1.621  -1.450  -0.021  0.00  0.00     0.088 H 
ATOM      7  H2  <0> d          -0.869  -0.642   0.007  0.00  0.00     0.123 H 
ATOM      8  H3  <0> d           1.489   2.879   0.003  0.00  0.00     0.125 H 
ENDROOT
BRANCH   5   9
ATOM      9  C5  <0> d           3.576   0.863  -0.027  0.00  0.00     0.251 C 
ATOM     10  O2  <0> d           4.236  -0.159  -0.038  0.00  0.00    -0.268 OA
ATOM     11  N1  <0> d           4.190   2.062  -0.026  0.00  0.00    -0.366 N 
ATOM     12  H4  <0> d           3.663   2.877  -0.017  0.00  0.00     0.159 HD
ATOM     13  H5  <0> d           5.159   2.111  -0.035  0.00  0.00     0.159 HD
ENDBRANCH   5   9
TORSDOF 1
