REMARK  2 active torsions:
REMARK  status: ('A' for Active; 'I' for Inactive)
REMARK    1  A    between atoms: C1_1  and  C2_2 
REMARK    2  A    between atoms: N2_8  and  C6_10 
ROOT
ATOM      1  C2  <0> d           0.002  -0.004   0.002  0.00  0.00    -0.026 C 
ATOM      2  H1  <0> d          -1.020  -0.384   0.010  0.00  0.00     0.044 H 
ATOM      3  C3  <0> d           0.727  -0.502  -1.253  0.00  0.00     0.001 C 
ATOM      4  N1  <0> d           0.842  -1.960  -1.194  0.00  0.00    -0.343 N 
ATOM      5  C4  <0> d           0.911  -2.608  -0.022  0.00  0.00     0.317 C 
ATOM      6  O1  <0> d           1.016  -3.819  -0.030  0.00  0.00    -0.247 OA
ATOM      7  N2  <0> d           0.868  -1.973   1.159  0.00  0.00    -0.338 N 
ATOM      8  C5  <0> d           0.751  -0.515   1.238  0.00  0.00     0.003 C 
ATOM      9  H5  <0> d           0.159  -0.216  -2.139  0.00  0.00     0.064 H 
ATOM     10  H6  <0> d           1.722  -0.060  -1.299  0.00  0.00     0.064 H 
ATOM     11  H7  <0> d           0.868  -2.468  -2.020  0.00  0.00     0.164 HD
ATOM     12  H8  <0> d           1.746  -0.073   1.269  0.00  0.00     0.065 H 
ATOM     13  H9  <0> d           0.200  -0.239   2.137  0.00  0.00     0.065 H 
ENDROOT
BRANCH   1  14
ATOM     14  C1  <0> d          -0.019   1.526   0.010  0.00  0.00    -0.070 C 
ATOM     15  H2  <0> d           1.004   1.903   0.003  0.00  0.00     0.028 H 
ATOM     16  H3  <0> d          -0.546   1.887  -0.873  0.00  0.00     0.028 H 
ATOM     17  H4  <0> d          -0.529   1.877   0.907  0.00  0.00     0.028 H 
ENDBRANCH   1  14
BRANCH   7  18
ATOM     18  C6  <0> d           0.936  -2.753   2.396  0.00  0.00    -0.015 C 
ATOM     19  H10 <0> d           1.018  -3.813   2.154  0.00  0.00     0.056 H 
ATOM     20  H11 <0> d           1.809  -2.444   2.973  0.00  0.00     0.056 H 
ATOM     21  H12 <0> d           0.034  -2.583   2.983  0.00  0.00     0.056 H 
ENDBRANCH   7  18
TORSDOF 2
