REMARK  4 active torsions:
REMARK  status: ('A' for Active; 'I' for Inactive)
REMARK    1  A    between atoms: C1_1  and  C2_2 
REMARK    2  A    between atoms: N2_5  and  C5_8 
REMARK    3  A    between atoms: C4_6  and  N3_7 
REMARK    4  A    between atoms: C5_8  and  C6_9 
ROOT
ATOM      1  C2  <0> d           0.002  -0.004   0.002  0.00  0.00     0.002 A 
ATOM      2  C3  <0> d           0.009  -0.821  -1.132  0.00  0.00     0.031 A 
ATOM      3  N1  <0> d           0.028  -2.069  -0.740  0.00  0.00    -0.183 NA
ATOM      4  N2  <0> d           0.034  -2.092   0.661  0.00  0.00    -0.254 N 
ATOM      5  C4  <0> d           0.024  -0.812   1.098  0.00  0.00     0.125 A 
ATOM      6  H4  <0> d          -0.001  -0.481  -2.157  0.00  0.00     0.118 H 
ENDROOT
BRANCH   4   7
ATOM      7  C5  <0> d           0.055  -3.290   1.504  0.00  0.00     0.022 C 
ATOM      8  H7  <0> d          -0.458  -3.083   2.443  0.00  0.00     0.068 H 
ATOM      9  H8  <0> d          -0.449  -4.107   0.987  0.00  0.00     0.068 H 
BRANCH   7  10
ATOM     10  C6  <0> d           1.505  -3.687   1.791  0.00  0.00    -0.037 A 
ATOM     11  C8  <0> d           1.741  -4.851   2.755  0.00  0.00    -0.060 A 
ATOM     12  C7  <0> d           1.987  -5.037   1.257  0.00  0.00    -0.060 A 
ATOM     13  H12 <0> d           2.614  -4.796   3.406  0.00  0.00     0.033 H 
ATOM     14  H13 <0> d           0.863  -5.334   3.185  0.00  0.00     0.033 H 
ATOM     15  H10 <0> d           1.272  -5.643   0.701  0.00  0.00     0.033 H 
ATOM     16  H11 <0> d           3.022  -5.105   0.921  0.00  0.00     0.033 H 
ATOM     17  H9  <0> d           2.222  -2.866   1.807  0.00  0.00     0.042 H 
ENDBRANCH   7  10
ENDBRANCH   4   7
BRANCH   5  18
ATOM     18  N3  <0> d           0.030  -0.396   2.426  0.00  0.00    -0.384 N 
ATOM     19  H5  <0> d           0.018   0.550   2.639  0.00  0.00     0.157 HD
ATOM     20  H6  <0> d           0.046  -1.053   3.140  0.00  0.00     0.157 HD
ENDBRANCH   5  18
BRANCH   1  21
ATOM     21  C1  <0> d          -0.018   1.503   0.010  0.00  0.00    -0.046 C 
ATOM     22  H1  <0> d           1.004   1.880   0.003  0.00  0.00     0.033 H 
ATOM     23  H2  <0> d          -0.545   1.864  -0.873  0.00  0.00     0.033 H 
ATOM     24  H3  <0> d          -0.529   1.854   0.907  0.00  0.00     0.033 H 
ENDBRANCH   1  21
TORSDOF 4
