REMARK  4 active torsions:
REMARK  status: ('A' for Active; 'I' for Inactive)
REMARK    1  A    between atoms: C1_1  and  C2_2 
REMARK    2  A    between atoms: C2_2  and  C3_3 
REMARK    3  A    between atoms: C2_2  and  N1_4 
REMARK    4  A    between atoms: N1_4  and  C4_5 
ROOT
ATOM      1  C2  <0> d          -0.729   1.579   1.267  0.00  0.00     0.006 C 
ATOM      2  H4  <0> d          -0.744   2.669   1.273  0.00  0.00     0.071 H 
ENDROOT
BRANCH   1   3
ATOM      3  C1  <0> d          -0.013   1.086   0.008  0.00  0.00    -0.058 C 
ATOM      4  H1  <0> d           0.002  -0.004   0.002  0.00  0.00     0.030 H 
ATOM      5  H2  <0> d           1.010   1.463   0.000  0.00  0.00     0.030 H 
ATOM      6  H3  <0> d          -0.540   1.447  -0.875  0.00  0.00     0.030 H 
ENDBRANCH   1   3
BRANCH   1   7
ATOM      7  C3  <0> d           0.011   1.072   2.506  0.00  0.00    -0.058 C 
ATOM      8  H5  <0> d           0.026  -0.018   2.500  0.00  0.00     0.030 H 
ATOM      9  H6  <0> d           1.034   1.450   2.499  0.00  0.00     0.030 H 
ATOM     10  H7  <0> d          -0.499   1.424   3.403  0.00  0.00     0.030 H 
ENDBRANCH   1   7
BRANCH   1  11
ATOM     11  N1  <0> d          -2.103   1.072   1.277  0.00  0.00    -0.350 N 
ATOM     12  H8  <0> d          -2.325   0.261   0.793  0.00  0.00     0.163 HD
BRANCH  11  13
ATOM     13  C4  <0> d          -3.084   1.749   1.976  0.00  0.00     0.246 A 
ATOM     14  O1  <0> d          -4.374   1.389   2.063  0.00  0.00    -0.289 OA
ATOM     15  C6  <0> d          -5.006   2.303   2.832  0.00  0.00     0.039 A 
ATOM     16  C5  <0> d          -4.091   3.210   3.205  0.00  0.00     0.028 A 
ATOM     17  H10 <0> d          -6.053   2.302   3.098  0.00  0.00     0.126 H 
ATOM     18  N2  <0> d          -2.909   2.847   2.671  0.00  0.00    -0.219 NA
ATOM     19  H9  <0> d          -4.270   4.075   3.827  0.00  0.00     0.117 H 
ENDBRANCH  11  13
ENDBRANCH   1  11
TORSDOF 4
