REMARK  3 active torsions:
REMARK  status: ('A' for Active; 'I' for Inactive)
REMARK    1  A    between atoms: C1_1  and  C2_2 
REMARK    2  A    between atoms: C2_2  and  C3_4 
REMARK    3  A    between atoms: C2_2  and  O1_12 
ROOT
ATOM      1  C3  <0> d           1.147   3.062   0.008  0.00  0.00     0.047 A 
ATOM      2  C4  <0> d           0.243   3.669   0.863  0.00  0.00     0.128 A 
ATOM      3  C5  <0> d           0.119   5.048   0.874  0.00  0.00    -0.045 A 
ATOM      4  C6  <0> d           0.890   5.818   0.024  0.00  0.00    -0.077 A 
ATOM      5  C7  <0> d           1.789   5.213  -0.834  0.00  0.00    -0.045 A 
ATOM      6  C8  <0> d           1.919   3.835  -0.843  0.00  0.00     0.128 A 
ATOM      7  F1  <0> d           2.797   3.244  -1.682  0.00  0.00    -0.205 F 
ATOM      8  F2  <0> d          -0.514   2.915   1.690  0.00  0.00    -0.205 F 
ATOM      9  H5  <0> d          -0.583   5.521   1.544  0.00  0.00     0.088 H 
ATOM     10  H6  <0> d           0.789   6.893   0.030  0.00  0.00     0.083 H 
ATOM     11  H7  <0> d           2.391   5.816  -1.498  0.00  0.00     0.088 H 
ENDROOT
BRANCH   1  12
ATOM     12  C2  <0> d           1.286   1.562  -0.002  0.00  0.00     0.063 C 
ATOM     13  H1  <0> d           1.823   1.252  -0.899  0.00  0.00     0.090 H 
BRANCH  12  14
ATOM     14  C1  <0> d           2.064   1.114   1.238  0.00  0.00    -0.048 C 
ATOM     15  H2  <0> d           3.053   1.571   1.231  0.00  0.00     0.031 H 
ATOM     16  H3  <0> d           1.527   1.423   2.135  0.00  0.00     0.031 H 
ATOM     17  H4  <0> d           2.164   0.029   1.231  0.00  0.00     0.031 H 
ENDBRANCH  12  14
BRANCH  12  18
ATOM     18  O1  <0> d          -0.011   0.963   0.007  0.00  0.00    -0.391 OA
ATOM     19  H8  <0> d           0.002  -0.004   0.002  0.00  0.00     0.210 HD
ENDBRANCH  12  18
ENDBRANCH   1  12
TORSDOF 3
