REMARK  4 active torsions:
REMARK  status: ('A' for Active; 'I' for Inactive)
REMARK    1  A    between atoms: C1_1  and  C2_2 
REMARK    2  A    between atoms: C2_2  and  C3_3 
REMARK    3  A    between atoms: C2_2  and  C4_4 
REMARK    4  A    between atoms: C4_4  and  C5_5 
ROOT
ATOM      1  C2  <0> d           0.002  -0.004   0.002  0.00  0.00     0.046 C 
ATOM      2  C11 <0> d           0.691  -0.479  -1.209  0.00  0.00     0.068 C 
ATOM      3  N1  <0> d           1.223  -0.845  -2.144  0.00  0.00    -0.196 NA
ENDROOT
BRANCH   1   4
ATOM      4  C1  <0> d          -0.019   1.526   0.010  0.00  0.00    -0.057 C 
ATOM      5  H1  <0> d           1.004   1.903   0.003  0.00  0.00     0.029 H 
ATOM      6  H2  <0> d          -0.546   1.887  -0.873  0.00  0.00     0.029 H 
ATOM      7  H3  <0> d          -0.529   1.877   0.907  0.00  0.00     0.029 H 
ENDBRANCH   1   4
BRANCH   1   8
ATOM      8  C3  <0> d           0.742  -0.511   1.242  0.00  0.00    -0.057 C 
ATOM      9  H4  <0> d           0.232  -0.159   2.138  0.00  0.00     0.029 H 
ATOM     10  H5  <0> d           0.757  -1.601   1.236  0.00  0.00     0.029 H 
ATOM     11  H6  <0> d           1.765  -0.134   1.234  0.00  0.00     0.029 H 
ENDBRANCH   1   8
BRANCH   1  12
ATOM     12  C4  <0> d          -1.433  -0.534   0.013  0.00  0.00    -0.022 C 
ATOM     13  H7  <0> d          -1.960  -0.173  -0.870  0.00  0.00     0.042 H 
ATOM     14  H8  <0> d          -1.419  -1.623   0.007  0.00  0.00     0.042 H 
BRANCH  12  15
ATOM     15  C5  <0> d          -2.139  -0.048   1.253  0.00  0.00    -0.057 A 
ATOM     16  C10 <0> d          -2.827   1.151   1.232  0.00  0.00    -0.077 A 
ATOM     17  C9  <0> d          -3.477   1.595   2.368  0.00  0.00    -0.082 A 
ATOM     18  H13 <0> d          -2.859   1.739   0.326  0.00  0.00     0.084 H 
ATOM     19  C8  <0> d          -3.432   0.844   3.527  0.00  0.00    -0.083 A 
ATOM     20  H12 <0> d          -4.019   2.529   2.350  0.00  0.00     0.083 H 
ATOM     21  C7  <0> d          -2.740  -0.352   3.550  0.00  0.00    -0.082 A 
ATOM     22  H11 <0> d          -3.938   1.192   4.416  0.00  0.00     0.083 H 
ATOM     23  C6  <0> d          -2.093  -0.798   2.413  0.00  0.00    -0.077 A 
ATOM     24  H10 <0> d          -2.705  -0.939   4.456  0.00  0.00     0.083 H 
ATOM     25  H9  <0> d          -1.552  -1.732   2.431  0.00  0.00     0.084 H 
ENDBRANCH  12  15
ENDBRANCH   1  12
TORSDOF 4
