REMARK  2 active torsions:
REMARK  status: ('A' for Active; 'I' for Inactive)
REMARK    1  A    between atoms: C4_5  and  C5_7 
REMARK    2  A    between atoms: C5_7  and  C6_8 
ROOT
ATOM      1  C1  <0> d          -0.062   1.094  -2.530  0.00  0.00    -0.040 C 
ATOM      2  C2  <0> d          -1.262   1.064  -3.509  0.00  0.00     0.020 C 
ATOM      3  O1  <0> d          -2.382   0.637  -2.716  0.00  0.00    -0.391 OA
ATOM      4  C3  <0> d          -2.152   0.949  -1.337  0.00  0.00     0.023 C 
ATOM      5  C4  <0> d          -0.753   1.593  -1.232  0.00  0.00    -0.022 C 
ATOM      6  H1  <0> d          -0.826   2.680  -1.220  0.00  0.00     0.044 H 
ATOM      7  H2  <0> d           0.700   1.798  -2.865  0.00  0.00     0.036 H 
ATOM      8  H3  <0> d           0.359   0.098  -2.394  0.00  0.00     0.036 H 
ATOM      9  H4  <0> d          -1.076   0.353  -4.314  0.00  0.00     0.074 H 
ATOM     10  H5  <0> d          -1.444   2.059  -3.916  0.00  0.00     0.074 H 
ATOM     11  H6  <0> d          -2.186   0.037  -0.742  0.00  0.00     0.074 H 
ATOM     12  H7  <0> d          -2.909   1.649  -0.984  0.00  0.00     0.074 H 
ENDROOT
BRANCH   5  13
ATOM     13  C5  <0> d          -0.013   1.086   0.008  0.00  0.00     0.021 C 
ATOM     14  H8  <0> d           0.002  -0.004   0.002  0.00  0.00     0.049 H 
ATOM     15  H9  <0> d           1.010   1.463   0.000  0.00  0.00     0.049 H 
BRANCH  13  16
ATOM     16  C6  <0> d          -0.718   1.572   1.248  0.00  0.00     0.172 C 
ATOM     17  O2  <0> d          -1.711   2.254   1.150  0.00  0.00    -0.648 OA
ATOM     18  O3  <0> d          -0.243   1.247   2.461  0.00  0.00    -0.648 OA
ENDBRANCH  13  16
ENDBRANCH   5  13
TORSDOF 2
