REMARK  9 active torsions:
REMARK  status: ('A' for Active; 'I' for Inactive)
REMARK    1  A    between atoms: C1_1  and  C2_2 
REMARK    2  A    between atoms: C2_2  and  C3_3 
REMARK    3  A    between atoms: C3_3  and  C4_4 
REMARK    4  A    between atoms: C4_4  and  C5_5 
REMARK    5  A    between atoms: C5_5  and  C6_6 
REMARK    6  A    between atoms: C6_6  and  O1_7 
REMARK    7  A    between atoms: C6_6  and  O2_9 
REMARK    8  A    between atoms: O1_7  and  C7_8 
REMARK    9  A    between atoms: O2_9  and  C8_10 
ROOT
ATOM      1  C5  <0> d          -1.141   1.701   1.155  0.00  0.00    -0.019 C 
ATOM      2  H10 <0> d          -0.980   2.759   0.950  0.00  0.00     0.040 H 
ATOM      3  H11 <0> d          -2.177   1.442   0.939  0.00  0.00     0.040 H 
ENDROOT
BRANCH   1   4
ATOM      4  C4  <0> d          -0.840   1.416   2.628  0.00  0.00    -0.061 C 
ATOM      5  H8  <0> d          -1.000   0.358   2.834  0.00  0.00     0.033 H 
ATOM      6  H9  <0> d           0.196   1.675   2.844  0.00  0.00     0.033 H 
BRANCH   4   7
ATOM      7  C3  <0> d          -1.769   2.253   3.510  0.00  0.00    -0.065 C 
ATOM      8  H6  <0> d          -1.609   3.312   3.304  0.00  0.00     0.033 H 
ATOM      9  H7  <0> d          -2.806   1.994   3.293  0.00  0.00     0.033 H 
BRANCH   7  10
ATOM     10  C2  <0> d          -1.469   1.968   4.982  0.00  0.00    -0.069 C 
ATOM     11  H4  <0> d          -1.629   0.910   5.188  0.00  0.00     0.032 H 
ATOM     12  H5  <0> d          -0.432   2.228   5.198  0.00  0.00     0.032 H 
BRANCH  10  13
ATOM     13  C1  <0> d          -2.398   2.805   5.864  0.00  0.00    -0.077 C 
ATOM     14  H1  <0> d          -2.238   3.864   5.658  0.00  0.00     0.027 H 
ATOM     15  H2  <0> d          -3.434   2.546   5.648  0.00  0.00     0.027 H 
ATOM     16  H3  <0> d          -2.184   2.603   6.913  0.00  0.00     0.027 H 
ENDBRANCH  10  13
ENDBRANCH   7  10
ENDBRANCH   4   7
ENDBRANCH   1   4
BRANCH   1  17
ATOM     17  C6  <0> d          -0.211   0.864   0.274  0.00  0.00     0.130 C 
ATOM     18  H12 <0> d          -0.307  -0.189   0.542  0.00  0.00     0.128 H 
BRANCH  17  19
ATOM     19  O1  <0> d           1.140   1.284   0.472  0.00  0.00    -0.366 OA
BRANCH  19  20
ATOM     20  C7  <0> d           2.114   0.330   0.046  0.00  0.00     0.007 C 
ATOM     21  H13 <0> d           1.861  -0.651   0.446  0.00  0.00     0.066 H 
ATOM     22  H14 <0> d           2.127   0.286  -1.043  0.00  0.00     0.066 H 
ATOM     23  H15 <0> d           3.098   0.628   0.409  0.00  0.00     0.066 H 
ENDBRANCH  19  20
ENDBRANCH  17  19
BRANCH  17  24
ATOM     24  O2  <0> d          -0.569   1.041  -1.098  0.00  0.00    -0.366 OA
BRANCH  24  25
ATOM     25  C8  <0> d          -0.021   0.053  -1.974  0.00  0.00     0.007 C 
ATOM     26  H16 <0> d          -0.083  -0.927  -1.500  0.00  0.00     0.066 H 
ATOM     27  H17 <0> d          -0.584   0.042  -2.907  0.00  0.00     0.066 H 
ATOM     28  H18 <0> d           1.022   0.291  -2.182  0.00  0.00     0.066 H 
ENDBRANCH  24  25
ENDBRANCH  17  24
ENDBRANCH   1  17
TORSDOF 9
