REMARK  4 active torsions:
REMARK  status: ('A' for Active; 'I' for Inactive)
REMARK    1  A    between atoms: C1_1  and  C2_2 
REMARK    2  A    between atoms: C4_4  and  C5_7 
REMARK    3  A    between atoms: C5_7  and  O2_8 
REMARK    4  A    between atoms: O2_8  and  C6_9 
ROOT
ATOM      1  C2  <0> d           1.089   1.961   0.002  0.00  0.00     0.060 A 
ATOM      2  C3  <0> d          -0.013   1.076   0.008  0.00  0.00    -0.025 A 
ATOM      3  C4  <0> d          -1.091   1.895   0.017  0.00  0.00     0.104 A 
ATOM      4  O1  <0> d          -0.615   3.148   0.024  0.00  0.00    -0.215 OA
ATOM      5  N1  <0> d           0.594   3.165   0.013  0.00  0.00    -0.133 NA
ATOM      6  H4  <0> d           0.002  -0.004   0.002  0.00  0.00     0.090 H 
ENDROOT
BRANCH   3   7
ATOM      7  C5  <0> d          -2.540   1.480   0.020  0.00  0.00     0.065 C 
ATOM      8  H5  <0> d          -3.136   2.238  -0.487  0.00  0.00     0.084 H 
ATOM      9  H6  <0> d          -2.646   0.527  -0.498  0.00  0.00     0.084 H 
BRANCH   7  10
ATOM     10  O2  <0> d          -2.992   1.341   1.369  0.00  0.00    -0.389 OA
BRANCH  10  11
ATOM     11  C6  <0> d          -4.361   0.948   1.485  0.00  0.00     0.004 C 
ATOM     12  H7  <0> d          -4.995   1.696   1.008  0.00  0.00     0.066 H 
ATOM     13  H8  <0> d          -4.505  -0.015   0.997  0.00  0.00     0.066 H 
ATOM     14  H9  <0> d          -4.627   0.865   2.538  0.00  0.00     0.066 H 
ENDBRANCH  10  11
ENDBRANCH   7  10
ENDBRANCH   3   7
BRANCH   1  15
ATOM     15  C1  <0> d           2.549   1.586  -0.013  0.00  0.00    -0.033 C 
ATOM     16  H1  <0> d           2.892   1.501  -1.044  0.00  0.00     0.035 H 
ATOM     17  H2  <0> d           3.127   2.356   0.500  0.00  0.00     0.035 H 
ATOM     18  H3  <0> d           2.684   0.632   0.496  0.00  0.00     0.035 H 
ENDBRANCH   1  15
TORSDOF 4
