REMARK  2 active torsions:
REMARK  status: ('A' for Active; 'I' for Inactive)
REMARK    1  A    between atoms: C3_3  and  C6_8 
REMARK    2  A    between atoms: C6_8  and  O1_9 
ROOT
ATOM      1  C1  <0> d          -0.013   1.076   0.008  0.00  0.00    -0.065 A 
ATOM      2  C2  <0> d          -1.219   1.761   0.017  0.00  0.00    -0.069 A 
ATOM      3  C3  <0> d          -1.191   3.146   0.029  0.00  0.00     0.023 A 
ATOM      4  C4  <0> d           0.033   3.796   0.021  0.00  0.00     0.218 A 
ATOM      5  N1  <0> d           1.161   3.110   0.007  0.00  0.00    -0.232 NA
ATOM      6  C5  <0> d           1.169   1.790   0.001  0.00  0.00     0.005 A 
ATOM      7  F1  <0> d           0.072   5.147   0.027  0.00  0.00    -0.184 F 
ATOM      8  H1  <0> d           0.002  -0.004   0.002  0.00  0.00     0.085 H 
ATOM      9  H2  <0> d          -2.158   1.228   0.019  0.00  0.00     0.084 H 
ATOM     10  H3  <0> d           2.111   1.263  -0.011  0.00  0.00     0.114 H 
ENDROOT
BRANCH   3  11
ATOM     11  C6  <0> d          -2.474   3.935   0.045  0.00  0.00     0.045 C 
ATOM     12  H4  <0> d          -2.506   4.559   0.938  0.00  0.00     0.081 H 
ATOM     13  H5  <0> d          -2.523   4.567  -0.842  0.00  0.00     0.081 H 
BRANCH  11  14
ATOM     14  O1  <0> d          -3.586   3.037   0.051  0.00  0.00    -0.396 OA
ATOM     15  H6  <0> d          -4.447   3.477   0.061  0.00  0.00     0.209 HD
ENDBRANCH  11  14
ENDBRANCH   3  11
TORSDOF 2
