REMARK  5 active torsions:
REMARK  status: ('A' for Active; 'I' for Inactive)
REMARK    1  A    between atoms: C1_1  and  C2_2 
REMARK    2  A    between atoms: C5_5  and  O1_11 
REMARK    3  A    between atoms: C6_6  and  C8_8 
REMARK    4  A    between atoms: C8_8  and  C9_9 
REMARK    5  A    between atoms: C8_8  and  C10_10 
ROOT
ATOM      1  C2  <0> d           0.039  -2.770  -0.013  0.00  0.00    -0.061 A 
ATOM      2  C3  <0> d           0.042  -2.086   1.189  0.00  0.00    -0.075 A 
ATOM      3  C4  <0> d           0.023  -0.705   1.199  0.00  0.00    -0.050 A 
ATOM      4  C5  <0> d           0.002  -0.004   0.002  0.00  0.00     0.072 A 
ATOM      5  C6  <0> d          -0.006  -0.692  -1.202  0.00  0.00    -0.021 A 
ATOM      6  C7  <0> d           0.018  -2.074  -1.207  0.00  0.00    -0.068 A 
ATOM      7  H4  <0> d           0.058  -2.633   2.120  0.00  0.00     0.084 H 
ATOM      8  H5  <0> d           0.024  -0.172   2.138  0.00  0.00     0.087 H 
ATOM      9  H6  <0> d           0.016  -2.610  -2.145  0.00  0.00     0.085 H 
ENDROOT
BRANCH   5  10
ATOM     10  C8  <0> d          -0.035   0.066  -2.504  0.00  0.00    -0.033 C 
ATOM     11  H7  <0> d          -0.046   1.137  -2.301  0.00  0.00     0.046 H 
BRANCH  10  12
ATOM     12  C9  <0> d           1.208  -0.283  -3.326  0.00  0.00    -0.069 C 
ATOM     13  H8  <0> d           1.220  -1.354  -3.529  0.00  0.00     0.028 H 
ATOM     14  H9  <0> d           1.187   0.265  -4.267  0.00  0.00     0.028 H 
ATOM     15  H10 <0> d           2.102  -0.010  -2.766  0.00  0.00     0.028 H 
ENDBRANCH  10  12
BRANCH  10  16
ATOM     16  C10 <0> d          -1.290  -0.318  -3.290  0.00  0.00    -0.069 C 
ATOM     17  H11 <0> d          -1.278  -1.388  -3.494  0.00  0.00     0.028 H 
ATOM     18  H12 <0> d          -2.175  -0.069  -2.705  0.00  0.00     0.028 H 
ATOM     19  H13 <0> d          -1.311   0.231  -4.232  0.00  0.00     0.028 H 
ENDBRANCH  10  16
ENDBRANCH   5  10
BRANCH   4  20
ATOM     20  O1  <0> d          -0.016   1.355   0.009  0.00  0.00    -0.360 OA
ATOM     21  H14 <0> d           0.862   1.760   0.003  0.00  0.00     0.217 HD
ENDBRANCH   4  20
BRANCH   1  22
ATOM     22  C1  <0> d           0.059  -4.277  -0.021  0.00  0.00    -0.051 C 
ATOM     23  H1  <0> d          -0.964  -4.654  -0.014  0.00  0.00     0.033 H 
ATOM     24  H2  <0> d           0.569  -4.629  -0.918  0.00  0.00     0.033 H 
ATOM     25  H3  <0> d           0.586  -4.638   0.862  0.00  0.00     0.033 H 
ENDBRANCH   1  22
TORSDOF 5
