REMARK  1 active torsions:
REMARK  status: ('A' for Active; 'I' for Inactive)
REMARK    1  A    between atoms: C3_3  and  N2_10 
ROOT
ATOM      1  C1  <0> d          -0.016   1.357   0.009  0.00  0.00    -0.079 A 
ATOM      2  C2  <0> d           1.155   2.101   0.002  0.00  0.00    -0.056 A 
ATOM      3  C3  <0> d           2.379   1.446  -0.013  0.00  0.00     0.045 A 
ATOM      4  C4  <0> d           2.405   0.067  -0.021  0.00  0.00     0.061 A 
ATOM      5  C5  <0> d           1.226  -0.709  -0.013  0.00  0.00     0.076 A 
ATOM      6  C6  <0> d           0.002  -0.004   0.002  0.00  0.00    -0.054 A 
ATOM      7  N1  <0> d           1.458  -2.037  -0.023  0.00  0.00    -0.253 NA
ATOM      8  C7  <0> d           2.663  -2.530  -0.038  0.00  0.00     0.041 A 
ATOM      9  S1  <0> d           3.667  -1.179  -0.040  0.00  0.00    -0.078 SA
ATOM     10  H1  <0> d          -0.966   1.870   0.026  0.00  0.00     0.083 H 
ATOM     11  H2  <0> d           1.114   3.180   0.008  0.00  0.00     0.086 H 
ATOM     12  H3  <0> d          -0.929  -0.551   0.008  0.00  0.00     0.087 H 
ATOM     13  H4  <0> d           2.953  -3.571  -0.047  0.00  0.00     0.126 H 
ENDROOT
BRANCH   3  14
ATOM     14  N2  <0> d           3.571   2.176  -0.021  0.00  0.00    -0.398 N 
ATOM     15  H5  <0> d           3.547   3.146  -0.016  0.00  0.00     0.156 HD
ATOM     16  H6  <0> d           4.424   1.713  -0.031  0.00  0.00     0.156 HD
ENDBRANCH   3  14
TORSDOF 1
