REMARK  4 active torsions:
REMARK  status: ('A' for Active; 'I' for Inactive)
REMARK    1  A    between atoms: C1_1  and  C2_2 
REMARK    2  A    between atoms: C2_2  and  O1_3 
REMARK    3  A    between atoms: O1_3  and  C3_4 
REMARK    4  A    between atoms: C5_6  and  C6_9 
ROOT
ATOM      1  C3  <0> d           1.092   1.966   0.002  0.00  0.00     0.194 A 
ATOM      2  C4  <0> d          -0.013   1.076   0.008  0.00  0.00     0.012 A 
ATOM      3  C5  <0> d          -1.100   1.905   0.017  0.00  0.00     0.181 A 
ATOM      4  O2  <0> d          -0.615   3.161   0.024  0.00  0.00    -0.204 OA
ATOM      5  N1  <0> d           0.594   3.173   0.013  0.00  0.00    -0.102 NA
ATOM      6  H6  <0> d           0.002  -0.004   0.002  0.00  0.00     0.095 H 
ENDROOT
BRANCH   1   7
ATOM      7  O1  <0> d           2.407   1.630  -0.011  0.00  0.00    -0.333 OA
BRANCH   7   8
ATOM      8  C2  <0> d           3.351   2.703  -0.015  0.00  0.00     0.024 C 
ATOM      9  H4  <0> d           3.212   3.317   0.888  0.00  0.00     0.074 H 
ATOM     10  H5  <0> d           3.196   3.325  -0.908  0.00  0.00     0.074 H 
BRANCH   8  11
ATOM     11  C1  <0> d           4.770   2.133  -0.030  0.00  0.00    -0.056 C 
ATOM     12  H1  <0> d           5.497   2.959  -0.033  0.00  0.00     0.030 H 
ATOM     13  H2  <0> d           4.910   1.519  -0.932  0.00  0.00     0.030 H 
ATOM     14  H3  <0> d           4.926   1.511   0.864  0.00  0.00     0.030 H 
ENDBRANCH   8  11
ENDBRANCH   7   8
ENDBRANCH   1   7
BRANCH   3  15
ATOM     15  C6  <0> d          -2.518   1.504   0.021  0.00  0.00     0.236 C 
ATOM     16  O3  <0> d          -2.817   0.326   0.016  0.00  0.00    -0.642 OA
ATOM     17  O4  <0> d          -3.484   2.443   0.029  0.00  0.00    -0.642 OA
ENDBRANCH   3  15
TORSDOF 4
