REMARK  5 active torsions:
REMARK  status: ('A' for Active; 'I' for Inactive)
REMARK    1  A    between atoms: C1_1  and  C2_2 
REMARK    2  A    between atoms: C2_2  and  C3_3 
REMARK    3  A    between atoms: C2_2  and  C4_4 
REMARK    4  A    between atoms: C2_2  and  C5_5 
REMARK    5  A    between atoms: C7_8  and  N3_11 
ROOT
ATOM      1  C2  <0> d           0.002  -0.004   0.002  0.00  0.00     0.011 C 
ENDROOT
BRANCH   1   2
ATOM      2  C1  <0> d          -0.019   1.526   0.010  0.00  0.00    -0.063 C 
ATOM      3  H1  <0> d           1.004   1.903   0.003  0.00  0.00     0.029 H 
ATOM      4  H2  <0> d          -0.546   1.887  -0.873  0.00  0.00     0.029 H 
ATOM      5  H3  <0> d          -0.529   1.877   0.907  0.00  0.00     0.029 H 
ENDBRANCH   1   2
BRANCH   1   6
ATOM      6  C3  <0> d           0.742  -0.511   1.242  0.00  0.00    -0.063 C 
ATOM      7  H4  <0> d           0.232  -0.159   2.138  0.00  0.00     0.029 H 
ATOM      8  H5  <0> d           0.757  -1.601   1.236  0.00  0.00     0.029 H 
ATOM      9  H6  <0> d           1.765  -0.134   1.234  0.00  0.00     0.029 H 
ENDBRANCH   1   6
BRANCH   1  10
ATOM     10  C4  <0> d          -1.433  -0.534   0.013  0.00  0.00    -0.063 C 
ATOM     11  H7  <0> d          -1.960  -0.173  -0.870  0.00  0.00     0.029 H 
ATOM     12  H8  <0> d          -1.419  -1.623   0.007  0.00  0.00     0.029 H 
ATOM     13  H9  <0> d          -1.944  -0.182   0.910  0.00  0.00     0.029 H 
ENDBRANCH   1  10
BRANCH   1  14
ATOM     14  C5  <0> d           0.707  -0.490  -1.238  0.00  0.00     0.133 A 
ATOM     15  N2  <0> d           1.963  -0.142  -1.438  0.00  0.00    -0.243 NA
ATOM     16  C8  <0> d           2.619  -0.552  -2.510  0.00  0.00     0.031 A 
ATOM     17  C7  <0> d           1.960  -1.353  -3.440  0.00  0.00     0.061 A 
ATOM     18  H11 <0> d           3.649  -0.267  -2.665  0.00  0.00     0.118 H 
ATOM     19  C6  <0> d           0.632  -1.693  -3.193  0.00  0.00     0.031 A 
ATOM     20  N1  <0> d           0.049  -1.246  -2.093  0.00  0.00    -0.243 NA
ATOM     21  H10 <0> d           0.087  -2.313  -3.889  0.00  0.00     0.118 H 
BRANCH  17  22
ATOM     22  N3  <0> d           2.614  -1.804  -4.589  0.00  0.00    -0.397 N 
ATOM     23  H12 <0> d           2.143  -2.362  -5.228  0.00  0.00     0.156 HD
ATOM     24  H13 <0> d           3.539  -1.560  -4.748  0.00  0.00     0.156 HD
ENDBRANCH  17  22
ENDBRANCH   1  14
TORSDOF 5
