REMARK  3 active torsions:
REMARK  status: ('A' for Active; 'I' for Inactive)
REMARK    1  A    between atoms: C1_1  and  C2_2 
REMARK    2  A    between atoms: C4_5  and  C7_10 
REMARK    3  A    between atoms: C4_5  and  C8_11 
ROOT
ATOM      1  C2  <0> d          -1.317   2.922  -0.986  0.00  0.00     0.045 C 
ATOM      2  H1  <0> d          -1.353   2.467  -1.976  0.00  0.00     0.083 H 
ATOM      3  C3  <0> d          -0.116   3.867  -0.901  0.00  0.00    -0.034 C 
ATOM      4  C4  <0> d           1.175   3.066  -1.098  0.00  0.00    -0.037 C 
ATOM      5  C5  <0> d           1.272   2.000   0.001  0.00  0.00     0.022 C 
ATOM      6  C6  <0> d          -0.014   1.204   0.009  0.00  0.00     0.259 C 
ATOM      7  O1  <0> d           0.002  -0.004   0.002  0.00  0.00    -0.265 OA
ATOM      8  O2  <0> d          -1.181   1.882   0.018  0.00  0.00    -0.316 OA
ATOM      9  H5  <0> d          -0.100   4.348   0.077  0.00  0.00     0.037 H 
ATOM     10  H6  <0> d          -0.194   4.627  -1.679  0.00  0.00     0.037 H 
ATOM     11  H7  <0> d           1.412   2.482   0.968  0.00  0.00     0.049 H 
ATOM     12  H8  <0> d           2.113   1.337  -0.204  0.00  0.00     0.049 H 
ENDROOT
BRANCH   4  13
ATOM     13  C7  <0> d           2.380   4.005  -1.008  0.00  0.00    -0.069 C 
ATOM     14  H9  <0> d           3.297   3.432  -1.139  0.00  0.00     0.028 H 
ATOM     15  H10 <0> d           2.309   4.762  -1.789  0.00  0.00     0.028 H 
ATOM     16  H11 <0> d           2.390   4.490  -0.032  0.00  0.00     0.028 H 
ENDBRANCH   4  13
BRANCH   4  17
ATOM     17  C8  <0> d           1.153   2.388  -2.469  0.00  0.00    -0.069 C 
ATOM     18  H12 <0> d           0.291   1.723  -2.532  0.00  0.00     0.028 H 
ATOM     19  H13 <0> d           1.084   3.146  -3.248  0.00  0.00     0.028 H 
ATOM     20  H14 <0> d           2.068   1.810  -2.604  0.00  0.00     0.028 H 
ENDBRANCH   4  17
BRANCH   1  21
ATOM     21  C1  <0> d          -2.606   3.710  -0.739  0.00  0.00    -0.052 C 
ATOM     22  H2  <0> d          -2.704   4.491  -1.493  0.00  0.00     0.030 H 
ATOM     23  H3  <0> d          -3.461   3.036  -0.800  0.00  0.00     0.030 H 
ATOM     24  H4  <0> d          -2.570   4.163   0.252  0.00  0.00     0.030 H 
ENDBRANCH   1  21
TORSDOF 3
