REMARK  1 active torsions:
REMARK  status: ('A' for Active; 'I' for Inactive)
REMARK    1  A    between atoms: C5_5  and  N3_11 
ROOT
ATOM      1  C1  <0> d           1.195  -0.722  -0.014  0.00  0.00    -0.065 A 
ATOM      2  C2  <0> d           2.389  -0.057  -0.021  0.00  0.00    -0.068 A 
ATOM      3  C3  <0> d           2.364   1.349  -0.013  0.00  0.00     0.014 A 
ATOM      4  C4  <0> d           3.550   2.103  -0.021  0.00  0.00    -0.043 A 
ATOM      5  C5  <0> d           3.444   3.481  -0.013  0.00  0.00     0.044 A 
ATOM      6  C6  <0> d           2.176   4.074   0.003  0.00  0.00     0.030 A 
ATOM      7  N1  <0> d           1.080   3.357   0.010  0.00  0.00    -0.238 NA
ATOM      8  C7  <0> d           1.115   2.020   0.002  0.00  0.00     0.159 A 
ATOM      9  N2  <0> d          -0.016   1.307   0.009  0.00  0.00    -0.241 NA
ATOM     10  C8  <0> d           0.002  -0.004   0.002  0.00  0.00     0.005 A 
ATOM     11  H1  <0> d           1.177  -1.802  -0.020  0.00  0.00     0.085 H 
ATOM     12  H2  <0> d           3.325  -0.596  -0.033  0.00  0.00     0.085 H 
ATOM     13  H3  <0> d           4.516   1.619  -0.033  0.00  0.00     0.088 H 
ATOM     14  H4  <0> d           2.099   5.152   0.009  0.00  0.00     0.118 H 
ATOM     15  H5  <0> d          -0.934  -0.542   0.008  0.00  0.00     0.114 H 
ENDROOT
BRANCH   5  16
ATOM     16  N3  <0> d           4.593   4.275  -0.019  0.00  0.00    -0.398 N 
ATOM     17  H6  <0> d           4.503   5.372  -0.012  0.00  0.00     0.156 HD
ATOM     18  H7  <0> d           5.587   3.805  -0.031  0.00  0.00     0.156 HD
ENDBRANCH   5  16
TORSDOF 1
