REMARK  4 active torsions:
REMARK  status: ('A' for Active; 'I' for Inactive)
REMARK    1  A    between atoms: C1_1  and  C2_2 
REMARK    2  A    between atoms: C2_2  and  O1_3 
REMARK    3  A    between atoms: O1_3  and  C3_4 
REMARK    4  A    between atoms: C3_4  and  C4_6 
ROOT
ATOM      1  C4  <0> d          -0.019   1.526   0.010  0.00  0.00     0.047 A 
ATOM      2  H1  <0> d          -0.325   2.030  -0.906  0.00  0.00     0.057 H 
ATOM      3  C5  <0> d           0.002  -0.004   0.002  0.00  0.00    -0.036 A 
ATOM      4  C6  <0> d           1.317   0.779  -0.006  0.00  0.00     0.043 A 
ATOM      5  H2  <0> d           1.889   0.792  -0.934  0.00  0.00     0.064 H 
ATOM      6  C7  <0> d           2.113   0.783   1.232  0.00  0.00     0.065 C 
ATOM      7  N1  <0> d           2.728   0.786   2.187  0.00  0.00    -0.197 NA
ATOM      8  H8  <0> d          -0.273  -0.516   0.924  0.00  0.00     0.036 H 
ATOM      9  H9  <0> d          -0.290  -0.506  -0.920  0.00  0.00     0.036 H 
ENDROOT
BRANCH   1  10
ATOM     10  C3  <0> d          -0.418   2.209   1.293  0.00  0.00     0.264 C 
ATOM     11  O2  <0> d           0.308   2.154   2.258  0.00  0.00    -0.265 OA
BRANCH  10  12
ATOM     12  O1  <0> d          -1.579   2.879   1.363  0.00  0.00    -0.322 OA
BRANCH  12  13
ATOM     13  C2  <0> d          -1.898   3.513   2.630  0.00  0.00     0.025 C 
ATOM     14  H6  <0> d          -1.949   2.756   3.413  0.00  0.00     0.074 H 
ATOM     15  H7  <0> d          -1.125   4.240   2.878  0.00  0.00     0.074 H 
BRANCH  13  16
ATOM     16  C1  <0> d          -3.249   4.223   2.519  0.00  0.00    -0.056 C 
ATOM     17  H3  <0> d          -3.489   4.698   3.470  0.00  0.00     0.030 H 
ATOM     18  H4  <0> d          -3.198   4.980   1.736  0.00  0.00     0.030 H 
ATOM     19  H5  <0> d          -4.022   3.495   2.271  0.00  0.00     0.030 H 
ENDBRANCH  13  16
ENDBRANCH  12  13
ENDBRANCH  10  12
ENDBRANCH   1  10
TORSDOF 4
