REMARK  1 active torsions:
REMARK  status: ('A' for Active; 'I' for Inactive)
REMARK    1  A    between atoms: C9_9  and  O1_12 
ROOT
ATOM      1  C1  <0> d          -0.187   4.269   0.034  0.00  0.00    -0.082 A 
ATOM      2  C2  <0> d          -1.342   3.509   0.038  0.00  0.00    -0.082 A 
ATOM      3  C3  <0> d          -1.256   2.132   0.032  0.00  0.00    -0.076 A 
ATOM      4  C4  <0> d          -0.018   1.502   0.010  0.00  0.00    -0.049 A 
ATOM      5  C5  <0> d           1.131   2.259   0.003  0.00  0.00    -0.052 A 
ATOM      6  C6  <0> d           1.043   3.645   0.018  0.00  0.00    -0.076 A 
ATOM      7  C7  <0> d           2.507   1.644  -0.022  0.00  0.00    -0.038 C 
ATOM      8  C8  <0> d           2.446   0.176   0.393  0.00  0.00    -0.037 C 
ATOM      9  C9  <0> d           1.368  -0.520  -0.446  0.00  0.00     0.039 C 
ATOM     10  H1  <0> d           1.519  -0.292  -1.501  0.00  0.00     0.083 H 
ATOM     11  C10 <0> d           0.002  -0.004   0.002  0.00  0.00    -0.017 C 
ATOM     12  H2  <0> d          -0.248   5.347   0.045  0.00  0.00     0.083 H 
ATOM     13  H3  <0> d          -2.309   3.991   0.049  0.00  0.00     0.083 H 
ATOM     14  H4  <0> d          -2.159   1.539   0.038  0.00  0.00     0.084 H 
ATOM     15  H5  <0> d           1.944   4.239   0.015  0.00  0.00     0.084 H 
ATOM     16  H6  <0> d           3.155   2.186   0.666  0.00  0.00     0.040 H 
ATOM     17  H7  <0> d           2.913   1.716  -1.031  0.00  0.00     0.040 H 
ATOM     18  H8  <0> d           2.192   0.104   1.451  0.00  0.00     0.037 H 
ATOM     19  H9  <0> d           3.412  -0.296   0.214  0.00  0.00     0.037 H 
ATOM     20  H10 <0> d          -0.210  -0.372   1.006  0.00  0.00     0.043 H 
ATOM     21  H11 <0> d          -0.762  -0.370  -0.684  0.00  0.00     0.043 H 
ENDROOT
BRANCH   9  22
ATOM     22  O1  <0> d           1.439  -1.933  -0.244  0.00  0.00    -0.395 OA
ATOM     23  H12 <0> d           0.772  -2.434  -0.733  0.00  0.00     0.210 HD
ENDBRANCH   9  22
TORSDOF 1
