REMARK  1 active torsions:
REMARK  status: ('A' for Active; 'I' for Inactive)
REMARK    1  A    between atoms: C1_1  and  C2_2 
ROOT
ATOM      1  C2  <0> d          -1.199   3.803   0.034  0.00  0.00    -0.002 A 
ATOM      2  C3  <0> d          -1.228   2.418   0.021  0.00  0.00    -0.050 A 
ATOM      3  C4  <0> d          -0.021   1.732   0.012  0.00  0.00     0.052 A 
ATOM      4  C5  <0> d           1.161   2.448   0.004  0.00  0.00     0.026 A 
ATOM      5  N1  <0> d           1.152   3.767   0.011  0.00  0.00    -0.231 NA
ATOM      6  C6  <0> d           0.024   4.453   0.026  0.00  0.00     0.215 A 
ATOM      7  F1  <0> d           0.063   5.803   0.033  0.00  0.00    -0.184 F 
ATOM      8 Cl1  <0> d           0.002  -0.004   0.002  0.00  0.00    -0.083 Cl
ATOM      9  H4  <0> d          -2.167   1.884   0.022  0.00  0.00     0.087 H 
ATOM     10  H5  <0> d           2.104   1.921  -0.007  0.00  0.00     0.117 H 
ENDROOT
BRANCH   1  11
ATOM     11  C1  <0> d          -2.483   4.593   0.051  0.00  0.00    -0.047 C 
ATOM     12  H1  <0> d          -2.802   4.789  -0.973  0.00  0.00     0.033 H 
ATOM     13  H2  <0> d          -3.254   4.022   0.569  0.00  0.00     0.033 H 
ATOM     14  H3  <0> d          -2.321   5.538   0.568  0.00  0.00     0.033 H 
ENDBRANCH   1  11
TORSDOF 1
