REMARK  1 active torsions:
REMARK  status: ('A' for Active; 'I' for Inactive)
REMARK    1  A    between atoms: C3_4  and  N4_9 
ROOT
ATOM      1  C1  <0> d          -0.017   1.393   0.010  0.00  0.00    -0.027 A 
ATOM      2  C2  <0> d           1.193   2.069   0.002  0.00  0.00     0.024 A 
ATOM      3  N1  <0> d           2.320   1.378  -0.013  0.00  0.00    -0.075 NA
ATOM      4  C3  <0> d           2.308   0.052  -0.020  0.00  0.00     0.721 A 
ATOM      5  N2  <0> d           1.176  -0.633  -0.013  0.00  0.00    -0.052 NA
ATOM      6  C4  <0> d           0.002  -0.004   0.002  0.00  0.00     0.157 A 
ATOM      7  C5  <0> d          -1.222  -0.748   0.010  0.00  0.00     0.120 C 
ATOM      8  N3  <0> d          -2.192  -1.338   0.017  0.00  0.00    -0.190 NA
ATOM      9  H1  <0> d          -0.952   1.933   0.026  0.00  0.00     0.090 H 
ATOM     10  H2  <0> d           1.215   3.149   0.007  0.00  0.00     0.115 H 
ENDROOT
BRANCH   4  11
ATOM     11  N4  <0> d           3.510  -0.633  -0.035  0.00  0.00    -0.231 N 
ATOM     12  H3  <0> d           4.347  -0.143  -0.040  0.00  0.00     0.174 HD
ATOM     13  H4  <0> d           3.516  -1.603  -0.040  0.00  0.00     0.174 HD
ENDBRANCH   4  11
TORSDOF 1
