REMARK  4 active torsions:
REMARK  status: ('A' for Active; 'I' for Inactive)
REMARK    1  A    between atoms: C1_1  and  C2_2 
REMARK    2  A    between atoms: C2_2  and  C3_3 
REMARK    3  A    between atoms: C4_4  and  N3_11 
REMARK    4  A    between atoms: C5_6  and  C7_10 
ROOT
ATOM      1  C3  <0> d           1.193   2.019   0.002  0.00  0.00     0.041 A 
ATOM      2  C4  <0> d          -0.016   1.327   0.009  0.00  0.00     0.133 A 
ATOM      3  N1  <0> d           0.002  -0.004   0.002  0.00  0.00    -0.218 NA
ATOM      4  C5  <0> d           1.142  -0.664  -0.012  0.00  0.00     0.104 A 
ATOM      5  N2  <0> d           2.305  -0.044  -0.020  0.00  0.00    -0.322 N 
ATOM      6  C6  <0> d           2.371   1.284  -0.013  0.00  0.00     0.190 A 
ATOM      7  O1  <0> d           3.572   1.913  -0.021  0.00  0.00    -0.171 OA
ATOM      8  H11 <0> d           3.238  -0.626  -0.032  0.00  0.00     0.169 HD
ENDROOT
BRANCH   1   9
ATOM      9  C2  <0> d           1.221   3.526   0.009  0.00  0.00    -0.036 C 
ATOM     10  H4  <0> d           0.325   3.912  -0.499  0.00  0.00     0.040 H 
ATOM     11  H5  <0> d           2.121   3.878  -0.516  0.00  0.00     0.040 H 
BRANCH   9  12
ATOM     12  C1  <0> d           1.244   4.028   1.454  0.00  0.00    -0.072 C 
ATOM     13  H1  <0> d           1.265   5.128   1.460  0.00  0.00     0.028 H 
ATOM     14  H2  <0> d           2.140   3.642   1.962  0.00  0.00     0.028 H 
ATOM     15  H3  <0> d           0.344   3.675   1.980  0.00  0.00     0.028 H 
ENDBRANCH   9  12
ENDBRANCH   1   9
BRANCH   2  16
ATOM     16  N3  <0> d          -1.220   2.014   0.019  0.00  0.00    -0.383 N 
ATOM     17  H9  <0> d          -2.170   1.459   0.025  0.00  0.00     0.157 HD
ATOM     18  H10 <0> d          -1.225   3.114   0.020  0.00  0.00     0.157 HD
ENDBRANCH   2  16
BRANCH   4  19
ATOM     19  C7  <0> d           1.116  -2.171  -0.020  0.00  0.00    -0.021 C 
ATOM     20  H6  <0> d           2.147  -2.555  -0.032  0.00  0.00     0.037 H 
ATOM     21  H7  <0> d           0.583  -2.523  -0.915  0.00  0.00     0.037 H 
ATOM     22  H8  <0> d           0.600  -2.533   0.881  0.00  0.00     0.037 H 
ENDBRANCH   4  19
TORSDOF 4
