REMARK  4 active torsions:
REMARK  status: ('A' for Active; 'I' for Inactive)
REMARK    1  A    between atoms: C1_1  and  C2_2 
REMARK    2  A    between atoms: C2_2  and  C3_4 
REMARK    3  A    between atoms: C2_2  and  O1_11 
REMARK    4  A    between atoms: C8_9  and  N1_10 
ROOT
ATOM      1  C3  <0> d           1.161   3.163   0.008  0.00  0.00    -0.004 A 
ATOM      2  C4  <0> d           1.176   1.782   0.000  0.00  0.00    -0.072 A 
ATOM      3  C5  <0> d          -0.013   1.076   0.008  0.00  0.00    -0.082 A 
ATOM      4  C6  <0> d          -1.220   1.749   0.017  0.00  0.00    -0.081 A 
ATOM      5  C7  <0> d          -1.243   3.130   0.031  0.00  0.00    -0.057 A 
ATOM      6  C8  <0> d          -0.050   3.842   0.023  0.00  0.00     0.034 A 
ATOM      7  H5  <0> d           2.118   1.253  -0.012  0.00  0.00     0.084 H 
ATOM      8  H6  <0> d           0.002  -0.004   0.002  0.00  0.00     0.083 H 
ATOM      9  H7  <0> d          -2.147   1.195   0.018  0.00  0.00     0.083 H 
ATOM     10  H8  <0> d          -2.186   3.655   0.043  0.00  0.00     0.086 H 
ENDROOT
BRANCH   1  11
ATOM     11  C2  <0> d           2.457   3.932   0.000  0.00  0.00     0.059 C 
ATOM     12  H1  <0> d           2.346   4.838   0.596  0.00  0.00     0.090 H 
BRANCH  11  13
ATOM     13  C1  <0> d           2.819   4.308  -1.438  0.00  0.00    -0.049 C 
ATOM     14  H2  <0> d           2.027   4.926  -1.862  0.00  0.00     0.031 H 
ATOM     15  H3  <0> d           3.756   4.864  -1.444  0.00  0.00     0.031 H 
ATOM     16  H4  <0> d           2.930   3.401  -2.034  0.00  0.00     0.031 H 
ENDBRANCH  11  13
BRANCH  11  17
ATOM     17  O1  <0> d           3.495   3.121   0.556  0.00  0.00    -0.391 OA
ATOM     18  H11 <0> d           3.650   2.296   0.075  0.00  0.00     0.210 HD
ENDBRANCH  11  17
ENDBRANCH   1  11
BRANCH   6  19
ATOM     19  N1  <0> d          -0.069   5.239   0.031  0.00  0.00    -0.399 N 
ATOM     20  H9  <0> d           0.764   5.736   0.026  0.00  0.00     0.156 HD
ATOM     21  H10 <0> d          -0.916   5.713   0.042  0.00  0.00     0.156 HD
ENDBRANCH   6  19
TORSDOF 4
