REMARK  0 active torsions:
REMARK  status: ('A' for Active; 'I' for Inactive)
ROOT
ATOM      1  C1  <0> d           0.002  -0.004   0.002  0.00  0.00     0.118 C 
ATOM      2  N1  <0> d           0.018  -1.140  -0.004  0.00  0.00    -0.193 NA
ATOM      3  C2  <0> d          -0.018   1.468   0.010  0.00  0.00     0.288 C 
ATOM      4  C3  <0> d           1.363   1.977  -0.000  0.00  0.00     0.118 C 
ATOM      5  N2  <0> d           2.429   2.370  -0.008  0.00  0.00    -0.193 NA
ATOM      6 Cl1  <0> d          -0.890   2.065  -1.451  0.00  0.00    -0.069 Cl
ATOM      7 Cl2  <0> d          -0.862   2.049   1.494  0.00  0.00    -0.069 Cl
ENDROOT
TORSDOF 0
