REMARK  2 active torsions:
REMARK  status: ('A' for Active; 'I' for Inactive)
REMARK    1  A    between atoms: C8_8  and  C9_10 
REMARK    2  A    between atoms: C9_10  and  O2_11 
ROOT
ATOM      1  C1  <0> d          -1.204   1.746   0.017  0.00  0.00    -0.082 A 
ATOM      2  C2  <0> d          -1.230   3.133   0.030  0.00  0.00    -0.080 A 
ATOM      3  C3  <0> d          -0.057   3.859   0.023  0.00  0.00    -0.049 A 
ATOM      4  C4  <0> d           1.164   3.197   0.008  0.00  0.00     0.086 A 
ATOM      5  C5  <0> d           1.183   1.792   0.000  0.00  0.00     0.000 A 
ATOM      6  C6  <0> d          -0.013   1.076   0.008  0.00  0.00    -0.070 A 
ATOM      7  C7  <0> d           2.603   1.419  -0.015  0.00  0.00    -0.040 A 
ATOM      8  C8  <0> d           3.291   2.569  -0.016  0.00  0.00     0.078 A 
ATOM      9  O1  <0> d           2.446   3.615  -0.002  0.00  0.00    -0.312 OA
ATOM     10  H1  <0> d          -2.131   1.193   0.019  0.00  0.00     0.083 H 
ATOM     11  H2  <0> d          -2.178   3.651   0.042  0.00  0.00     0.083 H 
ATOM     12  H3  <0> d          -0.088   4.938   0.029  0.00  0.00     0.087 H 
ATOM     13  H4  <0> d           0.002  -0.004   0.002  0.00  0.00     0.084 H 
ATOM     14  H5  <0> d           3.011   0.420  -0.025  0.00  0.00     0.088 H 
ENDROOT
BRANCH   8  15
ATOM     15  C9  <0> d           4.794   2.675  -0.030  0.00  0.00     0.061 C 
ATOM     16  H6  <0> d           5.099   3.586   0.486  0.00  0.00     0.084 H 
ATOM     17  H7  <0> d           5.224   1.810   0.475  0.00  0.00     0.084 H 
BRANCH  15  18
ATOM     18  O2  <0> d           5.256   2.716  -1.381  0.00  0.00    -0.394 OA
ATOM     19  H8  <0> d           6.217   2.784  -1.467  0.00  0.00     0.209 HD
ENDBRANCH  15  18
ENDBRANCH   8  15
TORSDOF 2
