REMARK  10 active torsions:
REMARK  status: ('A' for Active; 'I' for Inactive)
REMARK    1  A    between atoms: C1_1  and  C2_2 
REMARK    2  A    between atoms: C2_2  and  C3_3 
REMARK    3  A    between atoms: C3_3  and  C4_5 
REMARK    4  A    between atoms: C3_3  and  C5_6 
REMARK    5  A    between atoms: C5_6  and  C6_7 
REMARK    6  A    between atoms: C5_6  and  C7_8 
REMARK    7  A    between atoms: C5_6  and  O1_13 
REMARK    8  A    between atoms: C7_8  and  C8_10 
REMARK    9  A    between atoms: C7_8  and  C9_11 
REMARK   10  A    between atoms: C9_11  and  C10_12 
ROOT
ATOM      1  C5  <0> d          -1.016   3.771   1.326  0.00  0.00     0.061 C 
ENDROOT
BRANCH   1   2
ATOM      2  C3  <0> d          -2.003   4.181   2.420  0.00  0.00    -0.028 C 
ATOM      3  H1  <0> d          -1.552   4.002   3.407  0.00  0.00     0.043 H 
BRANCH   2   4
ATOM      4  C2  <0> d          -3.284   3.354   2.288  0.00  0.00    -0.063 C 
ATOM      5  H6  <0> d          -3.032   2.284   2.303  0.00  0.00     0.033 H 
ATOM      6  H7  <0> d          -3.782   3.600   1.339  0.00  0.00     0.033 H 
BRANCH   4   7
ATOM      7  C1  <0> d          -4.220   3.675   3.454  0.00  0.00    -0.076 C 
ATOM      8  H3  <0> d          -5.141   3.080   3.359  0.00  0.00     0.027 H 
ATOM      9  H4  <0> d          -4.472   4.745   3.438  0.00  0.00     0.027 H 
ATOM     10  H5  <0> d          -3.722   3.429   4.403  0.00  0.00     0.027 H 
ENDBRANCH   4   7
ENDBRANCH   2   4
BRANCH   2  11
ATOM     11  C4  <0> d          -2.338   5.667   2.274  0.00  0.00    -0.070 C 
ATOM     12  H8  <0> d          -1.417   6.261   2.369  0.00  0.00     0.028 H 
ATOM     13  H9  <0> d          -3.048   5.962   3.060  0.00  0.00     0.028 H 
ATOM     14  H10 <0> d          -2.789   5.845   1.287  0.00  0.00     0.028 H 
ENDBRANCH   2  11
ENDBRANCH   1   2
BRANCH   1  15
ATOM     15  C6  <0> d           0.265   4.597   1.458  0.00  0.00    -0.047 C 
ATOM     16  H11 <0> d           0.975   4.302   0.672  0.00  0.00     0.031 H 
ATOM     17  H12 <0> d           0.717   4.418   2.445  0.00  0.00     0.031 H 
ATOM     18  H13 <0> d           0.025   5.665   1.353  0.00  0.00     0.031 H 
ENDBRANCH   1  15
BRANCH   1  19
ATOM     19  C7  <0> d          -0.681   2.285   1.472  0.00  0.00    -0.028 C 
ATOM     20  H2  <0> d          -1.597   1.689   1.350  0.00  0.00     0.043 H 
BRANCH  19  21
ATOM     21  C8  <0> d          -0.088   2.030   2.859  0.00  0.00    -0.070 C 
ATOM     22  H14 <0> d           0.152   0.961   2.964  0.00  0.00     0.028 H 
ATOM     23  H15 <0> d          -0.819   2.318   3.629  0.00  0.00     0.028 H 
ATOM     24  H16 <0> d           0.828   2.626   2.982  0.00  0.00     0.028 H 
ENDBRANCH  19  21
BRANCH  19  25
ATOM     25  C9  <0> d           0.336   1.883   0.401  0.00  0.00    -0.063 C 
ATOM     26  H17 <0> d          -0.054   2.149  -0.592  0.00  0.00     0.033 H 
ATOM     27  H18 <0> d           1.283   2.414   0.578  0.00  0.00     0.033 H 
BRANCH  25  28
ATOM     28  C10 <0> d           0.576   0.374   0.467  0.00  0.00    -0.076 C 
ATOM     29  H19 <0> d           1.307   0.085  -0.302  0.00  0.00     0.027 H 
ATOM     30  H20 <0> d          -0.371  -0.157   0.291  0.00  0.00     0.027 H 
ATOM     31  H21 <0> d           0.966   0.108   1.461  0.00  0.00     0.027 H 
ENDBRANCH  25  28
ENDBRANCH  19  25
ENDBRANCH   1  19
BRANCH   1  32
ATOM     32  O1  <0> d          -1.602   4.003   0.043  0.00  0.00    -0.389 OA
ATOM     33  H22 <0> d          -1.037   3.766  -0.870  0.00  0.00     0.210 HD
ENDBRANCH   1  32
TORSDOF 10
