REMARK  2 active torsions:
REMARK  status: ('A' for Active; 'I' for Inactive)
REMARK    1  A    between atoms: C1_1  and  C2_2 
REMARK    2  A    between atoms: C5_5  and  C8_9 
ROOT
ATOM      1  C8  <0> d           0.058  -4.206  -0.026  0.00  0.00    -0.075 C 
ATOM      2  C9  <0> d           0.073  -5.380  -0.034  0.00  0.00    -0.149 C 
ATOM      3  H7  <0> d           0.086  -6.430  -0.042  0.00  0.00     0.166 H 
ENDROOT
BRANCH   1   4
ATOM      4  C5  <0> d           0.039  -2.775  -0.017  0.00  0.00     0.055 A 
ATOM      5  C4  <0> d           0.024  -2.065  -1.218  0.00  0.00    -0.061 A 
ATOM      6  C3  <0> d           0.006  -0.686  -1.202  0.00  0.00    -0.076 A 
ATOM      7  H5  <0> d           0.026  -2.595  -2.159  0.00  0.00     0.085 H 
ATOM      8  C2  <0> d           0.002  -0.004   0.002  0.00  0.00    -0.059 A 
ATOM      9  H4  <0> d          -0.006  -0.137  -2.132  0.00  0.00     0.084 H 
ATOM     10  C7  <0> d           0.023  -0.699   1.198  0.00  0.00    -0.038 A 
ATOM     11  C6  <0> d           0.036  -2.081   1.196  0.00  0.00     0.135 A 
ATOM     12  H6  <0> d           0.025  -0.160   2.134  0.00  0.00     0.089 H 
ATOM     13  F1  <0> d           0.050  -2.759   2.365  0.00  0.00    -0.205 F 
BRANCH   8  14
ATOM     14  C1  <0> d          -0.018   1.503   0.010  0.00  0.00    -0.051 C 
ATOM     15  H1  <0> d           1.004   1.880   0.003  0.00  0.00     0.033 H 
ATOM     16  H2  <0> d          -0.545   1.864  -0.873  0.00  0.00     0.033 H 
ATOM     17  H3  <0> d          -0.529   1.854   0.907  0.00  0.00     0.033 H 
ENDBRANCH   8  14
ENDBRANCH   1   4
TORSDOF 2
