REMARK  1 active torsions:
REMARK  status: ('A' for Active; 'I' for Inactive)
REMARK    1  A    between atoms: N1_4  and  C6_8 
ROOT
ATOM      1  C6  <0> d          -1.299   2.049   0.019  0.00  0.00     0.081 C 
ATOM      2  C7  <0> d          -1.723   2.278   1.410  0.00  0.00     0.079 C 
ATOM      3  N2  <0> d          -2.049   2.455   2.484  0.00  0.00    -0.196 NA
ATOM      4  H5  <0> d          -1.191   3.007  -0.490  0.00  0.00     0.087 H 
ATOM      5  H6  <0> d          -2.049   1.448  -0.494  0.00  0.00     0.087 H 
ENDROOT
BRANCH   1   6
ATOM      6  N1  <0> d          -0.016   1.342   0.009  0.00  0.00    -0.312 N 
ATOM      7  C3  <0> d           1.141   2.052   0.002  0.00  0.00    -0.016 A 
ATOM      8  C2  <0> d           2.338   1.422  -0.013  0.00  0.00    -0.068 A 
ATOM      9  H3  <0> d           1.106   3.132   0.008  0.00  0.00     0.111 H 
ATOM     10  C1  <0> d           2.392   0.021  -0.021  0.00  0.00    -0.076 A 
ATOM     11  H2  <0> d           3.252   1.997  -0.019  0.00  0.00     0.085 H 
ATOM     12  C5  <0> d           1.228  -0.691  -0.013  0.00  0.00    -0.017 A 
ATOM     13  H1  <0> d           3.344  -0.489  -0.033  0.00  0.00     0.083 H 
ATOM     14  C4  <0> d           0.002  -0.004   0.002  0.00  0.00     0.248 A 
ATOM     15  H4  <0> d           1.249  -1.770  -0.020  0.00  0.00     0.092 H 
ATOM     16  O1  <0> d          -1.047  -0.628   0.008  0.00  0.00    -0.268 OA
ENDBRANCH   1   6
TORSDOF 1
