REMARK  2 active torsions:
REMARK  status: ('A' for Active; 'I' for Inactive)
REMARK    1  A    between atoms: C1_1  and  C2_2 
REMARK    2  A    between atoms: C4_4  and  N5_12 
ROOT
ATOM      1  C2  <0> d          -0.284   4.057   0.263  0.00  0.00     0.068 A 
ATOM      2  C3  <0> d          -1.246   3.081  -0.074  0.00  0.00     0.083 A 
ATOM      3  C4  <0> d          -1.192   1.724  -0.449  0.00  0.00     0.138 A 
ATOM      4  N1  <0> d          -2.333   1.091  -0.696  0.00  0.00    -0.224 NA
ATOM      5  C5  <0> d          -3.495   1.713  -0.601  0.00  0.00     0.091 A 
ATOM      6  N2  <0> d          -3.596   2.979  -0.261  0.00  0.00    -0.222 NA
ATOM      7  C6  <0> d          -2.509   3.700   0.007  0.00  0.00     0.161 A 
ATOM      8  N3  <0> d          -2.284   4.993   0.376  0.00  0.00    -0.260 N 
ATOM      9  H1  <0> d          -2.984   5.694   0.512  0.00  0.00     0.191 HD
ATOM     10  N4  <0> d          -0.903   5.171   0.532  0.00  0.00    -0.177 NA
ATOM     11  H5  <0> d          -4.398   1.159  -0.811  0.00  0.00     0.146 H 
ENDROOT
BRANCH   1  12
ATOM     12  C1  <0> d           1.208   3.847   0.304  0.00  0.00    -0.033 C 
ATOM     13  H2  <0> d           1.620   3.973  -0.697  0.00  0.00     0.035 H 
ATOM     14  H3  <0> d           1.659   4.575   0.977  0.00  0.00     0.035 H 
ATOM     15  H4  <0> d           1.423   2.840   0.661  0.00  0.00     0.035 H 
ENDBRANCH   1  12
BRANCH   3  16
ATOM     16  N5  <0> d           0.019   1.067  -0.550  0.00  0.00    -0.383 N 
ATOM     17  H6  <0> d           0.039   0.109  -0.706  0.00  0.00     0.157 HD
ATOM     18  H7  <0> d           0.848   1.562  -0.470  0.00  0.00     0.157 HD
ENDBRANCH   3  16
TORSDOF 2
