REMARK  0 active torsions:
REMARK  status: ('A' for Active; 'I' for Inactive)
ROOT
ATOM      1  C1  <0> d           1.179   1.773   0.000  0.00  0.00    -0.046 A 
ATOM      2  C2  <0> d          -0.013   1.076   0.008  0.00  0.00     0.003 A 
ATOM      3  N1  <0> d          -1.168   1.710   0.017  0.00  0.00    -0.273 NA
ATOM      4  C3  <0> d          -1.244   3.027   0.030  0.00  0.00     0.003 A 
ATOM      5  C4  <0> d          -0.102   3.803   0.024  0.00  0.00    -0.046 A 
ATOM      6  C5  <0> d           1.147   3.172   0.008  0.00  0.00     0.047 A 
ATOM      7  C6  <0> d           2.357   3.936   0.000  0.00  0.00     0.099 C 
ATOM      8  N2  <0> d           3.318   4.543  -0.006  0.00  0.00    -0.191 NA
ATOM      9  H1  <0> d           2.122   1.247  -0.011  0.00  0.00     0.088 H 
ATOM     10  H2  <0> d           0.002  -0.004   0.002  0.00  0.00     0.114 H 
ATOM     11  H3  <0> d          -2.213   3.504   0.042  0.00  0.00     0.114 H 
ATOM     12  H4  <0> d          -0.172   4.881   0.030  0.00  0.00     0.088 H 
ENDROOT
TORSDOF 0
