REMARK  2 active torsions:
REMARK  status: ('A' for Active; 'I' for Inactive)
REMARK    1  A    between atoms: C1_1  and  C2_2 
REMARK    2  A    between atoms: C2_2  and  C3_3 
ROOT
ATOM      1  C3  <0> d           0.731  -0.503   1.223  0.00  0.00    -0.020 A 
ATOM      2  C4  <0> d           2.077  -0.808   1.148  0.00  0.00    -0.074 A 
ATOM      3  C5  <0> d           2.746  -1.266   2.268  0.00  0.00    -0.082 A 
ATOM      4  C6  <0> d           2.069  -1.420   3.464  0.00  0.00    -0.080 A 
ATOM      5  C7  <0> d           0.724  -1.115   3.541  0.00  0.00    -0.045 A 
ATOM      6  C8  <0> d           0.054  -0.651   2.421  0.00  0.00     0.122 A 
ATOM      7  F1  <0> d          -1.261  -0.349   2.497  0.00  0.00    -0.206 F 
ATOM      8  H6  <0> d           2.606  -0.689   0.214  0.00  0.00     0.084 H 
ATOM      9  H7  <0> d           3.798  -1.504   2.208  0.00  0.00     0.083 H 
ATOM     10  H8  <0> d           2.593  -1.778   4.338  0.00  0.00     0.083 H 
ATOM     11  H9  <0> d           0.195  -1.236   4.475  0.00  0.00     0.088 H 
ENDROOT
BRANCH   1  12
ATOM     12  C2  <0> d           0.002  -0.004   0.002  0.00  0.00    -0.041 C 
ATOM     13  H4  <0> d          -1.020  -0.381   0.010  0.00  0.00     0.039 H 
ATOM     14  H5  <0> d           0.512  -0.356  -0.895  0.00  0.00     0.039 H 
BRANCH  12  15
ATOM     15  C1  <0> d          -0.019   1.526   0.010  0.00  0.00    -0.073 C 
ATOM     16  H1  <0> d           1.004   1.903   0.003  0.00  0.00     0.028 H 
ATOM     17  H2  <0> d          -0.546   1.887  -0.873  0.00  0.00     0.028 H 
ATOM     18  H3  <0> d          -0.529   1.877   0.907  0.00  0.00     0.028 H 
ENDBRANCH  12  15
ENDBRANCH   1  12
TORSDOF 2
