REMARK  4 active torsions:
REMARK  status: ('A' for Active; 'I' for Inactive)
REMARK    1  A    between atoms: C1_1  and  C2_2 
REMARK    2  A    between atoms: C4_4  and  C7_8 
REMARK    3  A    between atoms: C7_8  and  O2_10 
REMARK    4  A    between atoms: O2_10  and  C8_11 
ROOT
ATOM      1  C2  <0> d           0.002  -0.004   0.002  0.00  0.00    -0.043 A 
ATOM      2  C3  <0> d           0.006  -0.697  -1.196  0.00  0.00    -0.059 A 
ATOM      3  C4  <0> d           0.026  -2.096  -1.153  0.00  0.00     0.057 A 
ATOM      4  C5  <0> d           0.041  -2.733   0.089  0.00  0.00     0.018 A 
ATOM      5  N1  <0> d           0.036  -2.029   1.202  0.00  0.00    -0.272 NA
ATOM      6  C6  <0> d           0.023  -0.709   1.192  0.00  0.00     0.007 A 
ATOM      7  H4  <0> d          -0.006  -0.171  -2.140  0.00  0.00     0.086 H 
ATOM      8  H5  <0> d           0.056  -3.811   0.138  0.00  0.00     0.116 H 
ATOM      9  H6  <0> d           0.025  -0.171   2.128  0.00  0.00     0.115 H 
ENDROOT
BRANCH   3  10
ATOM     10  C7  <0> d           0.030  -2.886  -2.402  0.00  0.00     0.294 C 
ATOM     11  O1  <0> d           0.017  -2.321  -3.478  0.00  0.00    -0.259 OA
BRANCH  10  12
ATOM     12  O2  <0> d           0.049  -4.232  -2.348  0.00  0.00    -0.322 OA
BRANCH  12  13
ATOM     13  C8  <0> d           0.052  -4.931  -3.594  0.00  0.00     0.013 C 
ATOM     14  H7  <0> d          -0.844  -4.673  -4.157  0.00  0.00     0.067 H 
ATOM     15  H8  <0> d           0.936  -4.649  -4.167  0.00  0.00     0.067 H 
ATOM     16  H9  <0> d           0.068  -6.005  -3.407  0.00  0.00     0.067 H 
ENDBRANCH  12  13
ENDBRANCH  10  12
ENDBRANCH   3  10
BRANCH   1  17
ATOM     17  C1  <0> d          -0.018   1.503   0.010  0.00  0.00    -0.050 C 
ATOM     18  H1  <0> d           1.004   1.880   0.003  0.00  0.00     0.033 H 
ATOM     19  H2  <0> d          -0.545   1.864  -0.873  0.00  0.00     0.033 H 
ATOM     20  H3  <0> d          -0.529   1.854   0.907  0.00  0.00     0.033 H 
ENDBRANCH   1  17
TORSDOF 4
