REMARK  2 active torsions:
REMARK  status: ('A' for Active; 'I' for Inactive)
REMARK    1  A    between atoms: C2_2  and  C3_3 
REMARK    2  A    between atoms: C3_3  and  O1_8 
ROOT
ATOM      1  C1  <0> d          -1.226   2.413   2.195  0.00  0.00    -0.151 C 
ATOM      2  C2  <0> d          -0.691   2.023   1.226  0.00  0.00    -0.079 C 
ATOM      3  H1  <0> d          -1.705   2.761   3.062  0.00  0.00     0.166 H 
ENDROOT
BRANCH   2   4
ATOM      4  C3  <0> d          -0.019   1.534   0.011  0.00  0.00     0.120 C 
ATOM      5  C7  <0> d           0.002  -0.004   0.002  0.00  0.00    -0.026 C 
ATOM      6  C6  <0> d           1.486  -0.425  -0.014  0.00  0.00    -0.061 C 
ATOM      7  H8  <0> d          -0.485  -0.389   0.898  0.00  0.00     0.038 H 
ATOM      8  H9  <0> d          -0.502  -0.379  -0.888  0.00  0.00     0.038 H 
ATOM      9  C5  <0> d           2.232   0.792   0.586  0.00  0.00    -0.061 C 
ATOM     10  H6  <0> d           1.639  -1.309   0.604  0.00  0.00     0.033 H 
ATOM     11  H7  <0> d           1.819  -0.610  -1.036  0.00  0.00     0.033 H 
ATOM     12  C4  <0> d           1.453   1.995  -0.001  0.00  0.00    -0.026 C 
ATOM     13  H4  <0> d           2.169   0.786   1.675  0.00  0.00     0.033 H 
ATOM     14  H5  <0> d           3.273   0.806   0.262  0.00  0.00     0.033 H 
ATOM     15  H2  <0> d           1.781   2.201  -1.020  0.00  0.00     0.038 H 
ATOM     16  H3  <0> d           1.582   2.877   0.627  0.00  0.00     0.038 H 
BRANCH   4  17
ATOM     17  O1  <0> d          -0.693   2.021  -1.151  0.00  0.00    -0.378 OA
ATOM     18  H10 <0> d          -0.740   2.986  -1.204  0.00  0.00     0.211 HD
ENDBRANCH   4  17
ENDBRANCH   2   4
TORSDOF 2
