REMARK  1 active torsions:
REMARK  status: ('A' for Active; 'I' for Inactive)
REMARK    1  A    between atoms: C3_3  and  O1_9 
ROOT
ATOM      1  C1  <0> d          -0.088   4.155   0.025  0.00  0.00    -0.063 A 
ATOM      2  C2  <0> d           1.148   3.531   0.010  0.00  0.00    -0.047 A 
ATOM      3  C3  <0> d           1.188   2.140   0.002  0.00  0.00     0.105 A 
ATOM      4  C4  <0> d          -0.017   1.428   0.010  0.00  0.00     0.169 A 
ATOM      5  N1  <0> d          -1.179   2.072   0.019  0.00  0.00    -0.247 NA
ATOM      6  C5  <0> d          -1.240   3.386   0.032  0.00  0.00     0.004 A 
ATOM      7  C6  <0> d           0.002  -0.004   0.002  0.00  0.00     0.122 C 
ATOM      8  N2  <0> d           0.018  -1.140  -0.004  0.00  0.00    -0.190 NA
ATOM      9  H1  <0> d          -0.153   5.233   0.031  0.00  0.00     0.085 H 
ATOM     10  H2  <0> d           2.060   4.110   0.004  0.00  0.00     0.087 H 
ATOM     11  H3  <0> d          -2.204   3.873   0.043  0.00  0.00     0.114 H 
ENDROOT
BRANCH   3  12
ATOM     12  O1  <0> d           2.376   1.484  -0.012  0.00  0.00    -0.358 OA
ATOM     13  H4  <0> d           2.712   1.299  -0.900  0.00  0.00     0.217 HD
ENDBRANCH   3  12
TORSDOF 1
