REMARK  3 active torsions:
REMARK  status: ('A' for Active; 'I' for Inactive)
REMARK    1  A    between atoms: C1_1  and  C2_2 
REMARK    2  A    between atoms: C2_2  and  C3_4 
REMARK    3  A    between atoms: C2_2  and  O2_9 
ROOT
ATOM      1  C3  <0> d          -0.718   1.572   1.248  0.00  0.00     0.080 A 
ATOM      2  C4  <0> d          -1.570   0.853   2.001  0.00  0.00    -0.050 A 
ATOM      3  C5  <0> d          -1.990   1.693   3.058  0.00  0.00    -0.059 A 
ATOM      4  C6  <0> d          -1.376   2.877   2.883  0.00  0.00     0.019 A 
ATOM      5  O1  <0> d          -0.607   2.798   1.785  0.00  0.00    -0.324 OA
ATOM      6  H5  <0> d          -1.873  -0.169   1.832  0.00  0.00     0.087 H 
ATOM      7  H6  <0> d          -2.676   1.434   3.852  0.00  0.00     0.086 H 
ATOM      8  H7  <0> d          -1.484   3.744   3.518  0.00  0.00     0.123 H 
ENDROOT
BRANCH   1   9
ATOM      9  C2  <0> d          -0.013   1.086   0.008  0.00  0.00     0.078 C 
ATOM     10  H1  <0> d           0.002  -0.004   0.002  0.00  0.00     0.093 H 
BRANCH   9  11
ATOM     11  C1  <0> d          -0.753   1.593  -1.232  0.00  0.00    -0.047 C 
ATOM     12  H2  <0> d          -0.242   1.241  -2.128  0.00  0.00     0.031 H 
ATOM     13  H3  <0> d          -1.775   1.215  -1.224  0.00  0.00     0.031 H 
ATOM     14  H4  <0> d          -0.767   2.683  -1.226  0.00  0.00     0.031 H 
ENDBRANCH   9  11
BRANCH   9  15
ATOM     15  O2  <0> d           1.328   1.580  -0.002  0.00  0.00    -0.389 OA
ATOM     16  H8  <0> d           1.391   2.545   0.002  0.00  0.00     0.210 HD
ENDBRANCH   9  15
ENDBRANCH   1   9
TORSDOF 3
