REMARK  5 active torsions:
REMARK  status: ('A' for Active; 'I' for Inactive)
REMARK    1  A    between atoms: C1_1  and  O1_2 
REMARK    2  A    between atoms: O1_2  and  C2_3 
REMARK    3  A    between atoms: C2_3  and  O4_10 
REMARK    4  A    between atoms: C4_5  and  C6_7 
REMARK    5  A    between atoms: O4_10  and  C7_11 
ROOT
ATOM      1  C2  <0> d           0.609  -0.674   1.107  0.00  0.00     0.164 C 
ATOM      2  C3  <0> d          -0.282  -1.150   2.267  0.00  0.00    -0.000 C 
ATOM      3  C4  <0> d          -0.580  -2.400   1.421  0.00  0.00     0.040 C 
ATOM      4  C5  <0> d           0.771  -2.156   0.728  0.00  0.00    -0.000 C 
ATOM      5  H4  <0> d           0.269  -1.364   3.182  0.00  0.00     0.042 H 
ATOM      6  H5  <0> d          -1.155  -0.519   2.434  0.00  0.00     0.042 H 
ATOM      7  H6  <0> d          -1.438  -2.285   0.759  0.00  0.00     0.057 H 
ATOM      8  H7  <0> d           0.749  -2.336  -0.347  0.00  0.00     0.042 H 
ATOM      9  H8  <0> d           1.610  -2.644   1.222  0.00  0.00     0.042 H 
ENDROOT
BRANCH   1  10
ATOM     10  O1  <0> d          -0.090   0.095   0.126  0.00  0.00    -0.360 OA
BRANCH  10  11
ATOM     11  C1  <0> d           0.603   0.219  -1.117  0.00  0.00     0.007 C 
ATOM     12  H1  <0> d           0.830  -0.773  -1.507  0.00  0.00     0.066 H 
ATOM     13  H2  <0> d          -0.023   0.756  -1.830  0.00  0.00     0.066 H 
ATOM     14  H3  <0> d           1.531   0.770  -0.962  0.00  0.00     0.066 H 
ENDBRANCH  10  11
ENDBRANCH   1  10
BRANCH   1  15
ATOM     15  O4  <0> d           1.824  -0.056   1.534  0.00  0.00    -0.360 OA
BRANCH  15  16
ATOM     16  C7  <0> d           1.653   1.261   2.061  0.00  0.00     0.007 C 
ATOM     17  H9  <0> d           2.607   1.626   2.442  0.00  0.00     0.066 H 
ATOM     18  H10 <0> d           1.299   1.925   1.272  0.00  0.00     0.066 H 
ATOM     19  H11 <0> d           0.923   1.236   2.870  0.00  0.00     0.066 H 
ENDBRANCH  15  16
ENDBRANCH   1  15
BRANCH   3  20
ATOM     20  C6  <0> d          -0.625  -3.675   2.223  0.00  0.00     0.177 C 
ATOM     21  O2  <0> d          -1.468  -4.521   1.978  0.00  0.00    -0.648 OA
ATOM     22  O3  <0> d           0.182  -3.861   3.118  0.00  0.00    -0.648 OA
ENDBRANCH   3  20
TORSDOF 5
