REMARK  3 active torsions:
REMARK  status: ('A' for Active; 'I' for Inactive)
REMARK    1  A    between atoms: C4_4  and  C7_7 
REMARK    2  A    between atoms: C8_8  and  C9_9 
REMARK    3  A    between atoms: C9_9  and  O1_10 
ROOT
ATOM      1  C1  <0> d           0.441  -3.266   1.966  0.00  0.00    -0.083 A 
ATOM      2  C2  <0> d          -0.381  -2.875   3.008  0.00  0.00    -0.082 A 
ATOM      3  C3  <0> d          -0.802  -1.565   3.105  0.00  0.00    -0.073 A 
ATOM      4  C4  <0> d          -0.396  -0.632   2.149  0.00  0.00    -0.036 A 
ATOM      5  C5  <0> d           0.429  -1.034   1.098  0.00  0.00    -0.073 A 
ATOM      6  C6  <0> d           0.848  -2.346   1.016  0.00  0.00    -0.082 A 
ATOM      7  H1  <0> d           0.767  -4.293   1.895  0.00  0.00     0.083 H 
ATOM      8  H2  <0> d          -0.695  -3.598   3.747  0.00  0.00     0.083 H 
ATOM      9  H3  <0> d          -1.444  -1.261   3.919  0.00  0.00     0.084 H 
ATOM     10  H4  <0> d           0.743  -0.318   0.353  0.00  0.00     0.084 H 
ATOM     11  H5  <0> d           1.490  -2.657   0.205  0.00  0.00     0.083 H 
ENDROOT
BRANCH   4  12
ATOM     12  C7  <0> d          -0.844   0.773   2.247  0.00  0.00    -0.075 C 
ATOM     13  C8  <0> d          -0.989   1.341   3.436  0.00  0.00    -0.080 C 
ATOM     14  H7  <0> d          -1.437   2.321   3.515  0.00  0.00     0.080 H 
ATOM     15  H6  <0> d          -1.052   1.337   1.350  0.00  0.00     0.084 H 
BRANCH  13  16
ATOM     16  C9  <0> d          -0.528   0.621   4.677  0.00  0.00     0.032 C 
ATOM     17  H8  <0> d           0.141  -0.193   4.397  0.00  0.00     0.080 H 
ATOM     18  H9  <0> d          -1.392   0.216   5.203  0.00  0.00     0.080 H 
BRANCH  16  19
ATOM     19  O1  <0> d           0.163   1.536   5.529  0.00  0.00    -0.397 OA
ATOM     20  H10 <0> d           0.489   1.140   6.349  0.00  0.00     0.209 HD
ENDBRANCH  16  19
ENDBRANCH  13  16
ENDBRANCH   4  12
TORSDOF 3
