REMARK  3 active torsions:
REMARK  status: ('A' for Active; 'I' for Inactive)
REMARK    1  A    between atoms: C2_2  and  C3_3 
REMARK    2  A    between atoms: C3_3  and  S1_4 
REMARK    3  A    between atoms: S1_4  and  C4_5 
ROOT
ATOM      1  C1  <0> d          -2.128   8.650   0.068  0.00  0.00    -0.153 C 
ATOM      2  C2  <0> d          -2.000   7.483   0.060  0.00  0.00    -0.107 C 
ATOM      3  H1  <0> d          -2.242   9.693   0.074  0.00  0.00     0.166 H 
ENDROOT
BRANCH   2   4
ATOM      4  C3  <0> d          -1.840   6.019   0.052  0.00  0.00     0.036 C 
ATOM      5  H2  <0> d          -2.320   5.607  -0.836  0.00  0.00     0.068 H 
ATOM      6  H3  <0> d          -2.302   5.598   0.944  0.00  0.00     0.068 H 
BRANCH   4   7
ATOM      7  S1  <0> d          -0.074   5.604   0.032  0.00  0.00    -0.118 SA
BRANCH   7   8
ATOM      8  C4  <0> d          -0.050   3.843   0.023  0.00  0.00     0.001 A 
ATOM      9  C9  <0> d          -1.243   3.130   0.031  0.00  0.00    -0.067 A 
ATOM     10  C8  <0> d          -1.220   1.749   0.017  0.00  0.00    -0.082 A 
ATOM     11  H8  <0> d          -2.187   3.655   0.043  0.00  0.00     0.085 H 
ATOM     12  C7  <0> d          -0.013   1.076   0.008  0.00  0.00    -0.083 A 
ATOM     13  H7  <0> d          -2.147   1.195   0.019  0.00  0.00     0.083 H 
ATOM     14  C6  <0> d           1.177   1.782   0.000  0.00  0.00    -0.082 A 
ATOM     15  H6  <0> d           0.002  -0.004   0.002  0.00  0.00     0.083 H 
ATOM     16  C5  <0> d           1.162   3.163   0.008  0.00  0.00    -0.067 A 
ATOM     17  H5  <0> d           2.118   1.253  -0.012  0.00  0.00     0.083 H 
ATOM     18  H4  <0> d           2.091   3.713   0.002  0.00  0.00     0.085 H 
ENDBRANCH   7   8
ENDBRANCH   4   7
ENDBRANCH   2   4
TORSDOF 3
