REMARK  0 active torsions:
REMARK  status: ('A' for Active; 'I' for Inactive)
ROOT
ATOM      1  C1  <0> d           0.426   4.237   0.020  0.00  0.00    -0.082 A 
ATOM      2  C2  <0> d          -0.867   3.749   0.030  0.00  0.00    -0.082 A 
ATOM      3  C3  <0> d          -1.089   2.386   0.030  0.00  0.00    -0.075 A 
ATOM      4  C4  <0> d          -0.018   1.505   0.010  0.00  0.00    -0.027 A 
ATOM      5  C5  <0> d           1.272   1.992   0.001  0.00  0.00    -0.043 A 
ATOM      6  C6  <0> d           1.493   3.360   0.005  0.00  0.00    -0.076 A 
ATOM      7  C7  <0> d           2.253   0.845  -0.015  0.00  0.00     0.016 A 
ATOM      8  C8  <0> d           1.450  -0.433  -0.014  0.00  0.00     0.153 A 
ATOM      9  O1  <0> d           1.876  -1.563  -0.024  0.00  0.00    -0.296 OA
ATOM     10  C9  <0> d           0.002  -0.004   0.002  0.00  0.00     0.114 A 
ATOM     11  H1  <0> d          -0.477  -0.340  -0.809  0.00  0.00     0.082 H 
ATOM     12  C10 <0> d          -0.660  -0.520   1.211  0.00  0.00     0.076 C 
ATOM     13  N1  <0> d          -1.170  -0.919   2.145  0.00  0.00    -0.196 NA
ATOM     14  H2  <0> d           0.602   5.303   0.024  0.00  0.00     0.083 H 
ATOM     15  H3  <0> d          -1.703   4.433   0.041  0.00  0.00     0.083 H 
ATOM     16  H4  <0> d          -2.099   2.005   0.043  0.00  0.00     0.084 H 
ATOM     17  H5  <0> d           2.503   3.742  -0.003  0.00  0.00     0.084 H 
ATOM     18  H6  <0> d           2.839   0.897   0.794  0.00  0.00     0.051 H 
ATOM     19  H7  <0> d           2.868   0.896  -0.913  0.00  0.00     0.051 H 
ENDROOT
TORSDOF 0
