REMARK  2 active torsions:
REMARK  status: ('A' for Active; 'I' for Inactive)
REMARK    1  A    between atoms: C3_3  and  C5_7 
REMARK    2  A    between atoms: C6_11  and  N4_13 
ROOT
ATOM      1  C1  <0> d          -2.665   3.268   1.699  0.00  0.00    -0.043 C 
ATOM      2  C2  <0> d          -1.200   3.188   1.217  0.00  0.00    -0.032 C 
ATOM      3  C3  <0> d          -1.249   2.206   0.026  0.00  0.00     0.099 C 
ATOM      4  H1  <0> d          -1.322   2.688  -0.960  0.00  0.00     0.095 H 
ATOM      5  O1  <0> d          -2.426   1.402   0.259  0.00  0.00    -0.378 OA
ATOM      6  C4  <0> d          -3.427   2.324   0.742  0.00  0.00     0.021 C 
ATOM      7  H3  <0> d          -3.075   4.285   1.613  0.00  0.00     0.036 H 
ATOM      8  H4  <0> d          -2.781   2.912   2.733  0.00  0.00     0.036 H 
ATOM      9  H5  <0> d          -0.858   4.189   0.914  0.00  0.00     0.037 H 
ATOM     10  H6  <0> d          -0.564   2.816   2.034  0.00  0.00     0.037 H 
ATOM     11  H7  <0> d          -4.225   1.807   1.295  0.00  0.00     0.074 H 
ATOM     12  H8  <0> d          -3.869   2.911  -0.076  0.00  0.00     0.074 H 
ENDROOT
BRANCH   3  13
ATOM     13  C5  <0> d          -0.016   1.339   0.009  0.00  0.00     0.194 A 
ATOM     14  N3  <0> d           1.222   1.765  -0.000  0.00  0.00    -0.044 NA
ATOM     15  C6  <0> d           2.058   0.723  -0.014  0.00  0.00     0.716 A 
ATOM     16  N2  <0> d           1.354  -0.384  -0.013  0.00  0.00    -0.106 N 
ATOM     17  N1  <0> d           0.002  -0.004   0.002  0.00  0.00    -0.141 NA
ATOM     18  H2  <0> d           1.626  -1.450  -0.021  0.00  0.00     0.208 HD
BRANCH  15  19
ATOM     19  N4  <0> d           3.452   0.800  -0.027  0.00  0.00    -0.231 N 
ATOM     20  H9  <0> d           4.053  -0.121  -0.037  0.00  0.00     0.174 HD
ATOM     21  H10 <0> d           3.949   1.781  -0.026  0.00  0.00     0.174 HD
ENDBRANCH  15  19
ENDBRANCH   3  13
TORSDOF 2
