REMARK  2 active torsions:
REMARK  status: ('A' for Active; 'I' for Inactive)
REMARK    1  A    between atoms: C2_2  and  C4_7 
REMARK    2  A    between atoms: C4_7  and  C5_8 
ROOT
ATOM      1  C1  <0> d          -3.110   0.483   1.107  0.00  0.00     0.034 A 
ATOM      2  C2  <0> d          -2.461   0.945   0.019  0.00  0.00     0.040 A 
ATOM      3  C3  <0> d          -3.029   0.333  -1.123  0.00  0.00     0.269 A 
ATOM      4  O1  <0> d          -2.689   0.511  -2.279  0.00  0.00    -0.266 OA
ATOM      5  N1  <0> d          -4.015  -0.485  -0.700  0.00  0.00    -0.243 N 
ATOM      6  N2  <0> d          -4.070  -0.398   0.697  0.00  0.00    -0.184 NA
ATOM      7  H1  <0> d          -2.905   0.762   2.130  0.00  0.00     0.118 H 
ATOM      8  H4  <0> d          -4.600  -1.065  -1.430  0.00  0.00     0.192 HD
ENDROOT
BRANCH   2   9
ATOM      9  C4  <0> d          -1.329   1.939   0.019  0.00  0.00     0.046 C 
ATOM     10  H2  <0> d          -1.400   2.576  -0.875  0.00  0.00     0.056 H 
ATOM     11  H3  <0> d          -1.392   2.566   0.921  0.00  0.00     0.056 H 
BRANCH   9  12
ATOM     12  C5  <0> d          -0.014   1.204   0.008  0.00  0.00     0.177 C 
ATOM     13  O2  <0> d           0.002  -0.004   0.002  0.00  0.00    -0.648 OA
ATOM     14  O3  <0> d           1.139   1.891   0.001  0.00  0.00    -0.648 OA
ENDBRANCH   9  12
ENDBRANCH   2   9
TORSDOF 2
