REMARK  2 active torsions:
REMARK  status: ('A' for Active; 'I' for Inactive)
REMARK    1  A    between atoms: C2_2  and  C4_7 
REMARK    2  A    between atoms: C4_7  and  O3_8 
ROOT
ATOM      1  C1  <0> d           0.002  -0.004   0.002  0.00  0.00     0.048 C 
ATOM      2  C2  <0> d           1.366  -0.380  -0.610  0.00  0.00     0.082 C 
ATOM      3  H1  <0> d           1.959  -0.950   0.105  0.00  0.00     0.090 H 
ATOM      4  O1  <0> d           2.005   0.882  -0.898  0.00  0.00    -0.357 OA
ATOM      5  C3  <0> d           1.375   1.822  -0.001  0.00  0.00     0.103 C 
ATOM      6  O2  <0> d          -0.018   1.439   0.010  0.00  0.00    -0.364 OA
ATOM      7  H2  <0> d          -0.076  -0.390   1.018  0.00  0.00     0.078 H 
ATOM      8  H3  <0> d          -0.811  -0.391  -0.613  0.00  0.00     0.078 H 
ATOM      9  H4  <0> d           1.486   2.839  -0.378  0.00  0.00     0.117 H 
ATOM     10  H5  <0> d           1.800   1.737   0.999  0.00  0.00     0.117 H 
ENDROOT
BRANCH   2  11
ATOM     11  C4  <0> d           1.168  -1.182  -1.898  0.00  0.00     0.043 C 
ATOM     12  H6  <0> d           0.540  -2.048  -1.694  0.00  0.00     0.078 H 
ATOM     13  H7  <0> d           0.688  -0.553  -2.648  0.00  0.00     0.078 H 
BRANCH  11  14
ATOM     14  O3  <0> d           2.438  -1.619  -2.387  0.00  0.00    -0.398 OA
ATOM     15  H8  <0> d           2.389  -2.135  -3.203  0.00  0.00     0.209 HD
ENDBRANCH  11  14
ENDBRANCH   2  11
TORSDOF 2
