REMARK  2 active torsions:
REMARK  status: ('A' for Active; 'I' for Inactive)
REMARK    1  A    between atoms: C1_1  and  N1_2 
REMARK    2  A    between atoms: C7_8  and  N2_11 
ROOT
ATOM      1  N1  <0> d           0.002  -0.004   0.002  0.00  0.00    -0.360 N 
ATOM      2  C2  <0> d           0.008  -0.785  -1.124  0.00  0.00    -0.020 A 
ATOM      3  C3  <0> d           0.028  -2.082  -0.780  0.00  0.00    -0.056 A 
ATOM      4  C4  <0> d           0.035  -2.138   0.685  0.00  0.00    -0.008 A 
ATOM      5  C5  <0> d           0.024  -0.801   1.125  0.00  0.00     0.046 A 
ATOM      6  C6  <0> d           0.032  -0.531   2.489  0.00  0.00    -0.031 A 
ATOM      7  C7  <0> d           0.054  -1.577   3.395  0.00  0.00     0.027 A 
ATOM      8  C8  <0> d           0.069  -2.899   2.950  0.00  0.00    -0.057 A 
ATOM      9  C9  <0> d           0.053  -3.180   1.614  0.00  0.00    -0.069 A 
ATOM     10  H4  <0> d          -0.002  -0.412  -2.137  0.00  0.00     0.111 H 
ATOM     11  H5  <0> d           0.036  -2.925  -1.455  0.00  0.00     0.086 H 
ATOM     12  H6  <0> d           0.021   0.490   2.839  0.00  0.00     0.090 H 
ATOM     13  H7  <0> d           0.087  -3.706   3.668  0.00  0.00     0.086 H 
ATOM     14  H8  <0> d           0.066  -4.205   1.277  0.00  0.00     0.085 H 
ENDROOT
BRANCH   1  15
ATOM     15  C1  <0> d          -0.018   1.461   0.010  0.00  0.00    -0.014 C 
ATOM     16  H1  <0> d           1.005   1.838   0.002  0.00  0.00     0.057 H 
ATOM     17  H2  <0> d          -0.545   1.822  -0.873  0.00  0.00     0.057 H 
ATOM     18  H3  <0> d          -0.528   1.812   0.907  0.00  0.00     0.057 H 
ENDBRANCH   1  15
BRANCH   7  19
ATOM     19  N2  <0> d           0.062  -1.307   4.766  0.00  0.00    -0.399 N 
ATOM     20  H9  <0> d           0.052  -0.389   5.080  0.00  0.00     0.156 HD
ATOM     21  H10 <0> d           0.078  -2.037   5.405  0.00  0.00     0.156 HD
ENDBRANCH   7  19
TORSDOF 2
