REMARK  0 active torsions:
REMARK  status: ('A' for Active; 'I' for Inactive)
ROOT
ATOM      1  C1  <0> d          -0.387   1.846  -1.490  0.00  0.00    -0.051 C 
ATOM      2  C2  <0> d          -0.019   1.556   0.011  0.00  0.00    -0.031 C 
ATOM      3  H1  <0> d          -0.638   2.026   0.776  0.00  0.00     0.046 H 
ATOM      4  C3  <0> d           1.462   1.952  -0.001  0.00  0.00    -0.102 C 
ATOM      5  C4  <0> d           1.962   1.659  -1.185  0.00  0.00    -0.101 C 
ATOM      6  C5  <0> d           0.849   1.047  -2.043  0.00  0.00    -0.025 C 
ATOM      7  H2  <0> d           1.009   1.058  -3.121  0.00  0.00     0.047 H 
ATOM      8  C6  <0> d           0.596  -0.352  -1.398  0.00  0.00     0.043 C 
ATOM      9  H3  <0> d          -0.051  -0.998  -1.991  0.00  0.00     0.057 H 
ATOM     10  C7  <0> d           0.002  -0.004   0.002  0.00  0.00    -0.013 C 
ATOM     11  H4  <0> d          -0.970  -0.454   0.205  0.00  0.00     0.045 H 
ATOM     12  C8  <0> d           1.111  -0.469   0.968  0.00  0.00     0.034 C 
ATOM     13  O1  <0> d           2.309  -0.594   0.146  0.00  0.00    -0.321 OA
ATOM     14  C9  <0> d           1.939  -0.978  -1.088  0.00  0.00     0.264 C 
ATOM     15  O2  <0> d           2.569  -1.700  -1.824  0.00  0.00    -0.265 OA
ATOM     16  H5  <0> d          -1.338   1.399  -1.781  0.00  0.00     0.035 H 
ATOM     17  H6  <0> d          -0.341   2.908  -1.734  0.00  0.00     0.035 H 
ATOM     18  H7  <0> d           2.004   2.397   0.821  0.00  0.00     0.077 H 
ATOM     19  H8  <0> d           2.983   1.823  -1.498  0.00  0.00     0.077 H 
ATOM     20  H9  <0> d           1.265   0.273   1.751  0.00  0.00     0.075 H 
ATOM     21  H10 <0> d           0.850  -1.433   1.407  0.00  0.00     0.075 H 
ENDROOT
TORSDOF 0
