REMARK  2 active torsions:
REMARK  status: ('A' for Active; 'I' for Inactive)
REMARK    1  A    between atoms: C1_1  and  C2_2 
REMARK    2  A    between atoms: C2_2  and  C3_3 
ROOT
ATOM      1  C3  <0> d          -0.718   1.572   1.248  0.00  0.00     0.016 A 
ATOM      2  C4  <0> d          -1.732   0.809   1.833  0.00  0.00     0.056 A 
ATOM      3  C5  <0> d          -2.354   1.307   2.985  0.00  0.00    -0.047 A 
ATOM      4  C6  <0> d          -1.948   2.522   3.495  0.00  0.00    -0.019 A 
ATOM      5  N1  <0> d          -0.986   3.215   2.916  0.00  0.00    -0.344 N 
ATOM      6  C7  <0> d          -0.367   2.782   1.830  0.00  0.00     0.186 A 
ATOM      7  O1  <0> d           0.619   3.531   1.276  0.00  0.00    -0.172 OA
ATOM      8  C8  <0> d          -2.124  -0.448   1.270  0.00  0.00     0.100 C 
ATOM      9  N2  <0> d          -2.435  -1.446   0.824  0.00  0.00    -0.191 NA
ATOM     10  H6  <0> d          -3.142   0.746   3.467  0.00  0.00     0.087 H 
ATOM     11  H7  <0> d          -2.423   2.912   4.383  0.00  0.00     0.111 H 
ATOM     12  H8  <0> d          -0.677   4.184   3.334  0.00  0.00     0.167 HD
ENDROOT
BRANCH   1  13
ATOM     13  C2  <0> d          -0.013   1.086   0.008  0.00  0.00    -0.039 C 
ATOM     14  H4  <0> d           0.002  -0.014   0.002  0.00  0.00     0.039 H 
ATOM     15  H5  <0> d           1.019   1.466   0.000  0.00  0.00     0.039 H 
BRANCH  13  16
ATOM     16  C1  <0> d          -0.753   1.593  -1.232  0.00  0.00    -0.072 C 
ATOM     17  H1  <0> d          -0.238   1.238  -2.136  0.00  0.00     0.028 H 
ATOM     18  H2  <0> d          -0.768   2.693  -1.225  0.00  0.00     0.028 H 
ATOM     19  H3  <0> d          -1.785   1.212  -1.224  0.00  0.00     0.028 H 
ENDBRANCH  13  16
ENDBRANCH   1  13
TORSDOF 2
