REMARK  4 active torsions:
REMARK  status: ('A' for Active; 'I' for Inactive)
REMARK    1  A    between atoms: C1_1  and  C2_2 
REMARK    2  A    between atoms: C3_4  and  O4_14 
REMARK    3  A    between atoms: C4_6  and  O3_13 
REMARK    4  A    between atoms: C6_9  and  O2_12 
ROOT
ATOM      1  C2  <0> d           3.340   1.667   1.233  0.00  0.00     0.065 C 
ATOM      2  H1  <0> d           3.904   1.360   0.352  0.00  0.00     0.086 H 
ATOM      3  C3  <0> d           3.281   3.196   1.293  0.00  0.00     0.085 C 
ATOM      4  H2  <0> d           4.294   3.599   1.307  0.00  0.00     0.090 H 
ATOM      5  C4  <0> d           2.539   3.720   0.060  0.00  0.00     0.067 C 
ATOM      6  H3  <0> d           3.093   3.454  -0.840  0.00  0.00     0.087 H 
ATOM      7  C5  <0> d           1.145   3.086   0.009  0.00  0.00     0.007 C 
ATOM      8  C6  <0> d           1.286   1.562  -0.002  0.00  0.00     0.131 C 
ATOM      9  H4  <0> d           1.823   1.253  -0.899  0.00  0.00     0.128 H 
ATOM     10  O1  <0> d           2.013   1.144   1.156  0.00  0.00    -0.354 OA
ATOM     11  H8  <0> d           0.630   3.411  -0.895  0.00  0.00     0.044 H 
ATOM     12  H9  <0> d           0.573   3.393   0.885  0.00  0.00     0.044 H 
ENDROOT
BRANCH   1  13
ATOM     13  C1  <0> d           4.027   1.133   2.491  0.00  0.00    -0.050 C 
ATOM     14  H5  <0> d           4.068   0.045   2.448  0.00  0.00     0.031 H 
ATOM     15  H6  <0> d           5.040   1.533   2.549  0.00  0.00     0.031 H 
ATOM     16  H7  <0> d           3.464   1.441   3.371  0.00  0.00     0.031 H 
ENDBRANCH   1  13
BRANCH   3  17
ATOM     17  O4  <0> d           2.589   3.601   2.476  0.00  0.00    -0.390 OA
ATOM     18  H12 <0> d           2.514   4.559   2.580  0.00  0.00     0.210 HD
ENDBRANCH   3  17
BRANCH   8  19
ATOM     19  O2  <0> d          -0.011   0.963   0.007  0.00  0.00    -0.371 OA
ATOM     20  H10 <0> d           0.002  -0.004   0.002  0.00  0.00     0.212 HD
ENDBRANCH   8  19
BRANCH   5  21
ATOM     21  O3  <0> d           2.417   5.141   0.144  0.00  0.00    -0.393 OA
ATOM     22  H11 <0> d           1.955   5.541  -0.606  0.00  0.00     0.210 HD
ENDBRANCH   5  21
TORSDOF 4
