REMARK  2 active torsions:
REMARK  status: ('A' for Active; 'I' for Inactive)
REMARK    1  A    between atoms: C3_3  and  C6_7 
REMARK    2  A    between atoms: C6_7  and  N2_8 
REMARK       I    between atoms: N2_8  and  C7_9 
REMARK       I    between atoms: C7_9  and  N3_11 
ROOT
ATOM      1  C1  <0> d          -0.017   1.378   0.010  0.00  0.00    -0.065 A 
ATOM      2  C2  <0> d           1.185   2.070   0.002  0.00  0.00    -0.072 A 
ATOM      3  C3  <0> d           2.365   1.343  -0.013  0.00  0.00    -0.023 A 
ATOM      4  C4  <0> d           2.305  -0.038  -0.020  0.00  0.00     0.009 A 
ATOM      5  N1  <0> d           1.144  -0.663  -0.013  0.00  0.00    -0.273 NA
ATOM      6  C5  <0> d           0.002  -0.004   0.002  0.00  0.00     0.002 A 
ATOM      7  H1  <0> d          -0.955   1.912   0.026  0.00  0.00     0.085 H 
ATOM      8  H2  <0> d           1.201   3.150   0.007  0.00  0.00     0.084 H 
ATOM      9  H3  <0> d           3.220  -0.612  -0.032  0.00  0.00     0.115 H 
ATOM     10  H4  <0> d          -0.929  -0.550   0.008  0.00  0.00     0.114 H 
ENDROOT
BRANCH   3  11
ATOM     11  C6  <0> d           3.696   2.049  -0.023  0.00  0.00     0.022 C 
ATOM     12  H5  <0> d           4.429   1.435  -0.547  0.00  0.00     0.071 H 
ATOM     13  H6  <0> d           3.595   3.008  -0.531  0.00  0.00     0.071 H 
BRANCH  11  14
ATOM     14  N2  <0> d           4.141   2.271   1.355  0.00  0.00    -0.339 N 
ATOM     15  C7  <0> d           5.314   2.890   1.593  0.00  0.00     0.314 C 
ATOM     16  O1  <0> d           6.003   3.265   0.664  0.00  0.00    -0.248 OA
ATOM     17  N3  <0> d           5.723   3.095   2.861  0.00  0.00    -0.352 N 
ATOM     18  H8  <0> d           5.174   2.795   3.602  0.00  0.00     0.160 HD
ATOM     19  H9  <0> d           6.568   3.541   3.032  0.00  0.00     0.160 HD
ATOM     20  H7  <0> d           3.592   1.972   2.096  0.00  0.00     0.164 HD
ENDBRANCH  11  14
ENDBRANCH   3  11
TORSDOF 2
