REMARK  2 active torsions:
REMARK  status: ('A' for Active; 'I' for Inactive)
REMARK    1  A    between atoms: C1_1  and  O1_2 
REMARK    2  A    between atoms: O1_2  and  C2_3 
ROOT
ATOM      1  O1  <0> d          -0.686   1.856   1.185  0.00  0.00    -0.303 OA
ENDROOT
BRANCH   1   2
ATOM      2  C1  <0> d          -0.072   1.435   2.406  0.00  0.00     0.013 C 
ATOM      3  H1  <0> d           0.949   1.814   2.448  0.00  0.00     0.066 H 
ATOM      4  H2  <0> d          -0.639   1.826   3.251  0.00  0.00     0.066 H 
ATOM      5  H3  <0> d          -0.058   0.346   2.449  0.00  0.00     0.066 H 
ENDBRANCH   1   2
BRANCH   1   6
ATOM      6  C2  <0> d          -0.017   1.395   0.010  0.00  0.00     0.524 C 
ATOM      7  F1  <0> d           0.002  -0.004   0.002  0.00  0.00    -0.144 F 
ATOM      8  F2  <0> d           1.296   1.879  -0.000  0.00  0.00    -0.144 F 
ATOM      9  F3  <0> d          -0.694   1.858  -1.124  0.00  0.00    -0.144 F 
ENDBRANCH   1   6
TORSDOF 2
