REMARK  2 active torsions:
REMARK  status: ('A' for Active; 'I' for Inactive)
REMARK    1  A    between atoms: C1_1  and  N1_2 
REMARK    2  A    between atoms: N1_2  and  C2_3 
ROOT
ATOM      1  C2  <0> d           0.625  -0.698   1.037  0.00  0.00     0.162 A 
ATOM      2  C3  <0> d           0.726  -2.041   1.159  0.00  0.00     0.053 A 
ATOM      3  N2  <0> d           1.399  -2.296   2.296  0.00  0.00    -0.244 NA
ATOM      4  C4  <0> d           1.707  -1.166   2.863  0.00  0.00     0.105 A 
ATOM      5  O1  <0> d           1.246  -0.158   2.105  0.00  0.00    -0.286 OA
ATOM      6  H5  <0> d           0.336  -2.775   0.469  0.00  0.00     0.121 H 
ATOM      7  H6  <0> d           2.249  -1.056   3.791  0.00  0.00     0.155 H 
ENDROOT
BRANCH   1   8
ATOM      8  N1  <0> d           0.002  -0.004   0.002  0.00  0.00    -0.374 N 
ATOM      9  H4  <0> d          -0.418  -0.491  -0.724  0.00  0.00     0.161 HD
BRANCH   8  10
ATOM     10  C1  <0> d          -0.018   1.461   0.010  0.00  0.00    -0.019 C 
ATOM     11  H1  <0> d           1.005   1.838   0.002  0.00  0.00     0.056 H 
ATOM     12  H2  <0> d          -0.545   1.822  -0.873  0.00  0.00     0.056 H 
ATOM     13  H3  <0> d          -0.528   1.812   0.907  0.00  0.00     0.056 H 
ENDBRANCH   8  10
ENDBRANCH   1   8
TORSDOF 2
