REMARK  0 active torsions:
REMARK  status: ('A' for Active; 'I' for Inactive)
ROOT
ATOM      1  C1  <0> d          -3.294  -0.123  -0.799  0.00  0.00    -0.065 C 
ATOM      2  C2  <0> d          -2.274   0.422  -1.802  0.00  0.00    -0.063 C 
ATOM      3  C3  <0> d          -1.847   1.830  -1.378  0.00  0.00    -0.042 C 
ATOM      4  C4  <0> d          -1.230   1.777   0.017  0.00  0.00     0.033 C 
ATOM      5  C5  <0> d          -2.234   1.219   1.022  0.00  0.00    -0.042 C 
ATOM      6  C6  <0> d          -2.660  -0.187   0.592  0.00  0.00    -0.063 C 
ATOM      7  C7  <0> d          -0.790   3.191   0.451  0.00  0.00    -0.034 C 
ATOM      8  C8  <0> d           0.695   3.202   0.016  0.00  0.00     0.011 C 
ATOM      9  C9  <0> d           1.088   1.741   0.001  0.00  0.00     0.218 C 
ATOM     10  O1  <0> d           2.229   1.329  -0.014  0.00  0.00    -0.274 OA
ATOM     11  N1  <0> d          -0.011   0.966   0.007  0.00  0.00    -0.352 N 
ATOM     12  H1  <0> d          -4.163   0.533  -0.773  0.00  0.00     0.033 H 
ATOM     13  H2  <0> d          -3.603  -1.123  -1.104  0.00  0.00     0.033 H 
ATOM     14  H3  <0> d          -2.725   0.462  -2.793  0.00  0.00     0.033 H 
ATOM     15  H4  <0> d          -1.402  -0.231  -1.825  0.00  0.00     0.033 H 
ATOM     16  H5  <0> d          -2.717   2.485  -1.366  0.00  0.00     0.036 H 
ATOM     17  H6  <0> d          -1.112   2.215  -2.086  0.00  0.00     0.036 H 
ATOM     18  H7  <0> d          -1.773   1.172   2.009  0.00  0.00     0.036 H 
ATOM     19  H8  <0> d          -3.109   1.868   1.060  0.00  0.00     0.036 H 
ATOM     20  H9  <0> d          -3.386  -0.581   1.304  0.00  0.00     0.033 H 
ATOM     21  H10 <0> d          -1.787  -0.839   0.564  0.00  0.00     0.033 H 
ATOM     22  H11 <0> d          -0.882   3.318   1.530  0.00  0.00     0.037 H 
ATOM     23  H12 <0> d          -1.358   3.955  -0.080  0.00  0.00     0.037 H 
ATOM     24  H13 <0> d           1.299   3.752   0.737  0.00  0.00     0.047 H 
ATOM     25  H14 <0> d           0.799   3.636  -0.978  0.00  0.00     0.047 H 
ATOM     26  H15 <0> d           0.002  -0.004   0.002  0.00  0.00     0.163 HD
ENDROOT
TORSDOF 0
