REMARK  2 active torsions:
REMARK  status: ('A' for Active; 'I' for Inactive)
REMARK    1  A    between atoms: C4_6  and  C5_8 
REMARK    2  A    between atoms: C5_8  and  C6_9 
ROOT
ATOM      1  C1  <0> d          -0.013   1.086   0.008  0.00  0.00    -0.032 C 
ATOM      2  C2  <0> d          -0.797   1.615   1.230  0.00  0.00     0.018 C 
ATOM      3  C3  <0> d          -1.676   2.706   0.638  0.00  0.00     0.259 C 
ATOM      4  O1  <0> d          -2.056   3.704   1.203  0.00  0.00    -0.265 OA
ATOM      5  O2  <0> d          -1.950   2.353  -0.631  0.00  0.00    -0.316 OA
ATOM      6  C4  <0> d          -0.819   1.627  -1.191  0.00  0.00     0.057 C 
ATOM      7  H1  <0> d          -0.200   2.298  -1.786  0.00  0.00     0.085 H 
ATOM      8  H2  <0> d           0.002  -0.004   0.002  0.00  0.00     0.037 H 
ATOM      9  H3  <0> d           1.002   1.483   0.001  0.00  0.00     0.037 H 
ATOM     10  H4  <0> d          -1.408   0.824   1.665  0.00  0.00     0.048 H 
ATOM     11  H5  <0> d          -0.116   2.028   1.974  0.00  0.00     0.048 H 
ENDROOT
BRANCH   6  12
ATOM     12  C5  <0> d          -1.316   0.466  -2.055  0.00  0.00     0.040 C 
ATOM     13  H6  <0> d          -0.471  -0.154  -2.352  0.00  0.00     0.053 H 
ATOM     14  H7  <0> d          -2.025  -0.134  -1.485  0.00  0.00     0.053 H 
BRANCH  12  15
ATOM     15  C6  <0> d          -1.995   1.012  -3.285  0.00  0.00     0.175 C 
ATOM     16  O3  <0> d          -2.073   2.206  -3.453  0.00  0.00    -0.648 OA
ATOM     17  O4  <0> d          -2.514   0.171  -4.194  0.00  0.00    -0.648 OA
ENDBRANCH  12  15
ENDBRANCH   6  12
TORSDOF 2
