REMARK  5 active torsions:
REMARK  status: ('A' for Active; 'I' for Inactive)
REMARK    1  A    between atoms: C1_1  and  C2_2 
REMARK    2  A    between atoms: C2_2  and  O1_3 
REMARK    3  A    between atoms: O1_3  and  C3_4 
REMARK    4  A    between atoms: C3_4  and  C4_6 
REMARK    5  A    between atoms: C5_7  and  C6_11 
ROOT
ATOM      1  C3  <0> d          -1.497  -1.837   0.006  0.00  0.00     0.316 C 
ATOM      2  O2  <0> d          -0.523  -2.564  -0.007  0.00  0.00    -0.257 OA
ENDROOT
BRANCH   1   3
ATOM      3  O1  <0> d          -1.339  -0.499   0.012  0.00  0.00    -0.317 OA
BRANCH   3   4
ATOM      4  C2  <0> d           0.002  -0.004   0.002  0.00  0.00     0.026 C 
ATOM      5  H4  <0> d           0.512  -0.356  -0.895  0.00  0.00     0.074 H 
ATOM      6  H5  <0> d           0.529  -0.365   0.885  0.00  0.00     0.074 H 
BRANCH   4   7
ATOM      7  C1  <0> d          -0.019   1.526   0.010  0.00  0.00    -0.056 C 
ATOM      8  H1  <0> d           1.004   1.903   0.003  0.00  0.00     0.030 H 
ATOM      9  H2  <0> d          -0.546   1.887  -0.873  0.00  0.00     0.030 H 
ATOM     10  H3  <0> d          -0.529   1.877   0.907  0.00  0.00     0.030 H 
ENDBRANCH   4   7
ENDBRANCH   3   4
ENDBRANCH   1   3
BRANCH   1  11
ATOM     11  C4  <0> d          -2.850  -2.418   0.016  0.00  0.00     0.187 A 
ATOM     12  N2  <0> d          -4.007  -1.726   0.032  0.00  0.00    -0.117 NA
ATOM     13  N1  <0> d          -4.970  -2.500   0.033  0.00  0.00    -0.017 NA
ATOM     14  O3  <0> d          -4.488  -3.833   0.028  0.00  0.00    -0.198 OA
ATOM     15  C5  <0> d          -3.148  -3.751   0.018  0.00  0.00     0.113 A 
BRANCH  15  16
ATOM     16  C6  <0> d          -2.170  -4.898   0.009  0.00  0.00    -0.027 C 
ATOM     17  H6  <0> d          -1.926  -5.175   1.034  0.00  0.00     0.036 H 
ATOM     18  H7  <0> d          -2.616  -5.751  -0.502  0.00  0.00     0.036 H 
ATOM     19  H8  <0> d          -1.261  -4.596  -0.512  0.00  0.00     0.036 H 
ENDBRANCH  15  16
ENDBRANCH   1  11
TORSDOF 5
