REMARK  3 active torsions:
REMARK  status: ('A' for Active; 'I' for Inactive)
REMARK    1  A    between atoms: C1_1  and  C2_2 
REMARK       I    between atoms: C2_2  and  N1_4 
REMARK    2  A    between atoms: N1_4  and  C3_5 
REMARK    3  A    between atoms: C6_8  and  N3_11 
ROOT
ATOM      1  C3  <0> d           2.374   1.336  -0.011  0.00  0.00     0.129 A 
ATOM      2  C4  <0> d           1.190   2.065   0.005  0.00  0.00    -0.036 A 
ATOM      3  C5  <0> d          -0.017   1.390   0.015  0.00  0.00    -0.053 A 
ATOM      4  C6  <0> d           0.002  -0.004   0.007  0.00  0.00     0.043 A 
ATOM      5  C7  <0> d           1.222  -0.663  -0.010  0.00  0.00     0.029 A 
ATOM      6  N2  <0> d           2.354   0.014  -0.018  0.00  0.00    -0.241 NA
ATOM      7  H5  <0> d           1.213   3.145   0.011  0.00  0.00     0.089 H 
ATOM      8  H6  <0> d          -0.952   1.930   0.024  0.00  0.00     0.087 H 
ATOM      9  H7  <0> d           1.245  -1.743  -0.016  0.00  0.00     0.118 H 
ENDROOT
BRANCH   1  10
ATOM     10  N1  <0> d           3.598   2.008  -0.021  0.00  0.00    -0.312 N 
ATOM     11  C2  <0> d           4.749   1.313   0.066  0.00  0.00     0.219 C 
ATOM     12  O1  <0> d           4.727   0.101   0.061  0.00  0.00    -0.274 OA
ATOM     13  H4  <0> d           3.620   2.976  -0.091  0.00  0.00     0.170 HD
BRANCH  11  14
ATOM     14  C1  <0> d           6.064   2.042   0.171  0.00  0.00    -0.002 C 
ATOM     15  H1  <0> d           5.885   3.118   0.161  0.00  0.00     0.040 H 
ATOM     16  H2  <0> d           6.560   1.766   1.102  0.00  0.00     0.040 H 
ATOM     17  H3  <0> d           6.698   1.772  -0.673  0.00  0.00     0.040 H 
ENDBRANCH  11  14
ENDBRANCH   1  10
BRANCH   4  18
ATOM     18  N3  <0> d          -1.195  -0.728   0.016  0.00  0.00    -0.398 N 
ATOM     19  H8  <0> d          -2.045  -0.261   0.028  0.00  0.00     0.156 HD
ATOM     20  H9  <0> d          -1.175  -1.698   0.011  0.00  0.00     0.156 HD
ENDBRANCH   4  18
TORSDOF 3
