REMARK  4 active torsions:
REMARK  status: ('A' for Active; 'I' for Inactive)
REMARK    1  A    between atoms: C3_3  and  O4_14 
REMARK    2  A    between atoms: C4_5  and  O3_13 
REMARK    3  A    between atoms: C5_7  and  O2_12 
REMARK    4  A    between atoms: C6_9  and  O1_11 
ROOT
ATOM      1  C1  <0> d           2.198   1.859  -2.279  0.00  0.00    -0.074 C 
ATOM      2  C2  <0> d           2.029   1.121  -1.229  0.00  0.00    -0.074 C 
ATOM      3  C3  <0> d           1.286   1.562  -0.002  0.00  0.00     0.079 C 
ATOM      4  H1  <0> d           1.837   1.246   0.884  0.00  0.00     0.093 H 
ATOM      5  C4  <0> d           1.142   3.085   0.008  0.00  0.00     0.091 C 
ATOM      6  H2  <0> d           2.114   3.544   0.187  0.00  0.00     0.091 H 
ATOM      7  C5  <0> d           0.606   3.530  -1.359  0.00  0.00     0.091 C 
ATOM      8  H3  <0> d           0.372   4.595  -1.332  0.00  0.00     0.091 H 
ATOM      9  C6  <0> d           1.683   3.262  -2.412  0.00  0.00     0.079 C 
ATOM     10  H4  <0> d           2.507   3.962  -2.272  0.00  0.00     0.093 H 
ATOM     11  H5  <0> d           2.743   1.438  -3.111  0.00  0.00     0.080 H 
ATOM     12  H6  <0> d           2.449   0.126  -1.236  0.00  0.00     0.080 H 
ENDROOT
BRANCH   3  13
ATOM     13  O4  <0> d          -0.011   0.963   0.007  0.00  0.00    -0.389 OA
ATOM     14  H10 <0> d           0.002  -0.004   0.002  0.00  0.00     0.210 HD
ENDBRANCH   3  13
BRANCH   5  15
ATOM     15  O3  <0> d           0.226   3.474   1.033  0.00  0.00    -0.390 OA
ATOM     16  H9  <0> d           0.496   3.209   1.923  0.00  0.00     0.210 HD
ENDBRANCH   5  15
BRANCH   7  17
ATOM     17  O2  <0> d          -0.573   2.788  -1.677  0.00  0.00    -0.390 OA
ATOM     18  H8  <0> d          -0.965   3.019  -2.530  0.00  0.00     0.210 HD
ENDBRANCH   7  17
BRANCH   9  19
ATOM     19  O1  <0> d           1.126   3.440  -3.716  0.00  0.00    -0.389 OA
ATOM     20  H7  <0> d           1.753   3.287  -4.436  0.00  0.00     0.210 HD
ENDBRANCH   9  19
TORSDOF 4
