REMARK  2 active torsions:
REMARK  status: ('A' for Active; 'I' for Inactive)
REMARK    1  A    between atoms: C1_1  and  O1_2 
REMARK    2  A    between atoms: O1_2  and  C2_3 
ROOT
ATOM      1  C2  <0> d           1.144   2.107   0.002  0.00  0.00     0.097 A 
ATOM      2  C3  <0> d          -0.017   1.388   0.010  0.00  0.00    -0.048 A 
ATOM      3  C4  <0> d           0.002  -0.004   0.002  0.00  0.00    -0.079 A 
ATOM      4  C5  <0> d           1.180  -0.688  -0.013  0.00  0.00    -0.071 A 
ATOM      5  C6  <0> d           2.394   0.016  -0.021  0.00  0.00    -0.005 A 
ATOM      6  C7  <0> d           2.383   1.433  -0.013  0.00  0.00     0.100 A 
ATOM      7  N1  <0> d           3.536   2.107  -0.021  0.00  0.00    -0.257 NA
ATOM      8  C8  <0> d           4.690   1.485  -0.036  0.00  0.00     0.003 A 
ATOM      9  C9  <0> d           4.772   0.094  -0.044  0.00  0.00    -0.065 A 
ATOM     10  C10 <0> d           3.631  -0.656  -0.037  0.00  0.00    -0.069 A 
ATOM     11  H4  <0> d          -0.964   1.907   0.017  0.00  0.00     0.087 H 
ATOM     12  H5  <0> d          -0.930  -0.549   0.008  0.00  0.00     0.083 H 
ATOM     13  H6  <0> d           1.179  -1.768  -0.018  0.00  0.00     0.084 H 
ATOM     14  H7  <0> d           5.600   2.066  -0.042  0.00  0.00     0.114 H 
ATOM     15  H8  <0> d           5.737  -0.390  -0.057  0.00  0.00     0.085 H 
ATOM     16  H9  <0> d           3.676  -1.735  -0.043  0.00  0.00     0.085 H 
ENDROOT
BRANCH   1  17
ATOM     17  O1  <0> d           1.106   3.465   0.010  0.00  0.00    -0.354 OA
BRANCH  17  18
ATOM     18  C1  <0> d          -0.184   4.078   0.025  0.00  0.00     0.010 C 
ATOM     19  H1  <0> d          -0.071   5.172   0.029  0.00  0.00     0.066 H 
ATOM     20  H2  <0> d          -0.730   3.762   0.927  0.00  0.00     0.066 H 
ATOM     21  H3  <0> d          -0.746   3.771  -0.870  0.00  0.00     0.066 H 
ENDBRANCH  17  18
ENDBRANCH   1  17
TORSDOF 2
