REMARK  1 active torsions:
REMARK  status: ('A' for Active; 'I' for Inactive)
REMARK    1  A    between atoms: C7_8  and  N4_11 
ROOT
ATOM      1  C1  <0> d           1.195  -0.660  -0.013  0.00  0.00    -0.081 A 
ATOM      2  C2  <0> d           2.400   0.041  -0.021  0.00  0.00    -0.081 A 
ATOM      3  C3  <0> d           2.420   1.402  -0.013  0.00  0.00    -0.051 A 
ATOM      4  C4  <0> d           1.210   2.114   0.002  0.00  0.00     0.109 A 
ATOM      5  C5  <0> d          -0.017   1.399   0.010  0.00  0.00     0.106 A 
ATOM      6  C6  <0> d           0.002  -0.004   0.002  0.00  0.00    -0.052 A 
ATOM      7  N1  <0> d          -1.163   2.090   0.019  0.00  0.00    -0.060 NA
ATOM      8  C7  <0> d          -1.115   3.410   0.030  0.00  0.00     0.739 A 
ATOM      9  N2  <0> d           0.047   4.066   0.022  0.00  0.00     0.044 NA
ATOM     10  N3  <0> d           1.179   3.450   0.009  0.00  0.00    -0.132 NA
ATOM     11  H1  <0> d           1.208  -1.740  -0.019  0.00  0.00     0.083 H 
ATOM     12  H2  <0> d           3.332  -0.505  -0.032  0.00  0.00     0.083 H 
ATOM     13  H3  <0> d           3.362   1.931  -0.019  0.00  0.00     0.087 H 
ATOM     14  H4  <0> d          -0.924  -0.560   0.007  0.00  0.00     0.087 H 
ENDROOT
BRANCH   8  15
ATOM     15  N4  <0> d          -2.297   4.129   0.045  0.00  0.00    -0.230 N 
ATOM     16  H5  <0> d          -2.275   5.099   0.050  0.00  0.00     0.174 HD
ATOM     17  H6  <0> d          -3.148   3.663   0.051  0.00  0.00     0.174 HD
ENDBRANCH   8  15
TORSDOF 1
