REMARK  2 active torsions:
REMARK  status: ('A' for Active; 'I' for Inactive)
REMARK    1  A    between atoms: C2_2  and  N1_3 
REMARK    2  A    between atoms: C6_7  and  C7_8 
ROOT
ATOM      1  N1  <0> d          -3.631   2.215  -0.062  0.00  0.00    -0.331 N 
ATOM      2  C3  <0> d          -4.740   1.416  -0.031  0.00  0.00    -0.015 A 
ATOM      3  C4  <0> d          -4.340   0.131   0.078  0.00  0.00    -0.065 A 
ATOM      4  C5  <0> d          -2.936   0.119   0.111  0.00  0.00    -0.053 A 
ATOM      5  C6  <0> d          -2.515   1.415   0.020  0.00  0.00     0.072 A 
ATOM      6  H4  <0> d          -5.764   1.756  -0.081  0.00  0.00     0.112 H 
ATOM      7  H5  <0> d          -4.985  -0.734   0.131  0.00  0.00     0.085 H 
ATOM      8  H6  <0> d          -2.305  -0.754   0.194  0.00  0.00     0.087 H 
ENDROOT
BRANCH   5   9
ATOM      9  C7  <0> d          -1.117   1.874   0.017  0.00  0.00     0.102 A 
ATOM     10  O1  <0> d          -0.705   3.157   0.024  0.00  0.00    -0.320 OA
ATOM     11  C10 <0> d           0.638   3.195   0.012  0.00  0.00     0.019 A 
ATOM     12  C9  <0> d           1.106   1.932   0.002  0.00  0.00    -0.059 A 
ATOM     13  H9  <0> d           1.242   4.090   0.011  0.00  0.00     0.123 H 
ATOM     14  C8  <0> d          -0.013   1.076   0.008  0.00  0.00    -0.046 A 
ATOM     15  H8  <0> d           2.144   1.632  -0.009  0.00  0.00     0.086 H 
ATOM     16  H7  <0> d           0.002  -0.004   0.002  0.00  0.00     0.087 H 
ENDBRANCH   5   9
BRANCH   1  17
ATOM     17  C2  <0> d          -3.631   3.605  -0.164  0.00  0.00    -0.024 C 
ATOM     18  C1  <0> d          -4.772   4.261  -0.236  0.00  0.00    -0.106 C 
ATOM     19  H1  <0> d          -4.772   5.338  -0.315  0.00  0.00     0.068 H 
ATOM     20  H2  <0> d          -5.708   3.721  -0.217  0.00  0.00     0.068 H 
ATOM     21  H3  <0> d          -2.696   4.145  -0.183  0.00  0.00     0.110 H 
ENDBRANCH   1  17
TORSDOF 2
