REMARK  2 active torsions:
REMARK  status: ('A' for Active; 'I' for Inactive)
REMARK    1  A    between atoms: C1_1  and  N1_2 
REMARK    2  A    between atoms: C4_6  and  C5_7 
ROOT
ATOM      1  N1  <0> d          -0.543  -0.151   0.039  0.00  0.00    -0.344 N 
ATOM      2  C2  <0> d          -0.399  -0.943  -1.045  0.00  0.00     0.066 A 
ATOM      3  N2  <0> d           0.300  -1.995  -0.713  0.00  0.00    -0.254 NA
ATOM      4  C3  <0> d           0.621  -1.928   0.584  0.00  0.00     0.030 A 
ATOM      5  C4  <0> d           0.101  -0.774   1.084  0.00  0.00     0.063 A 
ATOM      6  H4  <0> d          -0.795  -0.738  -2.029  0.00  0.00     0.143 H 
ATOM      7  H5  <0> d           1.191  -2.660   1.137  0.00  0.00     0.118 H 
ENDROOT
BRANCH   5   8
ATOM      8  C5  <0> d           0.207  -0.285   2.476  0.00  0.00    -0.008 A 
ATOM      9  C10 <0> d           0.518  -1.172   3.508  0.00  0.00    -0.071 A 
ATOM     10  C9  <0> d           0.616  -0.709   4.804  0.00  0.00    -0.082 A 
ATOM     11  H10 <0> d           0.680  -2.217   3.293  0.00  0.00     0.084 H 
ATOM     12  C8  <0> d           0.407   0.630   5.082  0.00  0.00    -0.083 A 
ATOM     13  H9  <0> d           0.856  -1.394   5.604  0.00  0.00     0.083 H 
ATOM     14  C7  <0> d           0.099   1.514   4.063  0.00  0.00    -0.082 A 
ATOM     15  H8  <0> d           0.484   0.987   6.098  0.00  0.00     0.083 H 
ATOM     16  C6  <0> d           0.004   1.065   2.762  0.00  0.00    -0.071 A 
ATOM     17  H7  <0> d          -0.063   2.558   4.287  0.00  0.00     0.083 H 
ATOM     18  H6  <0> d          -0.233   1.757   1.967  0.00  0.00     0.084 H 
ENDBRANCH   5   8
BRANCH   1  19
ATOM     19  C1  <0> d          -1.257   1.127   0.095  0.00  0.00    -0.013 C 
ATOM     20  H1  <0> d          -0.548   1.945  -0.031  0.00  0.00     0.057 H 
ATOM     21  H2  <0> d          -1.999   1.164  -0.703  0.00  0.00     0.057 H 
ATOM     22  H3  <0> d          -1.755   1.224   1.059  0.00  0.00     0.057 H 
ENDBRANCH   1  19
TORSDOF 2
