REMARK  2 active torsions:
REMARK  status: ('A' for Active; 'I' for Inactive)
REMARK    1  A    between atoms: C1_1  and  C2_2 
REMARK    2  A    between atoms: C4_6  and  C5_8 
ROOT
ATOM      1  C2  <0> d           0.002  -0.004   0.002  0.00  0.00    -0.012 C 
ATOM      2  H1  <0> d          -0.983  -0.443  -0.159  0.00  0.00     0.046 H 
ATOM      3  C3  <0> d           1.105  -0.606  -0.889  0.00  0.00     0.025 C 
ATOM      4  O1  <0> d           1.917  -0.594   0.302  0.00  0.00    -0.385 OA
ATOM      5  C4  <0> d           0.772  -0.622   1.184  0.00  0.00     0.040 C 
ATOM      6  H2  <0> d           0.443  -1.627   1.448  0.00  0.00     0.083 H 
ATOM      7  H6  <0> d           0.877  -1.607  -1.257  0.00  0.00     0.075 H 
ATOM      8  H7  <0> d           1.457   0.067  -1.670  0.00  0.00     0.075 H 
ENDROOT
BRANCH   1   9
ATOM      9  C1  <0> d          -0.019   1.526   0.010  0.00  0.00    -0.069 C 
ATOM     10  H3  <0> d           1.004   1.903   0.003  0.00  0.00     0.028 H 
ATOM     11  H4  <0> d          -0.546   1.887  -0.873  0.00  0.00     0.028 H 
ATOM     12  H5  <0> d          -0.529   1.877   0.907  0.00  0.00     0.028 H 
ENDBRANCH   1   9
BRANCH   5  13
ATOM     13  C5  <0> d           0.897   0.306   2.395  0.00  0.00    -0.052 C 
ATOM     14  H8  <0> d          -0.098   0.566   2.757  0.00  0.00     0.030 H 
ATOM     15  H9  <0> d           1.451  -0.201   3.185  0.00  0.00     0.030 H 
ATOM     16  H10 <0> d           1.426   1.213   2.104  0.00  0.00     0.030 H 
ENDBRANCH   5  13
TORSDOF 2
