REMARK  2 active torsions:
REMARK  status: ('A' for Active; 'I' for Inactive)
REMARK    1  A    between atoms: C5_9  and  C6_11 
REMARK    2  A    between atoms: C6_11  and  O2_12 
ROOT
ATOM      1  C1  <0> d          -0.019   1.526   0.010  0.00  0.00    -0.047 A 
ATOM      2  C2  <0> d           1.322   0.787  -0.006  0.00  0.00    -0.020 A 
ATOM      3  H1  <0> d           1.975   0.835   0.865  0.00  0.00     0.044 H 
ATOM      4  C3  <0> d           0.002  -0.004   0.002  0.00  0.00     0.029 A 
ATOM      5  H2  <0> d          -0.324  -0.543   0.891  0.00  0.00     0.055 H 
ATOM      6  C4  <0> d          -0.050  -0.729  -1.318  0.00  0.00     0.222 A 
ATOM      7  O1  <0> d          -0.956  -1.455  -1.670  0.00  0.00    -0.273 OA
ATOM      8  N1  <0> d           1.038  -0.464  -2.051  0.00  0.00    -0.354 N 
ATOM      9  C5  <0> d           1.964   0.465  -1.365  0.00  0.00     0.036 A 
ATOM     10  H3  <0> d           2.097   1.382  -1.940  0.00  0.00     0.076 H 
ATOM     11  H4  <0> d          -0.309   2.019   0.938  0.00  0.00     0.035 H 
ATOM     12  H5  <0> d          -0.327   2.029  -0.906  0.00  0.00     0.035 H 
ATOM     13  H6  <0> d           1.200  -0.833  -2.933  0.00  0.00     0.163 HD
ENDROOT
BRANCH   9  14
ATOM     14  C6  <0> d           3.315  -0.222  -1.153  0.00  0.00     0.036 C 
ATOM     15  H7  <0> d           3.943   0.402  -0.517  0.00  0.00     0.077 H 
ATOM     16  H8  <0> d           3.160  -1.189  -0.675  0.00  0.00     0.077 H 
BRANCH  14  17
ATOM     17  O2  <0> d           3.956  -0.412  -2.416  0.00  0.00    -0.399 OA
ATOM     18  H9  <0> d           4.819  -0.843  -2.357  0.00  0.00     0.209 HD
ENDBRANCH  14  17
ENDBRANCH   9  14
TORSDOF 2
