REMARK  0 active torsions:
REMARK  status: ('A' for Active; 'I' for Inactive)
ROOT
ATOM      1  C1  <0> d          -2.074   0.732   0.026  0.00  0.00     0.109 A 
ATOM      2  N1  <0> d          -1.251   1.782   0.028  0.00  0.00    -0.214 NA
ATOM      3  C2  <0> d          -0.016   1.362   0.009  0.00  0.00     0.194 A 
ATOM      4  N2  <0> d           0.002  -0.004   0.002  0.00  0.00    -0.174 N 
ATOM      5  N3  <0> d          -1.376  -0.365   0.013  0.00  0.00    -0.156 NA
ATOM      6  C3  <0> d           1.168  -0.668  -0.012  0.00  0.00     0.256 A 
ATOM      7  O1  <0> d           1.211  -1.876  -0.019  0.00  0.00    -0.270 OA
ATOM      8  C4  <0> d           2.429   0.174  -0.019  0.00  0.00     0.060 A 
ATOM      9  S1  <0> d           1.693   1.856  -0.004  0.00  0.00    -0.081 SA
ATOM     10  H1  <0> d          -3.153   0.784   0.037  0.00  0.00     0.149 H 
ATOM     11  H2  <0> d           3.029  -0.004   0.873  0.00  0.00     0.064 H 
ATOM     12  H3  <0> d           3.012   0.005  -0.924  0.00  0.00     0.064 H 
ENDROOT
TORSDOF 0
