REMARK  4 active torsions:
REMARK  status: ('A' for Active; 'I' for Inactive)
REMARK    1  A    between atoms: C1_1  and  C2_2 
REMARK    2  A    between atoms: C2_2  and  C3_4 
REMARK    3  A    between atoms: C2_2  and  N1_6 
REMARK    4  A    between atoms: C3_4  and  O1_5 
ROOT
ATOM      1  N1  <0> d           0.771  -0.594   1.106  0.00  0.00     0.099 N 
ATOM      2  C4  <0> d           2.059   0.095   1.277  0.00  0.00     0.133 C 
ATOM      3  C5  <0> d           2.852  -0.588   2.395  0.00  0.00     0.044 C 
ATOM      4  O2  <0> d           2.073  -0.585   3.595  0.00  0.00    -0.388 OA
ATOM      5  C6  <0> d           0.812  -1.248   3.464  0.00  0.00     0.044 C 
ATOM      6  C7  <0> d          -0.001  -0.572   2.357  0.00  0.00     0.133 C 
ATOM      7  H8  <0> d           2.625   0.045   0.347  0.00  0.00     0.083 H 
ATOM      8  H9  <0> d           1.882   1.138   1.540  0.00  0.00     0.083 H 
ATOM      9  H10 <0> d           3.075  -1.615   2.108  0.00  0.00     0.077 H 
ATOM     10  H11 <0> d           3.783  -0.046   2.564  0.00  0.00     0.077 H 
ATOM     11  H12 <0> d           0.976  -2.295   3.208  0.00  0.00     0.077 H 
ATOM     12  H13 <0> d           0.268  -1.184   4.406  0.00  0.00     0.077 H 
ATOM     13  H14 <0> d          -0.211   0.460   2.637  0.00  0.00     0.083 H 
ATOM     14  H15 <0> d          -0.939  -1.109   2.215  0.00  0.00     0.083 H 
ENDROOT
BRANCH   1  15
ATOM     15  C2  <0> d           0.002  -0.004   0.002  0.00  0.00     0.151 C 
ATOM     16  H1  <0> d          -0.267   1.022   0.254  0.00  0.00     0.091 H 
BRANCH  15  17
ATOM     17  C1  <0> d           0.850  -0.012  -1.272  0.00  0.00    -0.045 C 
ATOM     18  H2  <0> d           1.118  -1.038  -1.523  0.00  0.00     0.030 H 
ATOM     19  H3  <0> d           0.279   0.426  -2.091  0.00  0.00     0.030 H 
ATOM     20  H4  <0> d           1.756   0.572  -1.108  0.00  0.00     0.030 H 
ENDBRANCH  15  17
BRANCH  15  21
ATOM     21  C3  <0> d          -1.270  -0.823  -0.227  0.00  0.00     0.045 C 
ATOM     22  H5  <0> d          -1.840  -0.875   0.700  0.00  0.00     0.077 H 
ATOM     23  H6  <0> d          -1.875  -0.346  -0.999  0.00  0.00     0.077 H 
BRANCH  21  24
ATOM     24  O1  <0> d          -0.918  -2.143  -0.645  0.00  0.00    -0.399 OA
ATOM     25  H7  <0> d          -1.677  -2.719  -0.810  0.00  0.00     0.209 HD
ENDBRANCH  21  24
ENDBRANCH  15  21
ENDBRANCH   1  15
TORSDOF 4
