REMARK  2 active torsions:
REMARK  status: ('A' for Active; 'I' for Inactive)
REMARK    1  A    between atoms: C1_1  and  C2_2 
REMARK    2  A    between atoms: N3_6  and  C4_7 
ROOT
ATOM      1  C4  <0> d           0.031  -0.372   2.487  0.00  0.00     0.097 C 
ATOM      2  C5  <0> d          -1.354  -0.248   2.970  0.00  0.00     0.081 C 
ATOM      3  N4  <0> d          -2.423  -0.152   3.343  0.00  0.00    -0.195 NA
ATOM      4  H4  <0> d           0.561  -1.111   3.089  0.00  0.00     0.090 H 
ATOM      5  H5  <0> d           0.533   0.592   2.571  0.00  0.00     0.090 H 
ENDROOT
BRANCH   1   6
ATOM      6  N3  <0> d           0.023  -0.799   1.086  0.00  0.00    -0.240 N 
ATOM      7  C2  <0> d           0.002  -0.004   0.002  0.00  0.00     0.123 A 
ATOM      8  N1  <0> d           0.008  -0.766  -1.062  0.00  0.00    -0.203 NA
ATOM      9  C3  <0> d           0.027  -2.049  -0.698  0.00  0.00     0.243 A 
ATOM     10  N2  <0> d           0.033  -2.119   0.608  0.00  0.00    -0.137 NA
ATOM     11 Cl1  <0> d           0.040  -3.405  -1.782  0.00  0.00    -0.040 Cl
BRANCH   7  12
ATOM     12  C1  <0> d          -0.018   1.503   0.010  0.00  0.00    -0.020 C 
ATOM     13  H1  <0> d           1.004   1.880   0.003  0.00  0.00     0.037 H 
ATOM     14  H2  <0> d          -0.545   1.864  -0.873  0.00  0.00     0.037 H 
ATOM     15  H3  <0> d          -0.529   1.854   0.907  0.00  0.00     0.037 H 
ENDBRANCH   7  12
ENDBRANCH   1   6
TORSDOF 2
