REMARK  3 active torsions:
REMARK  status: ('A' for Active; 'I' for Inactive)
REMARK    1  A    between atoms: C1_1  and  C2_2 
REMARK    2  A    between atoms: C3_4  and  N4_10 
REMARK    3  A    between atoms: C4_5  and  N3_9 
ROOT
ATOM      1  C2  <0> d          -0.018   1.503   0.010  0.00  0.00     0.126 A 
ATOM      2  N1  <0> d          -1.180   2.126   0.019  0.00  0.00    -0.214 NA
ATOM      3  C3  <0> d          -1.239   3.454   0.032  0.00  0.00     0.153 A 
ATOM      4  C4  <0> d          -0.044   4.185   0.024  0.00  0.00     0.113 A 
ATOM      5  C5  <0> d           1.154   3.484   0.009  0.00  0.00     0.158 A 
ATOM      6  N2  <0> d           1.125   2.157   0.003  0.00  0.00    -0.219 NA
ATOM      7 Cl1  <0> d           2.669   4.331  -0.000  0.00  0.00    -0.060 Cl
ENDROOT
BRANCH   1   8
ATOM      8  C1  <0> d           0.002  -0.004   0.002  0.00  0.00    -0.019 C 
ATOM      9  H1  <0> d           0.017  -0.373   1.028  0.00  0.00     0.037 H 
ATOM     10  H2  <0> d          -0.888  -0.377  -0.505  0.00  0.00     0.037 H 
ATOM     11  H3  <0> d           0.892  -0.352  -0.522  0.00  0.00     0.037 H 
ENDBRANCH   1   8
BRANCH   3  12
ATOM     12  N4  <0> d          -2.465   4.105   0.046  0.00  0.00    -0.382 N 
ATOM     13  H6  <0> d          -2.499   5.075   0.051  0.00  0.00     0.157 HD
ATOM     14  H7  <0> d          -3.288   3.591   0.051  0.00  0.00     0.157 HD
ENDBRANCH   3  12
BRANCH   4  15
ATOM     15  N3  <0> d          -0.058   5.586   0.032  0.00  0.00    -0.393 N 
ATOM     16  H4  <0> d           0.777   6.079   0.027  0.00  0.00     0.156 HD
ATOM     17  H5  <0> d          -0.902   6.063   0.042  0.00  0.00     0.156 HD
ENDBRANCH   4  15
TORSDOF 3
