REMARK  5 active torsions:
REMARK  status: ('A' for Active; 'I' for Inactive)
REMARK    1  A    between atoms: C4_4  and  N2_8 
REMARK    2  A    between atoms: C5_5  and  N1_7 
REMARK    3  A    between atoms: N2_8  and  C7_9 
REMARK    4  A    between atoms: C7_9  and  C8_10 
REMARK    5  A    between atoms: C8_10  and  O1_11 
ROOT
ATOM      1  C1  <0> d           0.777   0.548   4.982  0.00  0.00    -0.081 A 
ATOM      2  C2  <0> d           1.422   0.103   3.844  0.00  0.00    -0.081 A 
ATOM      3  C3  <0> d           0.932   0.433   2.593  0.00  0.00    -0.055 A 
ATOM      4  C4  <0> d          -0.203   1.220   2.479  0.00  0.00     0.054 A 
ATOM      5  C5  <0> d          -0.855   1.668   3.627  0.00  0.00     0.052 A 
ATOM      6  C6  <0> d          -0.359   1.329   4.877  0.00  0.00    -0.056 A 
ATOM      7  H1  <0> d           1.161   0.285   5.957  0.00  0.00     0.083 H 
ATOM      8  H2  <0> d           2.309  -0.506   3.931  0.00  0.00     0.083 H 
ATOM      9  H3  <0> d           1.437   0.080   1.706  0.00  0.00     0.087 H 
ATOM     10  H4  <0> d          -0.862   1.675   5.769  0.00  0.00     0.087 H 
ENDROOT
BRANCH   4  11
ATOM     11  N2  <0> d          -0.698   1.558   1.213  0.00  0.00    -0.386 N 
ATOM     12  H7  <0> d          -1.495   2.106   1.135  0.00  0.00     0.159 HD
BRANCH  11  13
ATOM     13  C7  <0> d          -0.013   1.086   0.008  0.00  0.00     0.012 C 
ATOM     14  H8  <0> d           0.002  -0.004   0.002  0.00  0.00     0.067 H 
ATOM     15  H9  <0> d           1.010   1.463   0.000  0.00  0.00     0.067 H 
BRANCH  13  16
ATOM     16  C8  <0> d          -0.753   1.593  -1.232  0.00  0.00     0.031 C 
ATOM     17  H10 <0> d          -0.296   1.169  -2.126  0.00  0.00     0.076 H 
ATOM     18  H11 <0> d          -1.798   1.290  -1.179  0.00  0.00     0.076 H 
BRANCH  16  19
ATOM     19  O1  <0> d          -0.672   3.018  -1.285  0.00  0.00    -0.399 OA
ATOM     20  H12 <0> d          -1.120   3.410  -2.047  0.00  0.00     0.209 HD
ENDBRANCH  16  19
ENDBRANCH  13  16
ENDBRANCH  11  13
ENDBRANCH   4  11
BRANCH   5  21
ATOM     21  N1  <0> d          -2.005   2.459   3.519  0.00  0.00    -0.397 N 
ATOM     22  H5  <0> d          -2.351   2.695   2.644  0.00  0.00     0.156 HD
ATOM     23  H6  <0> d          -2.457   2.770   4.319  0.00  0.00     0.156 HD
ENDBRANCH   5  21
TORSDOF 5
