REMARK  2 active torsions:
REMARK  status: ('A' for Active; 'I' for Inactive)
REMARK    1  A    between atoms: C1_1  and  C2_2 
REMARK    2  A    between atoms: C3_3  and  O1_12 
ROOT
ATOM      1  C2  <0> d          -0.755   3.558   0.029  0.00  0.00     0.066 A 
ATOM      2  C3  <0> d           0.544   4.055   0.019  0.00  0.00     0.090 A 
ATOM      3  C4  <0> d           1.609   3.168   0.004  0.00  0.00    -0.035 A 
ATOM      4  C5  <0> d           1.324   1.801  -0.001  0.00  0.00     0.014 A 
ATOM      5  C6  <0> d           2.142   0.587  -0.015  0.00  0.00    -0.054 A 
ATOM      6  C7  <0> d           1.295  -0.455  -0.013  0.00  0.00    -0.020 A 
ATOM      7  N1  <0> d           0.002  -0.004   0.002  0.00  0.00    -0.350 N 
ATOM      8  H1  <0> d          -0.785  -0.571   0.007  0.00  0.00     0.166 HD
ATOM      9  C8  <0> d          -0.017   1.372   0.010  0.00  0.00     0.138 A 
ATOM     10  N2  <0> d          -0.997   2.265   0.029  0.00  0.00    -0.233 NA
ATOM     11  H5  <0> d           2.629   3.524  -0.004  0.00  0.00     0.089 H 
ATOM     12  H6  <0> d           3.221   0.538  -0.026  0.00  0.00     0.087 H 
ATOM     13  H7  <0> d           1.589  -1.494  -0.021  0.00  0.00     0.111 H 
ENDROOT
BRANCH   1  14
ATOM     14  C1  <0> d          -1.912   4.524   0.046  0.00  0.00    -0.033 C 
ATOM     15  H2  <0> d          -2.201   4.762  -0.978  0.00  0.00     0.035 H 
ATOM     16  H3  <0> d          -2.756   4.070   0.565  0.00  0.00     0.035 H 
ATOM     17  H4  <0> d          -1.616   5.437   0.562  0.00  0.00     0.035 H 
ENDBRANCH   1  14
BRANCH   2  18
ATOM     18  O1  <0> d           0.767   5.397   0.025  0.00  0.00    -0.359 OA
ATOM     19  H8  <0> d           0.824   5.790  -0.856  0.00  0.00     0.217 HD
ENDBRANCH   2  18
TORSDOF 2
