REMARK  3 active torsions:
REMARK  status: ('A' for Active; 'I' for Inactive)
REMARK    1  A    between atoms: C1_1  and  N1_2 
REMARK       I    between atoms: N1_2  and  C2_3 
REMARK    2  A    between atoms: C2_3  and  O2_5 
REMARK    3  A    between atoms: O2_5  and  C3_6 
ROOT
ATOM      1  C3  <0> d          -1.843   2.314  -0.657  0.00  0.00     0.245 A 
ATOM      2  N2  <0> d          -1.914   2.361   0.630  0.00  0.00    -0.249 NA
ATOM      3  C4  <0> d          -0.794   1.613   1.228  0.00  0.00     0.034 A 
ATOM      4  C5  <0> d          -0.013   1.086   0.008  0.00  0.00     0.013 A 
ATOM      5  N3  <0> d          -0.781   1.602  -1.137  0.00  0.00    -0.353 N 
ATOM      6  H5  <0> d          -1.166   0.784   1.831  0.00  0.00     0.070 H 
ATOM      7  H6  <0> d          -0.168   2.273   1.828  0.00  0.00     0.070 H 
ATOM      8  H7  <0> d           0.002  -0.004   0.002  0.00  0.00     0.066 H 
ATOM      9  H8  <0> d           1.002   1.483   0.001  0.00  0.00     0.066 H 
ATOM     10  H9  <0> d          -0.570   1.459  -2.073  0.00  0.00     0.163 HD
ENDROOT
BRANCH   1  11
ATOM     11  O2  <0> d          -2.745   2.920  -1.463  0.00  0.00    -0.227 OA
BRANCH  11  12
ATOM     12  C2  <0> d          -3.748   3.592  -0.864  0.00  0.00     0.367 C 
ATOM     13  N1  <0> d          -4.680   4.218  -1.609  0.00  0.00    -0.341 N 
ATOM     14  H4  <0> d          -4.629   4.184  -2.577  0.00  0.00     0.164 HD
ATOM     15  O1  <0> d          -3.811   3.634   0.349  0.00  0.00    -0.238 OA
BRANCH  13  16
ATOM     16  C1  <0> d          -5.769   4.949  -0.958  0.00  0.00    -0.016 C 
ATOM     17  H1  <0> d          -6.346   4.264  -0.336  0.00  0.00     0.056 H 
ATOM     18  H2  <0> d          -5.354   5.742  -0.336  0.00  0.00     0.056 H 
ATOM     19  H3  <0> d          -6.419   5.385  -1.717  0.00  0.00     0.056 H 
ENDBRANCH  13  16
ENDBRANCH  11  12
ENDBRANCH   1  11
TORSDOF 3
