REMARK  2 active torsions:
REMARK  status: ('A' for Active; 'I' for Inactive)
REMARK    1  A    between atoms: C1_1  and  N1_2 
REMARK    2  A    between atoms: N1_2  and  C2_3 
ROOT
ATOM      1  C2  <0> d          -0.204   1.220   2.476  0.00  0.00     0.049 A 
ATOM      2  C3  <0> d           0.933   0.432   2.590  0.00  0.00    -0.056 A 
ATOM      3  C4  <0> d           1.422   0.104   3.840  0.00  0.00    -0.081 A 
ATOM      4  C5  <0> d           0.774   0.551   4.977  0.00  0.00    -0.081 A 
ATOM      5  C6  <0> d          -0.362   1.331   4.868  0.00  0.00    -0.060 A 
ATOM      6  C7  <0> d          -0.854   1.668   3.621  0.00  0.00     0.060 A 
ATOM      7 Cl1  <0> d          -2.280   2.647   3.484  0.00  0.00    -0.082 Cl
ATOM      8  H5  <0> d           1.438   0.079   1.703  0.00  0.00     0.087 H 
ATOM      9  H6  <0> d           2.309  -0.506   3.929  0.00  0.00     0.083 H 
ATOM     10  H7  <0> d           1.156   0.289   5.953  0.00  0.00     0.083 H 
ATOM     11  H8  <0> d          -0.866   1.679   5.758  0.00  0.00     0.086 H 
ENDROOT
BRANCH   1  12
ATOM     12  N1  <0> d          -0.698   1.558   1.213  0.00  0.00    -0.393 N 
ATOM     13  H4  <0> d          -1.495   2.106   1.135  0.00  0.00     0.159 HD
BRANCH  12  14
ATOM     14  C1  <0> d          -0.013   1.086   0.008  0.00  0.00    -0.021 C 
ATOM     15  H1  <0> d           0.002  -0.004   0.002  0.00  0.00     0.056 H 
ATOM     16  H2  <0> d           1.010   1.463   0.000  0.00  0.00     0.056 H 
ATOM     17  H3  <0> d          -0.540   1.447  -0.875  0.00  0.00     0.056 H 
ENDBRANCH  12  14
ENDBRANCH   1  12
TORSDOF 2
