REMARK  2 active torsions:
REMARK  status: ('A' for Active; 'I' for Inactive)
REMARK    1  A    between atoms: C1_1  and  C2_2 
REMARK    2  A    between atoms: N2_10  and  C9_11 
ROOT
ATOM      1  C2  <0> d          -0.016   1.356   0.009  0.00  0.00     0.103 A 
ATOM      2  N1  <0> d           1.199   1.820   0.000  0.00  0.00    -0.234 NA
ATOM      3  C3  <0> d           2.081   0.788  -0.014  0.00  0.00     0.085 A 
ATOM      4  C4  <0> d           3.477   0.713  -0.027  0.00  0.00    -0.053 A 
ATOM      5  C5  <0> d           4.093  -0.506  -0.040  0.00  0.00    -0.081 A 
ATOM      6  C6  <0> d           3.347  -1.677  -0.039  0.00  0.00    -0.081 A 
ATOM      7  C7  <0> d           1.969  -1.627  -0.025  0.00  0.00    -0.055 A 
ATOM      8  C8  <0> d           1.325  -0.397  -0.013  0.00  0.00     0.064 A 
ATOM      9  N2  <0> d           0.002  -0.004   0.002  0.00  0.00    -0.338 N 
ATOM     10  H4  <0> d           4.067   1.617  -0.028  0.00  0.00     0.087 H 
ATOM     11  H5  <0> d           5.171  -0.560  -0.051  0.00  0.00     0.083 H 
ATOM     12  H6  <0> d           3.849  -2.633  -0.049  0.00  0.00     0.083 H 
ATOM     13  H7  <0> d           1.393  -2.540  -0.024  0.00  0.00     0.087 H 
ENDROOT
BRANCH   1  14
ATOM     14  C1  <0> d          -1.263   2.203   0.020  0.00  0.00    -0.021 C 
ATOM     15  H1  <0> d          -1.559   2.401   1.050  0.00  0.00     0.037 H 
ATOM     16  H2  <0> d          -1.066   3.146  -0.489  0.00  0.00     0.037 H 
ATOM     17  H3  <0> d          -2.066   1.673  -0.493  0.00  0.00     0.037 H 
ENDBRANCH   1  14
BRANCH   9  18
ATOM     18  C9  <0> d          -1.166  -0.888   0.009  0.00  0.00    -0.012 C 
ATOM     19  H8  <0> d          -1.466  -1.103  -1.017  0.00  0.00     0.057 H 
ATOM     20  H9  <0> d          -0.913  -1.820   0.516  0.00  0.00     0.057 H 
ATOM     21  H10 <0> d          -1.988  -0.401   0.533  0.00  0.00     0.057 H 
ENDBRANCH   9  18
TORSDOF 2
