REMARK  1 active torsions:
REMARK  status: ('A' for Active; 'I' for Inactive)
REMARK    1  A    between atoms: C2_2  and  N2_11 
ROOT
ATOM      1  C1  <0> d          -0.017   1.383   0.010  0.00  0.00    -0.046 A 
ATOM      2  C2  <0> d           1.196   2.066   0.002  0.00  0.00     0.044 A 
ATOM      3  C3  <0> d           2.376   1.334  -0.014  0.00  0.00     0.028 A 
ATOM      4  N1  <0> d           2.348   0.018  -0.024  0.00  0.00    -0.263 NA
ATOM      5  C4  <0> d           1.214  -0.664  -0.018  0.00  0.00     0.044 A 
ATOM      6  C5  <0> d           0.002  -0.004   0.002  0.00  0.00    -0.008 A 
ATOM      7  C6  <0> d          -1.306  -0.749   0.023  0.00  0.00     0.045 C 
ATOM      8  O1  <0> d          -1.104  -2.112  -0.350  0.00  0.00    -0.386 OA
ATOM      9  C7  <0> d          -0.066  -2.752   0.400  0.00  0.00     0.025 C 
ATOM     10  C8  <0> d           1.279  -2.171  -0.037  0.00  0.00    -0.004 C 
ATOM     11  H1  <0> d          -0.953   1.922   0.026  0.00  0.00     0.088 H 
ATOM     12  H2  <0> d           3.326   1.849  -0.019  0.00  0.00     0.118 H 
ATOM     13  H3  <0> d          -1.729  -0.708   1.027  0.00  0.00     0.081 H 
ATOM     14  H4  <0> d          -1.998  -0.282  -0.677  0.00  0.00     0.081 H 
ATOM     15  H5  <0> d          -0.216  -2.568   1.464  0.00  0.00     0.074 H 
ATOM     16  H6  <0> d          -0.082  -3.825   0.206  0.00  0.00     0.074 H 
ATOM     17  H7  <0> d           1.510  -2.511  -1.046  0.00  0.00     0.045 H 
ATOM     18  H8  <0> d           2.059  -2.509   0.646  0.00  0.00     0.045 H 
ENDROOT
BRANCH   2  19
ATOM     19  N2  <0> d           1.226   3.463   0.009  0.00  0.00    -0.398 N 
ATOM     20  H9  <0> d           0.397   3.966   0.020  0.00  0.00     0.156 HD
ATOM     21  H10 <0> d           2.076   3.930   0.004  0.00  0.00     0.156 HD
ENDBRANCH   2  19
TORSDOF 1
