REMARK  2 active torsions:
REMARK  status: ('A' for Active; 'I' for Inactive)
REMARK    1  A    between atoms: C1_1  and  C2_2 
REMARK    2  A    between atoms: C7_7  and  C9_12 
ROOT
ATOM      1  C2  <0> d           0.002  -0.004   0.002  0.00  0.00     0.033 A 
ATOM      2  C3  <0> d           0.005  -0.674  -1.212  0.00  0.00    -0.059 A 
ATOM      3  C4  <0> d           0.024  -2.056  -1.224  0.00  0.00    -0.067 A 
ATOM      4  C5  <0> d           0.039  -2.724   0.003  0.00  0.00     0.012 A 
ATOM      5  C6  <0> d           0.060  -4.132   0.400  0.00  0.00    -0.048 A 
ATOM      6  C7  <0> d           0.066  -4.158   1.742  0.00  0.00     0.008 A 
ATOM      7  N1  <0> d           0.051  -2.880   2.233  0.00  0.00    -0.344 N 
ATOM      8  H1  <0> d           0.052  -2.646   3.175  0.00  0.00     0.167 HD
ATOM      9  C8  <0> d           0.035  -1.978   1.197  0.00  0.00     0.138 A 
ATOM     10  N2  <0> d           0.022  -0.652   1.147  0.00  0.00    -0.235 NA
ATOM     11  H5  <0> d          -0.007  -0.121  -2.140  0.00  0.00     0.086 H 
ATOM     12  H6  <0> d           0.027  -2.603  -2.155  0.00  0.00     0.085 H 
ATOM     13  H7  <0> d           0.068  -4.987  -0.260  0.00  0.00     0.087 H 
ENDROOT
BRANCH   1  14
ATOM     14  C1  <0> d          -0.018   1.503   0.010  0.00  0.00    -0.035 C 
ATOM     15  H2  <0> d           1.004   1.880   0.003  0.00  0.00     0.035 H 
ATOM     16  H3  <0> d          -0.545   1.864  -0.873  0.00  0.00     0.035 H 
ATOM     17  H4  <0> d          -0.529   1.854   0.907  0.00  0.00     0.035 H 
ENDBRANCH   1  14
BRANCH   6  18
ATOM     18  C9  <0> d           0.087  -5.408   2.583  0.00  0.00    -0.037 C 
ATOM     19  H8  <0> d           1.119  -5.696   2.781  0.00  0.00     0.035 H 
ATOM     20  H9  <0> d          -0.425  -5.220   3.527  0.00  0.00     0.035 H 
ATOM     21  H10 <0> d          -0.419  -6.213   2.050  0.00  0.00     0.035 H 
ENDBRANCH   6  18
TORSDOF 2
