REMARK  1 active torsions:
REMARK  status: ('A' for Active; 'I' for Inactive)
REMARK    1  A    between atoms: C1_1  and  C2_2 
ROOT
ATOM      1  C2  <0> d           0.002  -0.004   0.002  0.00  0.00    -0.060 A 
ATOM      2  C3  <0> d           0.005  -0.683  -1.215  0.00  0.00    -0.076 A 
ATOM      3  C4  <0> d           0.024  -2.044  -1.256  0.00  0.00    -0.070 A 
ATOM      4  C5  <0> d           0.040  -2.774  -0.056  0.00  0.00    -0.007 A 
ATOM      5  C6  <0> d           0.059  -4.181  -0.055  0.00  0.00    -0.069 A 
ATOM      6  C7  <0> d           0.074  -4.824   1.150  0.00  0.00    -0.065 A 
ATOM      7  C8  <0> d           0.070  -4.087   2.332  0.00  0.00     0.003 A 
ATOM      8  N1  <0> d           0.051  -2.776   2.327  0.00  0.00    -0.260 NA
ATOM      9  C9  <0> d           0.036  -2.086   1.182  0.00  0.00     0.067 A 
ATOM     10  C10 <0> d           0.022  -0.680   1.183  0.00  0.00    -0.049 A 
ATOM     11  H4  <0> d          -0.007  -0.122  -2.138  0.00  0.00     0.084 H 
ATOM     12  H5  <0> d           0.026  -2.558  -2.205  0.00  0.00     0.084 H 
ATOM     13  H6  <0> d           0.062  -4.737  -0.981  0.00  0.00     0.085 H 
ATOM     14  H7  <0> d           0.089  -5.904   1.186  0.00  0.00     0.085 H 
ATOM     15  H8  <0> d           0.081  -4.609   3.277  0.00  0.00     0.114 H 
ATOM     16  H9  <0> d           0.024  -0.138   2.117  0.00  0.00     0.087 H 
ENDROOT
BRANCH   1  17
ATOM     17  C1  <0> d          -0.018   1.503   0.010  0.00  0.00    -0.051 C 
ATOM     18  H1  <0> d           1.004   1.880   0.003  0.00  0.00     0.033 H 
ATOM     19  H2  <0> d          -0.545   1.864  -0.873  0.00  0.00     0.033 H 
ATOM     20  H3  <0> d          -0.529   1.854   0.907  0.00  0.00     0.033 H 
ENDBRANCH   1  17
TORSDOF 1
