REMARK  2 active torsions:
REMARK  status: ('A' for Active; 'I' for Inactive)
REMARK    1  A    between atoms: C1_1  and  S1_2 
REMARK    2  A    between atoms: S1_2  and  C2_3 
ROOT
ATOM      1  C2  <0> d           0.002  -0.004   0.002  0.00  0.00     0.187 A 
ATOM      2  N1  <0> d           1.167  -0.635  -0.018  0.00  0.00    -0.235 NA
ATOM      3  C3  <0> d           1.220  -1.957  -0.020  0.00  0.00     0.006 A 
ATOM      4  C4  <0> d           0.038  -2.681  -0.013  0.00  0.00    -0.049 A 
ATOM      5  C5  <0> d          -1.163  -1.989   0.003  0.00  0.00     0.006 A 
ATOM      6  N2  <0> d          -1.146  -0.667   0.009  0.00  0.00    -0.235 NA
ATOM      7  H4  <0> d           2.173  -2.466  -0.032  0.00  0.00     0.114 H 
ATOM      8  H5  <0> d           0.053  -3.761  -0.018  0.00  0.00     0.087 H 
ATOM      9  H6  <0> d          -2.101  -2.524   0.009  0.00  0.00     0.114 H 
ENDROOT
BRANCH   1  10
ATOM     10  S1  <0> d          -0.022   1.758   0.012  0.00  0.00    -0.095 SA
BRANCH  10  11
ATOM     11  C1  <0> d           1.756   2.096  -0.004  0.00  0.00    -0.027 C 
ATOM     12  H1  <0> d           2.201   1.664  -0.900  0.00  0.00     0.042 H 
ATOM     13  H2  <0> d           1.921   3.174   0.001  0.00  0.00     0.042 H 
ATOM     14  H3  <0> d           2.218   1.655   0.880  0.00  0.00     0.042 H 
ENDBRANCH  10  11
ENDBRANCH   1  10
TORSDOF 2
