REMARK  2 active torsions:
REMARK  status: ('A' for Active; 'I' for Inactive)
REMARK    1  A    between atoms: C1_1  and  N1_2 
REMARK    2  A    between atoms: N2_6  and  C6_10 
ROOT
ATOM      1  N1  <0> d           0.002  -0.004   0.002  0.00  0.00    -0.346 N 
ATOM      2  C2  <0> d          -1.267  -0.718   0.016  0.00  0.00     0.071 C 
ATOM      3  C3  <0> d          -1.092  -2.135   0.468  0.00  0.00     0.237 C 
ATOM      4  O1  <0> d          -2.062  -2.740   0.872  0.00  0.00    -0.272 OA
ATOM      5  N2  <0> d           0.090  -2.759   0.448  0.00  0.00    -0.346 N 
ATOM      6  C4  <0> d           1.313  -2.121  -0.020  0.00  0.00     0.071 C 
ATOM      7  C5  <0> d           1.184  -0.627  -0.013  0.00  0.00     0.237 C 
ATOM      8  O2  <0> d           2.195   0.043  -0.020  0.00  0.00    -0.272 OA
ATOM      9  H4  <0> d          -1.956  -0.209   0.692  0.00  0.00     0.079 H 
ATOM     10  H5  <0> d          -1.689  -0.717  -0.989  0.00  0.00     0.079 H 
ATOM     11  H6  <0> d           1.525  -2.456  -1.035  0.00  0.00     0.079 H 
ATOM     12  H7  <0> d           2.138  -2.411   0.631  0.00  0.00     0.079 H 
ENDROOT
BRANCH   1  13
ATOM     13  C1  <0> d          -0.018   1.461   0.010  0.00  0.00    -0.015 C 
ATOM     14  H1  <0> d           1.005   1.838   0.002  0.00  0.00     0.056 H 
ATOM     15  H2  <0> d          -0.545   1.822  -0.873  0.00  0.00     0.056 H 
ATOM     16  H3  <0> d          -0.528   1.812   0.907  0.00  0.00     0.056 H 
ENDBRANCH   1  13
BRANCH   5  17
ATOM     17  C6  <0> d           0.158  -4.145   0.918  0.00  0.00    -0.015 C 
ATOM     18  H8  <0> d           0.366  -4.156   1.988  0.00  0.00     0.056 H 
ATOM     19  H9  <0> d          -0.794  -4.641   0.727  0.00  0.00     0.056 H 
ATOM     20  H10 <0> d           0.953  -4.670   0.388  0.00  0.00     0.056 H 
ENDBRANCH   5  17
TORSDOF 2
