REMARK  1 active torsions:
REMARK  status: ('A' for Active; 'I' for Inactive)
REMARK    1  A    between atoms: C4_4  and  C7_8 
ROOT
ATOM      1  C7  <0> d          -0.018   1.468   0.010  0.00  0.00     0.044 C 
ATOM      2  C8  <0> d           0.002  -0.004   0.002  0.00  0.00     0.064 C 
ATOM      3  N1  <0> d           0.018  -1.140  -0.004  0.00  0.00    -0.197 NA
ATOM      4  H4  <0> d          -0.545   1.829  -0.873  0.00  0.00     0.062 H 
ATOM      5  H5  <0> d          -0.528   1.819   0.907  0.00  0.00     0.062 H 
ENDROOT
BRANCH   1   6
ATOM      6  C4  <0> d           1.396   1.989  -0.001  0.00  0.00     0.032 A 
ATOM      7  C3  <0> d           2.034   2.236  -1.204  0.00  0.00     0.126 A 
ATOM      8  C2  <0> d           3.333   2.715  -1.212  0.00  0.00    -0.045 A 
ATOM      9  F2  <0> d           1.390   2.008  -2.369  0.00  0.00    -0.205 F 
ATOM     10  C1  <0> d           3.992   2.949  -0.020  0.00  0.00    -0.077 A 
ATOM     11  H2  <0> d           3.832   2.908  -2.151  0.00  0.00     0.088 H 
ATOM     12  C6  <0> d           3.356   2.704   1.182  0.00  0.00    -0.045 A 
ATOM     13  H1  <0> d           5.005   3.323  -0.028  0.00  0.00     0.083 H 
ATOM     14  C5  <0> d           2.055   2.228   1.193  0.00  0.00     0.126 A 
ATOM     15  H3  <0> d           3.871   2.887   2.113  0.00  0.00     0.088 H 
ATOM     16  F1  <0> d           1.431   1.994   2.368  0.00  0.00    -0.205 F 
ENDBRANCH   1   6
TORSDOF 1
