REMARK  3 active torsions:
REMARK  status: ('A' for Active; 'I' for Inactive)
REMARK    1  A    between atoms: C1_1  and  C2_2 
REMARK    2  A    between atoms: C2_2  and  C3_3 
REMARK    3  A    between atoms: C5_5  and  N2_10 
ROOT
ATOM      1  C3  <0> d          -1.191   1.746   0.017  0.00  0.00    -0.014 A 
ATOM      2  C4  <0> d          -0.013   1.076   0.008  0.00  0.00    -0.043 A 
ATOM      3  C5  <0> d           1.169   1.790   0.001  0.00  0.00     0.054 A 
ATOM      4  C6  <0> d           1.061   3.180   0.009  0.00  0.00     0.111 A 
ATOM      5  S1  <0> d          -0.708   3.410   0.026  0.00  0.00    -0.081 SA
ATOM      6  C7  <0> d           2.099   4.166   0.004  0.00  0.00     0.109 C 
ATOM      7  N1  <0> d           2.923   4.948  -0.000  0.00  0.00    -0.191 NA
ATOM      8  H6  <0> d           0.002  -0.004   0.002  0.00  0.00     0.088 H 
ENDROOT
BRANCH   3   9
ATOM      9  N2  <0> d           2.409   1.153  -0.014  0.00  0.00    -0.397 N 
ATOM     10  H7  <0> d           2.456   0.184  -0.019  0.00  0.00     0.156 HD
ATOM     11  H8  <0> d           3.224   1.679  -0.019  0.00  0.00     0.156 HD
ENDBRANCH   3   9
BRANCH   1  12
ATOM     12  C2  <0> d          -2.587   1.179   0.021  0.00  0.00    -0.038 C 
ATOM     13  H4  <0> d          -3.261   1.869  -0.486  0.00  0.00     0.040 H 
ATOM     14  H5  <0> d          -2.592   0.220  -0.498  0.00  0.00     0.040 H 
BRANCH  12  15
ATOM     15  C1  <0> d          -3.053   0.979   1.465  0.00  0.00    -0.072 C 
ATOM     16  H1  <0> d          -2.379   0.289   1.972  0.00  0.00     0.028 H 
ATOM     17  H2  <0> d          -3.049   1.938   1.984  0.00  0.00     0.028 H 
ATOM     18  H3  <0> d          -4.063   0.569   1.468  0.00  0.00     0.028 H 
ENDBRANCH  12  15
ENDBRANCH   1  12
TORSDOF 3
