REMARK  4 active torsions:
REMARK  status: ('A' for Active; 'I' for Inactive)
REMARK    1  A    between atoms: C1_1  and  C2_2 
REMARK    2  A    between atoms: C5_5  and  N1_10 
REMARK    3  A    between atoms: C6_6  and  C8_9 
REMARK    4  A    between atoms: C7_7  and  O1_8 
ROOT
ATOM      1  C2  <0> d          -0.650   2.254   3.550  0.00  0.00    -0.028 A 
ATOM      2  C3  <0> d          -2.016   2.466   3.530  0.00  0.00    -0.072 A 
ATOM      3  C4  <0> d          -2.737   2.233   2.374  0.00  0.00    -0.057 A 
ATOM      4  C5  <0> d          -2.088   1.790   1.228  0.00  0.00     0.034 A 
ATOM      5  C6  <0> d          -0.718   1.572   1.248  0.00  0.00    -0.002 A 
ATOM      6  C7  <0> d           0.001   1.807   2.409  0.00  0.00     0.079 A 
ATOM      7  H4  <0> d          -2.520   2.815   4.418  0.00  0.00     0.084 H 
ATOM      8  H5  <0> d          -3.804   2.400   2.361  0.00  0.00     0.086 H 
ENDROOT
BRANCH   1   9
ATOM      9  C1  <0> d           0.132   2.509   4.812  0.00  0.00    -0.049 C 
ATOM     10  H1  <0> d           0.476   3.543   4.824  0.00  0.00     0.033 H 
ATOM     11  H2  <0> d          -0.506   2.329   5.678  0.00  0.00     0.033 H 
ATOM     12  H3  <0> d           0.992   1.839   4.848  0.00  0.00     0.033 H 
ENDBRANCH   1   9
BRANCH   6  13
ATOM     13  O1  <0> d           1.344   1.599   2.431  0.00  0.00    -0.360 OA
ATOM     14  H6  <0> d           1.866   2.376   2.185  0.00  0.00     0.217 HD
ENDBRANCH   6  13
BRANCH   5  15
ATOM     15  C8  <0> d          -0.013   1.086   0.008  0.00  0.00    -0.046 C 
ATOM     16  H7  <0> d           0.002  -0.004   0.002  0.00  0.00     0.033 H 
ATOM     17  H8  <0> d           1.010   1.463   0.000  0.00  0.00     0.033 H 
ATOM     18  H9  <0> d          -0.540   1.447  -0.875  0.00  0.00     0.033 H 
ENDBRANCH   5  15
BRANCH   4  19
ATOM     19  N1  <0> d          -2.816   1.561   0.058  0.00  0.00    -0.399 N 
ATOM     20  H10 <0> d          -2.364   1.248  -0.741  0.00  0.00     0.156 HD
ATOM     21  H11 <0> d          -3.774   1.714   0.044  0.00  0.00     0.156 HD
ENDBRANCH   4  19
TORSDOF 4
