REMARK  3 active torsions:
REMARK  status: ('A' for Active; 'I' for Inactive)
REMARK    1  A    between atoms: C1_1  and  N1_2 
REMARK    2  A    between atoms: N1_2  and  C2_3 
REMARK    3  A    between atoms: N1_2  and  C3_4 
ROOT
ATOM      1  C3  <0> d           2.340   1.400  -0.013  0.00  0.00     0.094 A 
ATOM      2  C4  <0> d           1.157   2.057   0.002  0.00  0.00     0.008 A 
ATOM      3  N2  <0> d          -0.016   1.341   0.009  0.00  0.00    -0.317 N 
ATOM      4  H1  <0> d          -0.891   1.825   0.020  0.00  0.00     0.170 HD
ATOM      5  C5  <0> d           0.002  -0.004   0.002  0.00  0.00     0.327 A 
ATOM      6  O1  <0> d          -1.048  -0.617   0.009  0.00  0.00    -0.247 OA
ATOM      7  N3  <0> d           1.164  -0.682  -0.013  0.00  0.00    -0.274 N 
ATOM      8  H2  <0> d           1.157  -1.682  -0.019  0.00  0.00     0.173 HD
ATOM      9  C6  <0> d           2.339  -0.021  -0.021  0.00  0.00     0.272 A 
ATOM     10  O2  <0> d           3.390  -0.635  -0.035  0.00  0.00    -0.266 OA
ATOM     11  H9  <0> d           1.134   3.136   0.008  0.00  0.00     0.114 H 
ENDROOT
BRANCH   1  12
ATOM     12  N1  <0> d           3.552   2.114  -0.020  0.00  0.00    -0.286 NA
BRANCH  12  13
ATOM     13  C1  <0> d           4.364   1.783   1.158  0.00  0.00    -0.029 C 
ATOM     14  H3  <0> d           4.587   0.716   1.158  0.00  0.00     0.048 H 
ATOM     15  H4  <0> d           5.296   2.348   1.128  0.00  0.00     0.048 H 
ATOM     16  H5  <0> d           3.813   2.039   2.063  0.00  0.00     0.048 H 
ENDBRANCH  12  13
BRANCH  12  17
ATOM     17  C2  <0> d           4.300   1.869  -1.261  0.00  0.00    -0.029 C 
ATOM     18  H6  <0> d           3.701   2.187  -2.114  0.00  0.00     0.048 H 
ATOM     19  H7  <0> d           5.232   2.432  -1.240  0.00  0.00     0.048 H 
ATOM     20  H8  <0> d           4.520   0.805  -1.348  0.00  0.00     0.048 H 
ENDBRANCH  12  17
ENDBRANCH   1  12
TORSDOF 3
