REMARK  4 active torsions:
REMARK  status: ('A' for Active; 'I' for Inactive)
REMARK    1  A    between atoms: C1_1  and  C2_2 
REMARK    2  A    between atoms: C2_2  and  C3_3 
REMARK    3  A    between atoms: C2_2  and  C4_5 
REMARK    4  A    between atoms: C2_2  and  O2_9 
ROOT
ATOM      1  C2  <0> d          -0.019   1.526   0.010  0.00  0.00     0.240 C 
ENDROOT
BRANCH   1   2
ATOM      2  C1  <0> d           0.002  -0.004   0.002  0.00  0.00    -0.030 C 
ATOM      3  H1  <0> d           0.529  -0.365   0.885  0.00  0.00     0.032 H 
ATOM      4  H2  <0> d          -1.020  -0.381   0.010  0.00  0.00     0.032 H 
ATOM      5  H3  <0> d           0.512  -0.356  -0.895  0.00  0.00     0.032 H 
ENDBRANCH   1   2
BRANCH   1   6
ATOM      6  C3  <0> d          -0.748   2.025  -1.210  0.00  0.00     0.218 C 
ATOM      7  O1  <0> d          -0.128   2.326  -2.203  0.00  0.00    -0.645 OA
ATOM      8  O3  <0> d          -2.085   2.135  -1.195  0.00  0.00    -0.645 OA
ENDBRANCH   1   6
BRANCH   1   9
ATOM      9  C4  <0> d           1.417   2.055  -0.000  0.00  0.00     0.428 C 
ATOM     10  F1  <0> d           2.071   1.604  -1.151  0.00  0.00    -0.167 F 
ATOM     11  F2  <0> d           1.398   3.454   0.007  0.00  0.00    -0.167 F 
ATOM     12  F3  <0> d           2.093   1.592   1.133  0.00  0.00    -0.167 F 
ENDBRANCH   1   9
BRANCH   1  13
ATOM     13  O2  <0> d          -0.688   1.987   1.186  0.00  0.00    -0.372 OA
ATOM     14  H4  <0> d          -0.738   2.950   1.258  0.00  0.00     0.211 HD
ENDBRANCH   1  13
TORSDOF 4
