REMARK  3 active torsions:
REMARK  status: ('A' for Active; 'I' for Inactive)
REMARK    1  A    between atoms: C1_1  and  C2_2 
REMARK    2  A    between atoms: C2_2  and  C3_3 
REMARK    3  A    between atoms: C2_2  and  C4_4 
ROOT
ATOM      1  C2  <0> d           2.565   1.272  -0.015  0.00  0.00    -0.029 C 
ATOM      2  H4  <0> d           2.560   0.182  -0.021  0.00  0.00     0.047 H 
ENDROOT
BRANCH   1   3
ATOM      3  C1  <0> d           3.276   1.785  -1.269  0.00  0.00    -0.069 C 
ATOM      4  H1  <0> d           3.280   2.875  -1.263  0.00  0.00     0.028 H 
ATOM      5  H2  <0> d           4.302   1.418  -1.280  0.00  0.00     0.028 H 
ATOM      6  H3  <0> d           2.753   1.428  -2.155  0.00  0.00     0.028 H 
ENDBRANCH   1   3
BRANCH   1   7
ATOM      7  C3  <0> d           3.300   1.772   1.230  0.00  0.00    -0.069 C 
ATOM      8  H5  <0> d           4.326   1.405   1.218  0.00  0.00     0.028 H 
ATOM      9  H6  <0> d           3.304   2.862   1.235  0.00  0.00     0.028 H 
ATOM     10  H7  <0> d           2.793   1.407   2.123  0.00  0.00     0.028 H 
ENDBRANCH   1   7
BRANCH   1  11
ATOM     11  C4  <0> d           1.146   1.780   0.001  0.00  0.00    -0.014 A 
ATOM     12  S1  <0> d           0.555   3.464   0.015  0.00  0.00    -0.106 SA
ATOM     13  C7  <0> d          -1.196   3.116   0.030  0.00  0.00    -0.044 A 
ATOM     14  C6  <0> d          -1.213   1.761   0.017  0.00  0.00    -0.076 A 
ATOM     15  H10 <0> d          -2.027   3.807   0.041  0.00  0.00     0.095 H 
ATOM     16  C5  <0> d          -0.013   1.076   0.008  0.00  0.00    -0.070 A 
ATOM     17  H9  <0> d          -2.150   1.224   0.018  0.00  0.00     0.084 H 
ATOM     18  H8  <0> d           0.002  -0.004   0.002  0.00  0.00     0.085 H 
ENDBRANCH   1  11
TORSDOF 3
