REMARK  5 active torsions:
REMARK  status: ('A' for Active; 'I' for Inactive)
REMARK    1  A    between atoms: C1_1  and  C2_2 
REMARK    2  A    between atoms: C3_3  and  O3_11 
REMARK    3  A    between atoms: C5_5  and  O2_9 
REMARK    4  A    between atoms: C7_7  and  O1_8 
REMARK    5  A    between atoms: O2_9  and  C8_10 
ROOT
ATOM      1  C2  <0> d           0.002  -0.004   0.002  0.00  0.00     0.004 A 
ATOM      2  C3  <0> d           0.006  -0.691  -1.203  0.00  0.00     0.076 A 
ATOM      3  C4  <0> d           0.025  -2.077  -1.210  0.00  0.00    -0.018 A 
ATOM      4  C5  <0> d           0.040  -2.777  -0.013  0.00  0.00     0.073 A 
ATOM      5  C6  <0> d           0.037  -2.091   1.192  0.00  0.00    -0.018 A 
ATOM      6  C7  <0> d           0.023  -0.704   1.199  0.00  0.00     0.076 A 
ATOM      7  H4  <0> d           0.027  -2.612  -2.149  0.00  0.00     0.092 H 
ATOM      8  H5  <0> d           0.049  -2.635   2.124  0.00  0.00     0.092 H 
ENDROOT
BRANCH   4   9
ATOM      9  O2  <0> d           0.058  -4.136  -0.021  0.00  0.00    -0.356 OA
BRANCH   9  10
ATOM     10  C8  <0> d           0.073  -4.792   1.249  0.00  0.00     0.010 C 
ATOM     11  H7  <0> d           0.962  -4.490   1.803  0.00  0.00     0.066 H 
ATOM     12  H8  <0> d          -0.818  -4.513   1.812  0.00  0.00     0.066 H 
ATOM     13  H9  <0> d           0.086  -5.871   1.100  0.00  0.00     0.066 H 
ENDBRANCH   9  10
ENDBRANCH   4   9
BRANCH   2  14
ATOM     14  O3  <0> d          -0.010  -0.005  -2.376  0.00  0.00    -0.360 OA
ATOM     15  H10 <0> d           0.869   0.206  -2.720  0.00  0.00     0.217 HD
ENDBRANCH   2  14
BRANCH   6  16
ATOM     16  O1  <0> d           0.025  -0.031   2.380  0.00  0.00    -0.360 OA
ATOM     17  H6  <0> d          -0.858   0.152   2.730  0.00  0.00     0.217 HD
ENDBRANCH   6  16
BRANCH   1  18
ATOM     18  C1  <0> d          -0.018   1.503   0.010  0.00  0.00    -0.046 C 
ATOM     19  H1  <0> d           1.004   1.880   0.003  0.00  0.00     0.033 H 
ATOM     20  H2  <0> d          -0.545   1.864  -0.873  0.00  0.00     0.033 H 
ATOM     21  H3  <0> d          -0.529   1.854   0.907  0.00  0.00     0.033 H 
ENDBRANCH   1  18
TORSDOF 5
