REMARK  4 active torsions:
REMARK  status: ('A' for Active; 'I' for Inactive)
REMARK    1  A    between atoms: C1_1  and  S1_2 
REMARK    2  A    between atoms: S1_2  and  N1_5 
REMARK    3  A    between atoms: N1_5  and  C2_6 
REMARK    4  A    between atoms: C2_6  and  C3_7 
ROOT
ATOM      1  N1  <0> d          -0.011   0.966   0.007  0.00  0.00    -0.310 N 
ATOM      2  H4  <0> d           0.002  -0.004   0.002  0.00  0.00     0.172 HD
ENDROOT
BRANCH   1   3
ATOM      3  S1  <0> d           1.412   1.813  -0.002  0.00  0.00     0.223 S 
ATOM      4  O1  <0> d           2.426   0.819  -0.041  0.00  0.00    -0.206 OA
ATOM      5  O2  <0> d           1.271   2.747  -1.063  0.00  0.00    -0.206 OA
BRANCH   3   6
ATOM      6  C1  <0> d           1.448   2.680   1.591  0.00  0.00     0.032 C 
ATOM      7  H1  <0> d           1.418   1.952   2.402  0.00  0.00     0.051 H 
ATOM      8  H2  <0> d           2.364   3.267   1.665  0.00  0.00     0.051 H 
ATOM      9  H3  <0> d           0.585   3.341   1.665  0.00  0.00     0.051 H 
ENDBRANCH   3   6
ENDBRANCH   1   3
BRANCH   1  10
ATOM     10  C2  <0> d          -1.290   1.681   0.017  0.00  0.00     0.082 C 
ATOM     11  H5  <0> d          -1.472   2.085   1.013  0.00  0.00     0.081 H 
ATOM     12  H6  <0> d          -1.255   2.497  -0.705  0.00  0.00     0.081 H 
BRANCH  10  13
ATOM     13  C3  <0> d          -2.400   0.731  -0.350  0.00  0.00     0.191 C 
ATOM     14  O3  <0> d          -2.149  -0.426  -0.596  0.00  0.00    -0.647 OA
ATOM     15  O4  <0> d          -3.667   1.168  -0.405  0.00  0.00    -0.647 OA
ENDBRANCH  10  13
ENDBRANCH   1  10
TORSDOF 4
