REMARK  0 active torsions:
REMARK  status: ('A' for Active; 'I' for Inactive)
ROOT
ATOM      1  C1  <0> d          -2.896   1.597   0.105  0.00  0.00    -0.064 C 
ATOM      2  C2  <0> d          -2.213   1.106  -1.173  0.00  0.00    -0.063 C 
ATOM      3  C3  <0> d          -0.766   1.604  -1.218  0.00  0.00    -0.040 C 
ATOM      4  C4  <0> d          -0.013   1.086   0.008  0.00  0.00     0.051 C 
ATOM      5  H1  <0> d           0.002  -0.004   0.002  0.00  0.00     0.084 H 
ATOM      6  C5  <0> d          -0.696   1.594   1.287  0.00  0.00    -0.011 C 
ATOM      7  H2  <0> d          -0.685   2.684   1.306  0.00  0.00     0.046 H 
ATOM      8  C6  <0> d          -2.135   1.076   1.325  0.00  0.00    -0.058 C 
ATOM      9  C7  <0> d           0.080   1.041   2.487  0.00  0.00     0.022 C 
ATOM     10  N1  <0> d           1.512   1.243   2.279  0.00  0.00    -0.278 NA
ATOM     11  C8  <0> d           2.032   1.486   1.137  0.00  0.00     0.091 C 
ATOM     12  O1  <0> d           1.326   1.593  -0.002  0.00  0.00    -0.339 OA
ATOM     13  H3  <0> d          -3.922   1.228   0.132  0.00  0.00     0.033 H 
ATOM     14  H4  <0> d          -2.902   2.687   0.118  0.00  0.00     0.033 H 
ATOM     15  H5  <0> d          -2.213   0.017  -1.190  0.00  0.00     0.033 H 
ATOM     16  H6  <0> d          -2.753   1.483  -2.042  0.00  0.00     0.033 H 
ATOM     17  H7  <0> d          -0.774   2.694  -1.206  0.00  0.00     0.036 H 
ATOM     18  H8  <0> d          -0.271   1.254  -2.124  0.00  0.00     0.036 H 
ATOM     19  H9  <0> d          -2.129  -0.014   1.312  0.00  0.00     0.033 H 
ATOM     20  H10 <0> d          -2.623   1.425   2.235  0.00  0.00     0.033 H 
ATOM     21  H11 <0> d          -0.125  -0.025   2.592  0.00  0.00     0.068 H 
ATOM     22  H12 <0> d          -0.232   1.561   3.392  0.00  0.00     0.068 H 
ATOM     23  H13 <0> d           3.103   1.612   1.084  0.00  0.00     0.154 H 
ENDROOT
TORSDOF 0
