REMARK  4 active torsions:
REMARK  status: ('A' for Active; 'I' for Inactive)
REMARK    1  A    between atoms: C1_1  and  C2_2 
REMARK    2  A    between atoms: C2_2  and  C3_3 
REMARK    3  A    between atoms: C2_2  and  C4_4 
REMARK    4  A    between atoms: C4_4  and  C6_8 
ROOT
ATOM      1  C4  <0> d           0.011   1.072   2.506  0.00  0.00     0.058 C 
ATOM      2  H1  <0> d           1.034   1.450   2.499  0.00  0.00     0.070 H 
ATOM      3  C5  <0> d          -0.678   1.547   3.717  0.00  0.00     0.069 C 
ATOM      4  N1  <0> d          -1.210   1.913   4.652  0.00  0.00    -0.197 NA
ENDROOT
BRANCH   1   5
ATOM      5  C2  <0> d          -0.729   1.579   1.267  0.00  0.00    -0.042 C 
ATOM      6  H5  <0> d          -1.751   1.202   1.275  0.00  0.00     0.041 H 
BRANCH   5   7
ATOM      7  C1  <0> d          -0.013   1.086   0.008  0.00  0.00    -0.072 C 
ATOM      8  H2  <0> d           0.002  -0.004   0.002  0.00  0.00     0.028 H 
ATOM      9  H3  <0> d           1.010   1.463   0.000  0.00  0.00     0.028 H 
ATOM     10  H4  <0> d          -0.540   1.447  -0.875  0.00  0.00     0.028 H 
ENDBRANCH   5   7
BRANCH   5  11
ATOM     11  C3  <0> d          -0.750   3.109   1.275  0.00  0.00    -0.072 C 
ATOM     12  H6  <0> d          -1.277   3.470   0.392  0.00  0.00     0.028 H 
ATOM     13  H7  <0> d          -1.260   3.461   2.172  0.00  0.00     0.028 H 
ATOM     14  H8  <0> d           0.273   3.486   1.268  0.00  0.00     0.028 H 
ENDBRANCH   5  11
ENDBRANCH   1   5
BRANCH   1  15
ATOM     15  C6  <0> d           0.032  -0.434   2.498  0.00  0.00    -0.040 A 
ATOM     16  C11 <0> d           1.238  -1.109   2.483  0.00  0.00    -0.075 A 
ATOM     17  C10 <0> d           1.257  -2.491   2.475  0.00  0.00    -0.082 A 
ATOM     18  H13 <0> d           2.166  -0.557   2.477  0.00  0.00     0.084 H 
ATOM     19  C9  <0> d           0.069  -3.199   2.484  0.00  0.00    -0.083 A 
ATOM     20  H12 <0> d           2.199  -3.019   2.463  0.00  0.00     0.083 H 
ATOM     21  C8  <0> d          -1.137  -2.524   2.499  0.00  0.00    -0.082 A 
ATOM     22  H11 <0> d           0.084  -4.279   2.478  0.00  0.00     0.083 H 
ATOM     23  C7  <0> d          -1.156  -1.142   2.511  0.00  0.00    -0.075 A 
ATOM     24  H10 <0> d          -2.065  -3.077   2.506  0.00  0.00     0.083 H 
ATOM     25  H9  <0> d          -2.098  -0.615   2.528  0.00  0.00     0.084 H 
ENDBRANCH   1  15
TORSDOF 4
