REMARK  3 active torsions:
REMARK  status: ('A' for Active; 'I' for Inactive)
REMARK    1  A    between atoms: C1_1  and  C2_2 
REMARK    2  A    between atoms: C3_4  and  N4_9 
REMARK    3  A    between atoms: C5_6  and  N3_8 
ROOT
ATOM      1  C2  <0> d           0.002  -0.004   0.002  0.00  0.00     0.126 A 
ATOM      2  N1  <0> d          -0.016   1.313   0.009  0.00  0.00    -0.217 NA
ATOM      3  C3  <0> d           1.118   2.012   0.002  0.00  0.00     0.126 A 
ATOM      4  C4  <0> d           2.331   1.331  -0.013  0.00  0.00     0.005 A 
ATOM      5  C5  <0> d           2.306  -0.060  -0.020  0.00  0.00     0.126 A 
ATOM      6  N2  <0> d           1.130  -0.685  -0.012  0.00  0.00    -0.217 NA
ATOM      7  H4  <0> d           3.268   1.868  -0.019  0.00  0.00     0.095 H 
ENDROOT
BRANCH   1   8
ATOM      8  C1  <0> d          -1.305  -0.753   0.011  0.00  0.00    -0.019 C 
ATOM      9  H1  <0> d          -1.630  -0.929  -1.015  0.00  0.00     0.037 H 
ATOM     10  H2  <0> d          -1.173  -1.709   0.518  0.00  0.00     0.037 H 
ATOM     11  H3  <0> d          -2.058  -0.165   0.535  0.00  0.00     0.037 H 
ENDBRANCH   1   8
BRANCH   5  12
ATOM     12  N3  <0> d           3.487  -0.785  -0.034  0.00  0.00    -0.384 N 
ATOM     13  H5  <0> d           3.461  -1.755  -0.038  0.00  0.00     0.157 HD
ATOM     14  H6  <0> d           4.340  -0.323  -0.040  0.00  0.00     0.157 HD
ENDBRANCH   5  12
BRANCH   3  15
ATOM     15  N4  <0> d           1.089   3.398   0.009  0.00  0.00    -0.384 N 
ATOM     16  H7  <0> d           0.240   3.866   0.020  0.00  0.00     0.157 HD
ATOM     17  H8  <0> d           1.919   3.900   0.004  0.00  0.00     0.157 HD
ENDBRANCH   3  15
TORSDOF 3
