REMARK  6 active torsions:
REMARK  status: ('A' for Active; 'I' for Inactive)
REMARK    1  A    between atoms: C1_1  and  C2_2 
REMARK    2  A    between atoms: C2_2  and  C3_3 
REMARK    3  A    between atoms: C2_2  and  O1_4 
REMARK    4  A    between atoms: O1_4  and  C4_5 
REMARK    5  A    between atoms: C4_5  and  C5_7 
REMARK    6  A    between atoms: C5_7  and  O3_8 
ROOT
ATOM      1  C2  <0> d           0.002  -0.004   0.002  0.00  0.00     0.041 C 
ATOM      2  H4  <0> d           0.892  -0.352  -0.522  0.00  0.00     0.083 H 
ENDROOT
BRANCH   1   3
ATOM      3  C1  <0> d           0.023  -0.522   1.442  0.00  0.00    -0.052 C 
ATOM      4  H1  <0> d           0.037  -1.612   1.436  0.00  0.00     0.030 H 
ATOM      5  H2  <0> d           0.913  -0.149   1.949  0.00  0.00     0.030 H 
ATOM      6  H3  <0> d          -0.867  -0.173   1.966  0.00  0.00     0.030 H 
ENDBRANCH   1   3
BRANCH   1   7
ATOM      7  C3  <0> d          -1.247  -0.527  -0.710  0.00  0.00    -0.052 C 
ATOM      8  H5  <0> d          -1.262  -0.158  -1.736  0.00  0.00     0.030 H 
ATOM      9  H6  <0> d          -1.232  -1.617  -0.716  0.00  0.00     0.030 H 
ATOM     10  H7  <0> d          -2.137  -0.179  -0.186  0.00  0.00     0.030 H 
ENDBRANCH   1   7
BRANCH   1  11
ATOM     11  O1  <0> d          -0.018   1.448   0.010  0.00  0.00    -0.315 OA
BRANCH  11  12
ATOM     12  C4  <0> d           1.170   2.073   0.002  0.00  0.00     0.282 C 
ATOM     13  O2  <0> d           2.192   1.429  -0.011  0.00  0.00    -0.263 OA
BRANCH  12  14
ATOM     14  C5  <0> d           1.228   3.579   0.010  0.00  0.00     0.097 C 
ATOM     15  H8  <0> d           0.721   3.967  -0.874  0.00  0.00     0.089 H 
ATOM     16  H9  <0> d           0.738   3.957   0.906  0.00  0.00     0.089 H 
BRANCH  14  17
ATOM     17  O3  <0> d           2.593   4.003  -0.001  0.00  0.00    -0.391 OA
ATOM     18  H10 <0> d           2.707   4.963   0.003  0.00  0.00     0.210 HD
ENDBRANCH  14  17
ENDBRANCH  12  14
ENDBRANCH  11  12
ENDBRANCH   1  11
TORSDOF 6
