REMARK  2 active torsions:
REMARK  status: ('A' for Active; 'I' for Inactive)
REMARK    1  A    between atoms: C1_1  and  C2_2 
REMARK    2  A    between atoms: C5_8  and  C6_10 
ROOT
ATOM      1  C2  <0> d          -0.018   1.503   0.010  0.00  0.00     0.103 A 
ATOM      2  N1  <0> d          -1.205   2.142   0.019  0.00  0.00    -0.312 N 
ATOM      3  H1  <0> d          -2.029   1.631   0.021  0.00  0.00     0.170 HD
ATOM      4  C3  <0> d          -1.250   3.491   0.032  0.00  0.00     0.249 A 
ATOM      5  O1  <0> d          -2.318   4.078   0.044  0.00  0.00    -0.268 OA
ATOM      6  C4  <0> d          -0.029   4.210   0.024  0.00  0.00     0.017 A 
ATOM      7  C5  <0> d           1.151   3.495   0.009  0.00  0.00     0.140 A 
ATOM      8  N2  <0> d           1.113   2.152   0.003  0.00  0.00    -0.229 NA
ATOM      9  H5  <0> d          -0.023   5.290   0.029  0.00  0.00     0.096 H 
ENDROOT
BRANCH   1  10
ATOM     10  C1  <0> d           0.002  -0.004   0.002  0.00  0.00    -0.021 C 
ATOM     11  H2  <0> d           1.034  -0.353  -0.010  0.00  0.00     0.037 H 
ATOM     12  H3  <0> d          -0.498  -0.379   0.895  0.00  0.00     0.037 H 
ATOM     13  H4  <0> d          -0.515  -0.370  -0.885  0.00  0.00     0.037 H 
ENDBRANCH   1  10
BRANCH   7  14
ATOM     14  C6  <0> d           2.454   4.206   0.000  0.00  0.00     0.229 C 
ATOM     15  O2  <0> d           2.484   5.419   0.006  0.00  0.00    -0.643 OA
ATOM     16  O3  <0> d           3.603   3.504  -0.014  0.00  0.00    -0.643 OA
ENDBRANCH   7  14
TORSDOF 2
