REMARK  3 active torsions:
REMARK  status: ('A' for Active; 'I' for Inactive)
REMARK    1  A    between atoms: C1_1  and  C2_2 
REMARK    2  A    between atoms: C4_4  and  C6_8 
REMARK    3  A    between atoms: N1_5  and  C5_7 
ROOT
ATOM      1  C2  <0> d           0.002  -0.004   0.002  0.00  0.00     0.074 A 
ATOM      2  C3  <0> d           0.008  -0.818  -1.136  0.00  0.00     0.083 A 
ATOM      3  C4  <0> d           0.028  -2.108  -0.725  0.00  0.00     0.050 A 
ATOM      4  N1  <0> d           0.034  -2.109   0.625  0.00  0.00    -0.277 N 
ATOM      5  N2  <0> d           0.023  -0.777   1.058  0.00  0.00    -0.176 NA
ATOM      6 Cl1  <0> d          -0.008  -0.271  -2.784  0.00  0.00    -0.080 Cl
ENDROOT
BRANCH   1   7
ATOM      7  C1  <0> d          -0.018   1.503   0.010  0.00  0.00    -0.032 C 
ATOM      8  H1  <0> d           1.004   1.880   0.003  0.00  0.00     0.035 H 
ATOM      9  H2  <0> d          -0.545   1.864  -0.873  0.00  0.00     0.035 H 
ATOM     10  H3  <0> d          -0.529   1.854   0.907  0.00  0.00     0.035 H 
ENDBRANCH   1   7
BRANCH   4  11
ATOM     11  C5  <0> d           0.055  -3.295   1.486  0.00  0.00     0.003 C 
ATOM     12  H4  <0> d           1.087  -3.574   1.694  0.00  0.00     0.059 H 
ATOM     13  H5  <0> d          -0.458  -3.073   2.422  0.00  0.00     0.059 H 
ATOM     14  H6  <0> d          -0.450  -4.119   0.982  0.00  0.00     0.059 H 
ENDBRANCH   4  11
BRANCH   3  15
ATOM     15  C6  <0> d           0.041  -3.324  -1.615  0.00  0.00    -0.034 C 
ATOM     16  H7  <0> d           1.071  -3.603  -1.834  0.00  0.00     0.035 H 
ATOM     17  H8  <0> d          -0.460  -4.150  -1.109  0.00  0.00     0.035 H 
ATOM     18  H9  <0> d          -0.480  -3.099  -2.546  0.00  0.00     0.035 H 
ENDBRANCH   3  15
TORSDOF 3
