REMARK  2 active torsions:
REMARK  status: ('A' for Active; 'I' for Inactive)
REMARK    1  A    between atoms: C2_2  and  O1_8 
REMARK    2  A    between atoms: C3_5  and  N2_6 
ROOT
ATOM      1  C1  <0> d          -0.013   1.076   0.008  0.00  0.00     0.007 A 
ATOM      2  C2  <0> d           1.017   1.931   0.003  0.00  0.00     0.148 A 
ATOM      3  N1  <0> d           0.789   3.275   0.012  0.00  0.00    -0.316 N 
ATOM      4  H1  <0> d           1.528   3.903   0.008  0.00  0.00     0.170 HD
ATOM      5  C3  <0> d          -0.516   3.721   0.027  0.00  0.00     0.165 A 
ATOM      6  S1  <0> d          -1.417   2.179   0.019  0.00  0.00    -0.060 SA
ATOM      7  H2  <0> d           0.002  -0.004   0.002  0.00  0.00     0.101 H 
ENDROOT
BRANCH   2   8
ATOM      8  O1  <0> d           2.291   1.458  -0.012  0.00  0.00    -0.346 OA
ATOM      9  H4  <0> d           2.652   1.326  -0.900  0.00  0.00     0.219 HD
ENDBRANCH   2   8
BRANCH   5  10
ATOM     10  N2  <0> d          -0.973   4.950   0.038  0.00  0.00    -0.278 NA
ATOM     11  H3  <0> d          -1.929   5.112   0.048  0.00  0.00     0.189 HD
ENDBRANCH   5  10
TORSDOF 2
