REMARK  5 active torsions:
REMARK  status: ('A' for Active; 'I' for Inactive)
REMARK    1  A    between atoms: C1_1  and  C2_2 
REMARK    2  A    between atoms: C1_1  and  N1_4 
REMARK    3  A    between atoms: C2_2  and  O1_3 
REMARK    4  A    between atoms: N1_4  and  C3_5 
REMARK    5  A    between atoms: C3_5  and  C4_6 
ROOT
ATOM      1  N1  <0> d           0.529   3.512   1.271  0.00  0.00     0.094 N 
ATOM      2  H6  <0> d          -0.465   3.051   1.369  0.00  0.00     0.316 HD
ENDROOT
BRANCH   1   3
ATOM      3  C1  <0> d           1.145   3.085   0.008  0.00  0.00     0.131 C 
ATOM      4  H1  <0> d           2.139   3.546  -0.090  0.00  0.00     0.082 H 
ATOM      5  H2  <0> d           0.511   3.400  -0.834  0.00  0.00     0.082 H 
BRANCH   3   6
ATOM      6  C2  <0> d           1.286   1.562  -0.002  0.00  0.00     0.041 C 
ATOM      7  H3  <0> d           1.828   1.250  -0.907  0.00  0.00     0.076 H 
ATOM      8  H4  <0> d           1.845   1.240   0.889  0.00  0.00     0.076 H 
BRANCH   6   9
ATOM      9  O1  <0> d          -0.011   0.963   0.007  0.00  0.00    -0.399 OA
ATOM     10  H5  <0> d          -0.111  -0.133   0.002  0.00  0.00     0.209 HD
ENDBRANCH   6   9
ENDBRANCH   3   6
ENDBRANCH   1   3
BRANCH   1  11
ATOM     11  C3  <0> d           0.377   4.972   1.316  0.00  0.00     0.200 C 
ATOM     12  H7  <0> d           1.365   5.447   1.228  0.00  0.00     0.093 H 
ATOM     13  H8  <0> d          -0.263   5.300   0.483  0.00  0.00     0.093 H 
BRANCH  11  14
ATOM     14  C4  <0> d          -0.267   5.378   2.644  0.00  0.00     0.413 C 
ATOM     15  F1  <0> d           0.547   4.961   3.703  0.00  0.00    -0.169 F 
ATOM     16  F2  <0> d          -0.411   6.768   2.686  0.00  0.00    -0.169 F 
ATOM     17  F3  <0> d          -1.524   4.774   2.756  0.00  0.00    -0.169 F 
ENDBRANCH  11  14
ENDBRANCH   1  11
TORSDOF 5
