REMARK  4 active torsions:
REMARK  status: ('A' for Active; 'I' for Inactive)
REMARK    1  A    between atoms: C1_1  and  C2_2 
REMARK    2  A    between atoms: C2_2  and  C3_3 
REMARK    3  A    between atoms: C4_4  and  C7_10 
REMARK    4  A    between atoms: C5_5  and  C6_9 
ROOT
ATOM      1  C3  <0> d           2.096   0.748  -0.014  0.00  0.00     0.062 A 
ATOM      2  C4  <0> d           1.296  -0.399  -0.013  0.00  0.00    -0.012 A 
ATOM      3  C5  <0> d           0.002  -0.004   0.002  0.00  0.00     0.032 A 
ATOM      4  N1  <0> d          -0.016   1.345   0.009  0.00  0.00    -0.282 N 
ATOM      5  H1  <0> d          -0.833   1.923   0.020  0.00  0.00     0.189 HD
ATOM      6  N2  <0> d           1.311   1.794  -0.001  0.00  0.00    -0.179 NA
ENDROOT
BRANCH   1   7
ATOM      7  C2  <0> d           3.603   0.775  -0.028  0.00  0.00    -0.026 C 
ATOM      8  H5  <0> d           3.955   1.669   0.487  0.00  0.00     0.041 H 
ATOM      9  H6  <0> d           3.987  -0.111   0.478  0.00  0.00     0.041 H 
BRANCH   7  10
ATOM     10  C1  <0> d           4.099   0.791  -1.475  0.00  0.00    -0.071 C 
ATOM     11  H2  <0> d           3.747  -0.102  -1.990  0.00  0.00     0.028 H 
ATOM     12  H3  <0> d           3.716   1.677  -1.981  0.00  0.00     0.028 H 
ATOM     13  H4  <0> d           5.189   0.811  -1.485  0.00  0.00     0.028 H 
ENDBRANCH   7  10
ENDBRANCH   1   7
BRANCH   2  14
ATOM     14  C7  <0> d           1.789  -1.823  -0.025  0.00  0.00    -0.047 C 
ATOM     15  H10 <0> d           1.897  -2.161  -1.055  0.00  0.00     0.033 H 
ATOM     16  H11 <0> d           2.753  -1.878   0.479  0.00  0.00     0.033 H 
ATOM     17  H12 <0> d           1.071  -2.460   0.493  0.00  0.00     0.033 H 
ENDBRANCH   2  14
BRANCH   3  18
ATOM     18  C6  <0> d          -1.203  -0.909   0.009  0.00  0.00    -0.035 C 
ATOM     19  H7  <0> d          -1.503  -1.122  -1.017  0.00  0.00     0.035 H 
ATOM     20  H8  <0> d          -0.954  -1.841   0.516  0.00  0.00     0.035 H 
ATOM     21  H9  <0> d          -2.023  -0.418   0.533  0.00  0.00     0.035 H 
ENDBRANCH   3  18
TORSDOF 4
