REMARK  2 active torsions:
REMARK  status: ('A' for Active; 'I' for Inactive)
REMARK    1  A    between atoms: C3_3  and  O1_7 
REMARK    2  A    between atoms: O1_7  and  C6_8 
ROOT
ATOM      1  C1  <0> d          -0.017   1.378   0.010  0.00  0.00    -0.063 A 
ATOM      2  C2  <0> d           1.183   2.071   0.002  0.00  0.00    -0.048 A 
ATOM      3  C3  <0> d           2.368   1.341  -0.013  0.00  0.00     0.092 A 
ATOM      4  C4  <0> d           2.305  -0.044  -0.020  0.00  0.00     0.034 A 
ATOM      5  N1  <0> d           1.143  -0.666  -0.013  0.00  0.00    -0.270 NA
ATOM      6  C5  <0> d           0.002  -0.004   0.002  0.00  0.00     0.002 A 
ATOM      7  H1  <0> d          -0.956   1.911   0.026  0.00  0.00     0.085 H 
ATOM      8  H2  <0> d           1.199   3.151   0.007  0.00  0.00     0.087 H 
ATOM      9  H3  <0> d           3.219  -0.621  -0.032  0.00  0.00     0.119 H 
ATOM     10  H4  <0> d          -0.930  -0.549   0.008  0.00  0.00     0.114 H 
ENDROOT
BRANCH   3  11
ATOM     11  O1  <0> d           3.569   1.978  -0.022  0.00  0.00    -0.289 OA
BRANCH  11  12
ATOM     12  C6  <0> d           4.738   1.156  -0.037  0.00  0.00     0.310 C 
ATOM     13  F1  <0> d           4.751   0.343   1.101  0.00  0.00    -0.184 F 
ATOM     14  F2  <0> d           4.729   0.354  -1.184  0.00  0.00    -0.184 F 
ATOM     15  H5  <0> d           5.626   1.788  -0.043  0.00  0.00     0.195 H 
ENDBRANCH  11  12
ENDBRANCH   3  11
TORSDOF 2
