REMARK  2 active torsions:
REMARK  status: ('A' for Active; 'I' for Inactive)
REMARK    1  A    between atoms: C3_4  and  C6_8 
REMARK    2  A    between atoms: C4_5  and  C5_6 
ROOT
ATOM      1  C1  <0> d           0.141   3.961   0.016  0.00  0.00    -0.042 A 
ATOM      2  C2  <0> d           0.649   5.210   0.022  0.00  0.00     0.021 A 
ATOM      3  O1  <0> d           1.986   5.144   0.010  0.00  0.00    -0.315 OA
ATOM      4  C3  <0> d           2.380   3.858   0.000  0.00  0.00     0.168 A 
ATOM      5  C4  <0> d           1.238   3.067   0.007  0.00  0.00     0.083 A 
ATOM      6  H1  <0> d          -0.906   3.694   0.019  0.00  0.00     0.088 H 
ATOM      7  H2  <0> d           0.069   6.121   0.032  0.00  0.00     0.123 H 
ENDROOT
BRANCH   4   8
ATOM      8  C6  <0> d           3.768   3.377  -0.015  0.00  0.00     0.235 C 
ATOM      9  O3  <0> d           3.998   2.183  -0.022  0.00  0.00    -0.642 OA
ATOM     10  O5  <0> d           4.788   4.259  -0.020  0.00  0.00    -0.642 OA
ENDBRANCH   4   8
BRANCH   5  11
ATOM     11  C5  <0> d           1.181   1.591  -0.001  0.00  0.00     0.212 C 
ATOM     12  O2  <0> d           2.208   0.943  -0.014  0.00  0.00    -0.644 OA
ATOM     13  O4  <0> d          -0.011   0.963   0.007  0.00  0.00    -0.644 OA
ENDBRANCH   5  11
TORSDOF 2
