REMARK  2 active torsions:
REMARK  status: ('A' for Active; 'I' for Inactive)
REMARK    1  A    between atoms: C1_1  and  C2_2 
REMARK    2  A    between atoms: N3_9  and  C6_11 
ROOT
ATOM      1  C2  <0> d           0.002  -0.004   0.002  0.00  0.00     0.066 A 
ATOM      2  C3  <0> d           0.008  -0.824  -1.150  0.00  0.00     0.056 A 
ATOM      3  C4  <0> d           0.002  -0.857  -2.564  0.00  0.00     0.037 A 
ATOM      4  N1  <0> d           0.017  -2.102  -2.948  0.00  0.00    -0.185 NA
ATOM      5  N2  <0> d           0.034  -2.934  -1.822  0.00  0.00    -0.261 N 
ATOM      6  H1  <0> d           0.047  -3.904  -1.832  0.00  0.00     0.191 HD
ATOM      7  C5  <0> d           0.028  -2.147  -0.711  0.00  0.00     0.153 A 
ATOM      8  N3  <0> d           0.034  -2.112   0.651  0.00  0.00    -0.256 N 
ATOM      9  N4  <0> d           0.023  -0.771   1.055  0.00  0.00    -0.175 NA
ATOM     10  H5  <0> d          -0.013   0.004  -3.216  0.00  0.00     0.118 H 
ENDROOT
BRANCH   1  11
ATOM     11  C1  <0> d          -0.018   1.503   0.010  0.00  0.00    -0.033 C 
ATOM     12  H2  <0> d           1.004   1.880   0.003  0.00  0.00     0.035 H 
ATOM     13  H3  <0> d          -0.545   1.864  -0.873  0.00  0.00     0.035 H 
ATOM     14  H4  <0> d          -0.529   1.854   0.907  0.00  0.00     0.035 H 
ENDBRANCH   1  11
BRANCH   8  15
ATOM     15  C6  <0> d           0.053  -3.276   1.540  0.00  0.00     0.004 C 
ATOM     16  H6  <0> d           1.086  -3.551   1.756  0.00  0.00     0.059 H 
ATOM     17  H7  <0> d          -0.460  -3.031   2.471  0.00  0.00     0.059 H 
ATOM     18  H8  <0> d          -0.451  -4.112   1.056  0.00  0.00     0.059 H 
ENDBRANCH   8  15
TORSDOF 2
