REMARK  5 active torsions:
REMARK  status: ('A' for Active; 'I' for Inactive)
REMARK    1  A    between atoms: C1_1  and  C2_2 
REMARK    2  A    between atoms: C2_2  and  C3_3 
REMARK    3  A    between atoms: C3_3  and  C4_4 
REMARK    4  A    between atoms: C4_4  and  C5_5 
REMARK    5  A    between atoms: C7_7  and  N3_11 
ROOT
ATOM      1  C4  <0> d           0.739  -2.027  -1.265  0.00  0.00    -0.023 C 
ATOM      2  H9  <0> d           1.266  -2.388  -0.382  0.00  0.00     0.042 H 
ATOM      3  H10 <0> d          -0.284  -2.405  -1.258  0.00  0.00     0.042 H 
ENDROOT
BRANCH   1   4
ATOM      4  C3  <0> d           0.718  -0.497  -1.257  0.00  0.00    -0.060 C 
ATOM      5  H7  <0> d           0.191  -0.136  -2.140  0.00  0.00     0.033 H 
ATOM      6  H8  <0> d           1.741  -0.120  -1.264  0.00  0.00     0.033 H 
BRANCH   4   7
ATOM      7  C2  <0> d           0.002  -0.004   0.002  0.00  0.00    -0.068 C 
ATOM      8  H5  <0> d           0.529  -0.365   0.885  0.00  0.00     0.032 H 
ATOM      9  H6  <0> d          -1.020  -0.381   0.010  0.00  0.00     0.032 H 
BRANCH   7  10
ATOM     10  C1  <0> d          -0.019   1.526   0.010  0.00  0.00    -0.077 C 
ATOM     11  H2  <0> d           1.004   1.903   0.003  0.00  0.00     0.027 H 
ATOM     12  H3  <0> d          -0.546   1.887  -0.873  0.00  0.00     0.027 H 
ATOM     13  H4  <0> d          -0.529   1.877   0.907  0.00  0.00     0.027 H 
ENDBRANCH   7  10
ENDBRANCH   4   7
ENDBRANCH   1   4
BRANCH   1  14
ATOM     14  C5  <0> d           1.444  -2.513  -2.505  0.00  0.00     0.058 A 
ATOM     15  N2  <0> d           1.138  -2.193  -3.736  0.00  0.00    -0.178 NA
ATOM     16  N1  <0> d           2.029  -2.846  -4.597  0.00  0.00    -0.263 N 
ATOM     17  C7  <0> d           2.877  -3.579  -3.841  0.00  0.00     0.117 A 
ATOM     18  H1  <0> d           2.034  -2.786  -5.566  0.00  0.00     0.190 HD
ATOM     19  C6  <0> d           2.534  -3.388  -2.537  0.00  0.00    -0.014 A 
ATOM     20  H11 <0> d           3.017  -3.834  -1.680  0.00  0.00     0.092 H 
BRANCH  17  21
ATOM     21  N3  <0> d           3.914  -4.381  -4.310  0.00  0.00    -0.384 N 
ATOM     22  H12 <0> d           4.470  -4.870  -3.683  0.00  0.00     0.157 HD
ATOM     23  H13 <0> d           4.079  -4.452  -5.263  0.00  0.00     0.157 HD
ENDBRANCH  17  21
ENDBRANCH   1  14
TORSDOF 5
