REMARK  3 active torsions:
REMARK  status: ('A' for Active; 'I' for Inactive)
REMARK    1  A    between atoms: C1_1  and  O1_2 
REMARK    2  A    between atoms: O1_2  and  C2_3 
REMARK    3  A    between atoms: C2_3  and  C3_5 
ROOT
ATOM      1  C3  <0> d          -1.329   1.940   0.019  0.00  0.00     0.058 C 
ATOM      2  H1  <0> d          -1.426   2.543   0.921  0.00  0.00     0.059 H 
ATOM      3  C4  <0> d          -1.479   2.816  -1.251  0.00  0.00    -0.027 C 
ATOM      4  C5  <0> d          -2.736   2.209  -1.943  0.00  0.00     0.040 C 
ATOM      5  H2  <0> d          -3.254   2.861  -2.646  0.00  0.00     0.083 H 
ATOM      6  C6  <0> d          -2.267   0.840  -2.521  0.00  0.00    -0.038 C 
ATOM      7  C7  <0> d          -2.118  -0.036  -1.251  0.00  0.00    -0.038 C 
ATOM      8  C8  <0> d          -2.521   0.943  -0.108  0.00  0.00     0.051 C 
ATOM      9  H3  <0> d          -2.836   0.471   0.823  0.00  0.00     0.084 H 
ATOM     10  O3  <0> d          -3.519   1.776  -0.783  0.00  0.00    -0.380 OA
ATOM     11  H7  <0> d          -1.651   3.858  -0.983  0.00  0.00     0.038 H 
ATOM     12  H8  <0> d          -0.602   2.720  -1.891  0.00  0.00     0.038 H 
ATOM     13  H9  <0> d          -1.311   0.944  -3.033  0.00  0.00     0.036 H 
ATOM     14  H10 <0> d          -3.019   0.423  -3.192  0.00  0.00     0.036 H 
ATOM     15  H11 <0> d          -1.087  -0.368  -1.130  0.00  0.00     0.036 H 
ATOM     16  H12 <0> d          -2.798  -0.887  -1.288  0.00  0.00     0.036 H 
ENDROOT
BRANCH   1  17
ATOM     17  C2  <0> d          -0.014   1.204   0.009  0.00  0.00     0.265 C 
ATOM     18  O2  <0> d           0.616   1.108  -1.018  0.00  0.00    -0.265 OA
BRANCH  17  19
ATOM     19  O1  <0> d           0.459   0.660   1.141  0.00  0.00    -0.326 OA
BRANCH  19  20
ATOM     20  C1  <0> d           1.735  -0.029   1.058  0.00  0.00     0.013 C 
ATOM     21  H4  <0> d           1.658  -0.851   0.347  0.00  0.00     0.067 H 
ATOM     22  H5  <0> d           2.503   0.669   0.725  0.00  0.00     0.067 H 
ATOM     23  H6  <0> d           2.001  -0.420   2.040  0.00  0.00     0.067 H 
ENDBRANCH  19  20
ENDBRANCH  17  19
ENDBRANCH   1  17
TORSDOF 3
