REMARK  7 active torsions:
REMARK  status: ('A' for Active; 'I' for Inactive)
REMARK    1  A    between atoms: C1_1  and  C2_2 
REMARK    2  A    between atoms: C2_2  and  C3_3 
REMARK    3  A    between atoms: C3_3  and  C4_5 
REMARK    4  A    between atoms: C3_3  and  O3_9 
REMARK    5  A    between atoms: C4_5  and  O2_7 
REMARK    6  A    between atoms: O2_7  and  C5_8 
REMARK    7  A    between atoms: O3_9  and  C6_10 
ROOT
ATOM      1  C3  <0> d          -0.801   1.423   1.302  0.00  0.00     0.121 C 
ATOM      2  H1  <0> d          -1.782   1.048   0.974  0.00  0.00     0.099 H 
ENDROOT
BRANCH   1   3
ATOM      3  C2  <0> d           0.285   1.152   0.259  0.00  0.00    -0.035 C 
ATOM      4  H5  <0> d           0.466   0.069   0.192  0.00  0.00     0.036 H 
ATOM      5  H6  <0> d           1.214   1.661   0.556  0.00  0.00     0.036 H 
BRANCH   3   6
ATOM      6  C1  <0> d          -0.172   1.678  -1.103  0.00  0.00    -0.074 C 
ATOM      7  H2  <0> d           0.609   1.482  -1.853  0.00  0.00     0.027 H 
ATOM      8  H3  <0> d          -0.353   2.761  -1.036  0.00  0.00     0.027 H 
ATOM      9  H4  <0> d          -1.101   1.169  -1.400  0.00  0.00     0.027 H 
ENDBRANCH   3   6
ENDBRANCH   1   3
BRANCH   1  10
ATOM     10  C4  <0> d          -0.407   0.794   2.613  0.00  0.00     0.287 C 
ATOM     11  O1  <0> d          -0.182   1.490   3.574  0.00  0.00    -0.262 OA
BRANCH  10  12
ATOM     12  O2  <0> d          -0.308  -0.541   2.713  0.00  0.00    -0.324 OA
BRANCH  12  13
ATOM     13  C5  <0> d           0.076  -1.078   4.006  0.00  0.00     0.013 C 
ATOM     14  H7  <0> d           0.119  -2.176   3.949  0.00  0.00     0.067 H 
ATOM     15  H8  <0> d          -0.666  -0.779   4.762  0.00  0.00     0.067 H 
ATOM     16  H9  <0> d           1.064  -0.686   4.288  0.00  0.00     0.067 H 
ENDBRANCH  12  13
ENDBRANCH  10  12
ENDBRANCH   1  10
BRANCH   1  17
ATOM     17  O3  <0> d          -0.951   2.834   1.477  0.00  0.00    -0.381 OA
BRANCH  17  18
ATOM     18  C6  <0> d          -2.185   3.353   0.978  0.00  0.00     0.005 C 
ATOM     19  H10 <0> d          -2.223   4.439   1.150  0.00  0.00     0.066 H 
ATOM     20  H11 <0> d          -3.024   2.870   1.500  0.00  0.00     0.066 H 
ATOM     21  H12 <0> d          -2.259   3.150  -0.101  0.00  0.00     0.066 H 
ENDBRANCH  17  18
ENDBRANCH   1  17
TORSDOF 7
