REMARK  3 active torsions:
REMARK  status: ('A' for Active; 'I' for Inactive)
REMARK    1  A    between atoms: C1_1  and  C2_2 
REMARK    2  A    between atoms: C4_5  and  C6_10 
REMARK    3  A    between atoms: C6_10  and  O2_11 
ROOT
ATOM      1  C2  <0> d           0.190   2.879   1.588  0.00  0.00     0.022 C 
ATOM      2  H1  <0> d          -0.308   3.755   1.173  0.00  0.00     0.054 H 
ATOM      3  C3  <0> d          -0.644   1.605   1.319  0.00  0.00    -0.033 C 
ATOM      4  C4  <0> d          -0.013   1.086   0.008  0.00  0.00     0.033 C 
ATOM      5  H2  <0> d           0.002  -0.004   0.002  0.00  0.00     0.075 H 
ATOM      6  N1  <0> d           1.357   1.612  -0.002  0.00  0.00    -0.354 N 
ATOM      7  C5  <0> d           1.498   2.624   0.872  0.00  0.00     0.221 C 
ATOM      8  O1  <0> d           2.524   3.242   1.059  0.00  0.00    -0.273 OA
ATOM      9  H6  <0> d          -1.696   1.850   1.175  0.00  0.00     0.037 H 
ATOM     10  H7  <0> d          -0.521   0.881   2.124  0.00  0.00     0.037 H 
ATOM     11  H8  <0> d           2.070   1.274  -0.567  0.00  0.00     0.162 HD
ENDROOT
BRANCH   4  12
ATOM     12  C6  <0> d          -0.791   1.611  -1.200  0.00  0.00     0.035 C 
ATOM     13  H9  <0> d          -1.839   1.325  -1.110  0.00  0.00     0.077 H 
ATOM     14  H10 <0> d          -0.713   2.697  -1.239  0.00  0.00     0.077 H 
BRANCH  12  15
ATOM     15  O2  <0> d          -0.246   1.051  -2.397  0.00  0.00    -0.399 OA
ATOM     16  H11 <0> d          -0.692   1.341  -3.205  0.00  0.00     0.209 HD
ENDBRANCH  12  15
ENDBRANCH   4  12
BRANCH   1  17
ATOM     17  C1  <0> d           0.428   3.060   3.088  0.00  0.00    -0.065 C 
ATOM     18  H3  <0> d           1.071   3.925   3.252  0.00  0.00     0.028 H 
ATOM     19  H4  <0> d          -0.527   3.217   3.591  0.00  0.00     0.028 H 
ATOM     20  H5  <0> d           0.908   2.168   3.490  0.00  0.00     0.028 H 
ENDBRANCH   1  17
TORSDOF 3
