REMARK  1 active torsions:
REMARK  status: ('A' for Active; 'I' for Inactive)
REMARK    1  A    between atoms: C5_6  and  N2_7 
ROOT
ATOM      1  C1  <0> d          -1.228   2.417   0.021  0.00  0.00    -0.031 A 
ATOM      2  C2  <0> d          -0.021   1.732   0.012  0.00  0.00     0.053 A 
ATOM      3  C3  <0> d           1.161   2.447   0.004  0.00  0.00     0.026 A 
ATOM      4  N1  <0> d           1.157   3.766   0.011  0.00  0.00    -0.229 NA
ATOM      5  C4  <0> d           0.033   4.457   0.025  0.00  0.00     0.236 A 
ATOM      6  C5  <0> d          -1.199   3.807   0.034  0.00  0.00     0.086 A 
ATOM      7  F1  <0> d           0.077   5.807   0.031  0.00  0.00    -0.182 F 
ATOM      8 Cl1  <0> d           0.002  -0.004   0.002  0.00  0.00    -0.083 Cl
ATOM      9  H1  <0> d          -2.167   1.883   0.023  0.00  0.00     0.089 H 
ATOM     10  H2  <0> d           2.103   1.918  -0.007  0.00  0.00     0.117 H 
ENDROOT
BRANCH   6  11
ATOM     11  N2  <0> d          -2.389   4.542   0.048  0.00  0.00    -0.395 N 
ATOM     12  H3  <0> d          -2.360   5.512   0.052  0.00  0.00     0.156 HD
ATOM     13  H4  <0> d          -3.243   4.082   0.054  0.00  0.00     0.156 HD
ENDBRANCH   6  11
TORSDOF 1
