REMARK  3 active torsions:
REMARK  status: ('A' for Active; 'I' for Inactive)
REMARK    1  A    between atoms: C1_1  and  C2_2 
REMARK    2  A    between atoms: C3_3  and  C8_10 
REMARK    3  A    between atoms: C7_7  and  O1_8 
ROOT
ATOM      1  C2  <0> d           0.001   1.805   2.404  0.00  0.00    -0.021 A 
ATOM      2  C3  <0> d          -0.718   1.572   1.248  0.00  0.00    -0.032 A 
ATOM      3  C4  <0> d          -2.084   1.789   1.226  0.00  0.00     0.040 A 
ATOM      4  C5  <0> d          -2.735   2.231   2.364  0.00  0.00    -0.059 A 
ATOM      5  C6  <0> d          -2.020   2.466   3.522  0.00  0.00    -0.049 A 
ATOM      6  C7  <0> d          -0.649   2.253   3.545  0.00  0.00     0.072 A 
ATOM      7 Cl1  <0> d          -2.984   1.502  -0.231  0.00  0.00    -0.084 Cl
ATOM      8  H4  <0> d          -3.802   2.396   2.346  0.00  0.00     0.086 H 
ATOM      9  H5  <0> d          -2.527   2.814   4.410  0.00  0.00     0.087 H 
ENDROOT
BRANCH   1  10
ATOM     10  C1  <0> d           1.490   1.574   2.426  0.00  0.00    -0.048 C 
ATOM     11  H1  <0> d           2.004   2.491   2.139  0.00  0.00     0.033 H 
ATOM     12  H2  <0> d           1.798   1.285   3.431  0.00  0.00     0.033 H 
ATOM     13  H3  <0> d           1.744   0.779   1.725  0.00  0.00     0.033 H 
ENDBRANCH   1  10
BRANCH   6  14
ATOM     14  O1  <0> d           0.057   2.483   4.684  0.00  0.00    -0.360 OA
ATOM     15  H6  <0> d           0.395   3.386   4.762  0.00  0.00     0.217 HD
ENDBRANCH   6  14
BRANCH   2  16
ATOM     16  C8  <0> d          -0.013   1.086   0.008  0.00  0.00    -0.049 C 
ATOM     17  H7  <0> d           0.002  -0.004   0.002  0.00  0.00     0.033 H 
ATOM     18  H8  <0> d           1.010   1.463   0.000  0.00  0.00     0.033 H 
ATOM     19  H9  <0> d          -0.540   1.447  -0.875  0.00  0.00     0.033 H 
ENDBRANCH   2  16
TORSDOF 3
