REMARK  1 active torsions:
REMARK  status: ('A' for Active; 'I' for Inactive)
REMARK    1  A    between atoms: C9_9  and  C10_11 
REMARK       I    between atoms: C10_11  and  N1_13 
ROOT
ATOM      1  C1  <0> d          -5.931   3.233  -0.679  0.00  0.00    -0.082 A 
ATOM      2  C2  <0> d          -5.236   3.517   0.483  0.00  0.00    -0.082 A 
ATOM      3  C3  <0> d          -4.097   2.799   0.805  0.00  0.00    -0.075 A 
ATOM      4  C4  <0> d          -3.655   1.801  -0.033  0.00  0.00    -0.031 A 
ATOM      5  C5  <0> d          -4.348   1.505  -1.208  0.00  0.00    -0.029 A 
ATOM      6  C6  <0> d          -5.496   2.235  -1.525  0.00  0.00    -0.072 A 
ATOM      7  C7  <0> d          -3.657   0.403  -1.905  0.00  0.00    -0.075 A 
ATOM      8  C8  <0> d          -2.591   0.010  -1.231  0.00  0.00    -0.085 A 
ATOM      9  C9  <0> d          -2.482   0.853   0.018  0.00  0.00     0.066 A 
ATOM     10  H1  <0> d          -2.544   0.222   0.905  0.00  0.00     0.068 H 
ATOM     11  H2  <0> d          -6.819   3.796  -0.924  0.00  0.00     0.083 H 
ATOM     12  H3  <0> d          -5.583   4.300   1.141  0.00  0.00     0.083 H 
ATOM     13  H4  <0> d          -3.555   3.022   1.712  0.00  0.00     0.084 H 
ATOM     14  H5  <0> d          -6.043   2.017  -2.431  0.00  0.00     0.084 H 
ATOM     15  H6  <0> d          -3.981  -0.025  -2.842  0.00  0.00     0.084 H 
ATOM     16  H7  <0> d          -1.913  -0.778  -1.523  0.00  0.00     0.078 H 
ENDROOT
BRANCH   9  17
ATOM     17  C10 <0> d          -1.187   1.624   0.017  0.00  0.00     0.227 C 
ATOM     18  O1  <0> d          -1.204   2.837   0.023  0.00  0.00    -0.273 OA
ATOM     19  N1  <0> d          -0.011   0.966   0.007  0.00  0.00    -0.369 N 
ATOM     20  H8  <0> d           0.002  -0.004   0.002  0.00  0.00     0.159 HD
ATOM     21  H9  <0> d           0.822   1.462   0.002  0.00  0.00     0.159 HD
ENDBRANCH   9  17
TORSDOF 1
