REMARK  1 active torsions:
REMARK  status: ('A' for Active; 'I' for Inactive)
REMARK    1  A    between atoms: C2_2  and  N5_11 
ROOT
ATOM      1  C1  <0> d           1.189  -0.671  -0.013  0.00  0.00     0.007 A 
ATOM      2  C2  <0> d           0.002  -0.004   0.002  0.00  0.00     0.130 A 
ATOM      3  N1  <0> d          -1.179  -0.710   0.015  0.00  0.00    -0.175 NA
ATOM      4  C3  <0> d          -1.177  -2.056   0.002  0.00  0.00     0.372 A 
ATOM      5  O1  <0> d          -2.233  -2.658   0.009  0.00  0.00    -0.242 OA
ATOM      6  N2  <0> d          -0.023  -2.744  -0.013  0.00  0.00    -0.161 N 
ATOM      7  C4  <0> d           1.177  -2.083  -0.020  0.00  0.00     0.161 A 
ATOM      8  N3  <0> d           2.133  -2.998  -0.035  0.00  0.00    -0.221 NA
ATOM      9  C5  <0> d           1.589  -4.213  -0.036  0.00  0.00     0.109 A 
ATOM     10  N4  <0> d           0.285  -4.111  -0.023  0.00  0.00    -0.155 NA
ATOM     11  H1  <0> d           2.123  -0.129  -0.018  0.00  0.00     0.095 H 
ATOM     12  H2  <0> d           2.141  -5.141  -0.046  0.00  0.00     0.149 H 
ENDROOT
BRANCH   2  13
ATOM     13  N5  <0> d          -0.017   1.375   0.010  0.00  0.00    -0.384 N 
ATOM     14  H3  <0> d          -0.977   1.912   0.022  0.00  0.00     0.157 HD
ATOM     15  H4  <0> d           0.928   1.938   0.004  0.00  0.00     0.157 HD
ENDBRANCH   2  13
TORSDOF 1
