REMARK  2 active torsions:
REMARK  status: ('A' for Active; 'I' for Inactive)
REMARK    1  A    between atoms: C2_2  and  N2_8 
REMARK    2  A    between atoms: C5_6  and  O1_7 
ROOT
ATOM      1  C1  <0> d          -1.260   3.039   0.030  0.00  0.00    -0.023 A 
ATOM      2  C2  <0> d          -1.230   1.648   0.017  0.00  0.00     0.046 A 
ATOM      3  C3  <0> d          -2.430   0.947   0.019  0.00  0.00     0.027 A 
ATOM      4  N1  <0> d          -3.583   1.584   0.028  0.00  0.00    -0.268 NA
ATOM      5  C4  <0> d          -3.651   2.900   0.035  0.00  0.00     0.034 A 
ATOM      6  C5  <0> d          -2.498   3.672   0.034  0.00  0.00     0.085 A 
ATOM      7  H1  <0> d          -0.345   3.613   0.034  0.00  0.00     0.091 H 
ATOM      8  H2  <0> d          -2.416  -0.133   0.013  0.00  0.00     0.118 H 
ATOM      9  H3  <0> d          -4.617   3.384   0.042  0.00  0.00     0.119 H 
ENDROOT
BRANCH   2  10
ATOM     10  N2  <0> d          -0.011   0.966   0.007  0.00  0.00    -0.398 N 
ATOM     11  H5  <0> d           0.002  -0.004   0.002  0.00  0.00     0.156 HD
ATOM     12  H6  <0> d           0.822   1.462   0.002  0.00  0.00     0.156 HD
ENDBRANCH   2  10
BRANCH   6  13
ATOM     13  O1  <0> d          -2.577   5.029   0.042  0.00  0.00    -0.359 OA
ATOM     14  H4  <0> d          -2.596   5.417   0.927  0.00  0.00     0.217 HD
ENDBRANCH   6  13
TORSDOF 2
