REMARK  4 active torsions:
REMARK  status: ('A' for Active; 'I' for Inactive)
REMARK    1  A    between atoms: C1_1  and  C2_2 
REMARK    2  A    between atoms: C2_2  and  C3_3 
REMARK    3  A    between atoms: C3_3  and  C4_4 
REMARK    4  A    between atoms: C4_4  and  C5_5 
ROOT
ATOM      1  C5  <0> d          -2.848  -2.593   0.015  0.00  0.00    -0.033 C 
ATOM      2  H1  <0> d          -3.386  -2.171   0.864  0.00  0.00     0.043 H 
ATOM      3  C6  <0> d          -2.829  -4.120   0.130  0.00  0.00    -0.058 C 
ATOM      4  C7  <0> d          -4.267  -4.644   0.061  0.00  0.00    -0.045 C 
ATOM      5  C8  <0> d          -4.914  -4.167  -1.242  0.00  0.00     0.019 C 
ATOM      6  O1  <0> d          -4.871  -2.740  -1.298  0.00  0.00    -0.391 OA
ATOM      7  C9  <0> d          -3.550  -2.194  -1.285  0.00  0.00     0.023 C 
ATOM      8  H11 <0> d          -2.249  -4.540  -0.692  0.00  0.00     0.033 H 
ATOM      9  H12 <0> d          -2.381  -4.410   1.080  0.00  0.00     0.033 H 
ATOM     10  H13 <0> d          -4.259  -5.734   0.086  0.00  0.00     0.036 H 
ATOM     11  H14 <0> d          -4.834  -4.264   0.910  0.00  0.00     0.036 H 
ATOM     12  H15 <0> d          -4.370  -4.581  -2.091  0.00  0.00     0.074 H 
ATOM     13  H16 <0> d          -5.951  -4.501  -1.276  0.00  0.00     0.074 H 
ATOM     14  H17 <0> d          -3.605  -1.107  -1.350  0.00  0.00     0.074 H 
ATOM     15  H18 <0> d          -2.989  -2.581  -2.135  0.00  0.00     0.074 H 
ENDROOT
BRANCH   1  16
ATOM     16  C4  <0> d          -1.413  -2.063   0.004  0.00  0.00    -0.060 C 
ATOM     17  H9  <0> d          -0.902  -2.415  -0.892  0.00  0.00     0.033 H 
ATOM     18  H10 <0> d          -0.885  -2.425   0.887  0.00  0.00     0.033 H 
BRANCH  16  19
ATOM     19  C3  <0> d          -1.433  -0.534   0.013  0.00  0.00    -0.065 C 
ATOM     20  H7  <0> d          -1.944  -0.182   0.910  0.00  0.00     0.033 H 
ATOM     21  H8  <0> d          -1.960  -0.173  -0.870  0.00  0.00     0.033 H 
BRANCH  19  22
ATOM     22  C2  <0> d           0.002  -0.004   0.002  0.00  0.00    -0.069 C 
ATOM     23  H5  <0> d           0.512  -0.356  -0.895  0.00  0.00     0.032 H 
ATOM     24  H6  <0> d           0.529  -0.365   0.885  0.00  0.00     0.032 H 
BRANCH  22  25
ATOM     25  C1  <0> d          -0.019   1.526   0.010  0.00  0.00    -0.077 C 
ATOM     26  H2  <0> d           1.004   1.903   0.003  0.00  0.00     0.027 H 
ATOM     27  H3  <0> d          -0.546   1.887  -0.873  0.00  0.00     0.027 H 
ATOM     28  H4  <0> d          -0.529   1.877   0.907  0.00  0.00     0.027 H 
ENDBRANCH  22  25
ENDBRANCH  19  22
ENDBRANCH  16  19
ENDBRANCH   1  16
TORSDOF 4
