REMARK  3 active torsions:
REMARK  status: ('A' for Active; 'I' for Inactive)
REMARK    1  A    between atoms: C1_1  and  C2_2 
REMARK    2  A    between atoms: C2_2  and  C4_6 
REMARK    3  A    between atoms: C7_9  and  N2_12 
ROOT
ATOM      1  C2  <0> d           0.002  -0.004   0.002  0.00  0.00     0.052 C 
ATOM      2  H1  <0> d           1.034  -0.353  -0.010  0.00  0.00     0.069 H 
ATOM      3  C3  <0> d          -0.697  -0.498  -1.196  0.00  0.00     0.068 C 
ATOM      4  N1  <0> d          -1.236  -0.879  -2.120  0.00  0.00    -0.197 NA
ENDROOT
BRANCH   1   5
ATOM      5  C1  <0> d          -0.700  -0.530   1.255  0.00  0.00    -0.057 C 
ATOM      6  H2  <0> d          -0.685  -1.620   1.249  0.00  0.00     0.029 H 
ATOM      7  H3  <0> d          -0.183  -0.165   2.142  0.00  0.00     0.029 H 
ATOM      8  H4  <0> d          -1.733  -0.181   1.267  0.00  0.00     0.029 H 
ENDBRANCH   1   5
BRANCH   1   9
ATOM      9  C4  <0> d          -0.018   1.503   0.010  0.00  0.00    -0.041 A 
ATOM     10  C9  <0> d           1.171   2.209   0.003  0.00  0.00    -0.073 A 
ATOM     11  C8  <0> d           1.155   3.590   0.010  0.00  0.00    -0.057 A 
ATOM     12  H8  <0> d           2.112   1.680  -0.009  0.00  0.00     0.084 H 
ATOM     13  C7  <0> d          -0.056   4.269   0.025  0.00  0.00     0.025 A 
ATOM     14  H7  <0> d           2.084   4.141   0.005  0.00  0.00     0.086 H 
ATOM     15  C6  <0> d          -1.248   3.557   0.033  0.00  0.00    -0.057 A 
ATOM     16  C5  <0> d          -1.226   2.176   0.020  0.00  0.00    -0.073 A 
ATOM     17  H6  <0> d          -2.192   4.082   0.045  0.00  0.00     0.086 H 
ATOM     18  H5  <0> d          -2.153   1.622   0.021  0.00  0.00     0.084 H 
BRANCH  13  19
ATOM     19  N2  <0> d          -0.075   5.666   0.033  0.00  0.00    -0.399 N 
ATOM     20  H9  <0> d           0.758   6.162   0.027  0.00  0.00     0.156 HD
ATOM     21  H10 <0> d          -0.921   6.140   0.043  0.00  0.00     0.156 HD
ENDBRANCH  13  19
ENDBRANCH   1   9
TORSDOF 3
