REMARK  1 active torsions:
REMARK  status: ('A' for Active; 'I' for Inactive)
REMARK    1  A    between atoms: C9_10  and  O1_12 
ROOT
ATOM      1  C1  <0> d          -0.017   1.380   0.010  0.00  0.00    -0.045 A 
ATOM      2  C2  <0> d           1.171   2.085   0.002  0.00  0.00    -0.071 A 
ATOM      3  C3  <0> d           2.381   1.412  -0.014  0.00  0.00    -0.023 A 
ATOM      4  C4  <0> d           2.401   0.030  -0.021  0.00  0.00    -0.046 A 
ATOM      5  C5  <0> d           1.211  -0.677  -0.013  0.00  0.00    -0.039 A 
ATOM      6  C6  <0> d           0.002  -0.004   0.002  0.00  0.00     0.117 A 
ATOM      7  F1  <0> d          -1.158  -0.697   0.010  0.00  0.00    -0.206 F 
ATOM      8  C7  <0> d           3.833  -0.461  -0.039  0.00  0.00    -0.038 C 
ATOM      9  C8  <0> d           4.672   0.756  -0.481  0.00  0.00    -0.033 C 
ATOM     10  C9  <0> d           3.798   1.944  -0.025  0.00  0.00     0.061 C 
ATOM     11  H1  <0> d           3.886   2.771  -0.730  0.00  0.00     0.090 H 
ATOM     12  H2  <0> d          -0.959   1.908   0.026  0.00  0.00     0.088 H 
ATOM     13  H3  <0> d           1.156   3.165   0.008  0.00  0.00     0.084 H 
ATOM     14  H4  <0> d           1.226  -1.757  -0.019  0.00  0.00     0.089 H 
ATOM     15  H5  <0> d           4.134  -0.786   0.957  0.00  0.00     0.040 H 
ATOM     16  H6  <0> d           3.944  -1.277  -0.753  0.00  0.00     0.040 H 
ATOM     17  H7  <0> d           5.636   0.767   0.026  0.00  0.00     0.037 H 
ATOM     18  H8  <0> d           4.803   0.764  -1.563  0.00  0.00     0.037 H 
ENDROOT
BRANCH  10  19
ATOM     19  O1  <0> d           4.180   2.366   1.285  0.00  0.00    -0.391 OA
ATOM     20  H9  <0> d           3.637   3.083   1.642  0.00  0.00     0.210 HD
ENDBRANCH  10  19
TORSDOF 1
