REMARK  4 active torsions:
REMARK  status: ('A' for Active; 'I' for Inactive)
REMARK    1  A    between atoms: C1_1  and  C2_2 
REMARK    2  A    between atoms: C2_2  and  C3_3 
REMARK    3  A    between atoms: C2_2  and  C4_4 
REMARK    4  A    between atoms: C2_2  and  C5_5 
ROOT
ATOM      1  C5  <0> d           0.002  -0.004   0.002  0.00  0.00    -0.042 C 
ATOM      2  H1  <0> d           0.444  -0.367   0.930  0.00  0.00     0.041 H 
ATOM      3  C6  <0> d           0.833  -0.494  -1.185  0.00  0.00    -0.060 C 
ATOM      4  C7  <0> d           2.286  -0.044  -1.022  0.00  0.00    -0.059 C 
ATOM      5  C8  <0> d           2.351   1.486  -1.053  0.00  0.00    -0.010 C 
ATOM      6  C9  <0> d           1.409   2.028  -0.001  0.00  0.00     0.127 C 
ATOM      7  O1  <0> d           1.787   2.840   0.810  0.00  0.00    -0.298 OA
ATOM      8  C10 <0> d          -0.019   1.528   0.010  0.00  0.00    -0.006 C 
ATOM      9  H11 <0> d           0.793  -1.583  -1.230  0.00  0.00     0.033 H 
ATOM     10  H12 <0> d           0.426  -0.080  -2.108  0.00  0.00     0.033 H 
ATOM     11  H13 <0> d           2.674  -0.406  -0.070  0.00  0.00     0.033 H 
ATOM     12  H14 <0> d           2.885  -0.450  -1.837  0.00  0.00     0.033 H 
ATOM     13  H15 <0> d           3.286   1.784  -0.862  0.00  0.00     0.044 H 
ATOM     14  H16 <0> d           2.048   1.846  -2.036  0.00  0.00     0.044 H 
ATOM     15  H17 <0> d          -0.504   1.859  -0.799  0.00  0.00     0.044 H 
ATOM     16  H18 <0> d          -0.524   1.882   0.909  0.00  0.00     0.044 H 
ENDROOT
BRANCH   1  17
ATOM     17  C2  <0> d          -1.428  -0.533  -0.122  0.00  0.00    -0.047 C 
BRANCH  17  18
ATOM     18  C1  <0> d          -2.049  -0.025  -1.425  0.00  0.00    -0.069 C 
ATOM     19  H2  <0> d          -1.457  -0.375  -2.271  0.00  0.00     0.028 H 
ATOM     20  H3  <0> d          -3.067  -0.401  -1.514  0.00  0.00     0.028 H 
ATOM     21  H4  <0> d          -2.063   1.065  -1.419  0.00  0.00     0.028 H 
ENDBRANCH  17  18
BRANCH  17  22
ATOM     22  C3  <0> d          -1.407  -2.063  -0.131  0.00  0.00    -0.069 C 
ATOM     23  H5  <0> d          -0.965  -2.425   0.797  0.00  0.00     0.028 H 
ATOM     24  H6  <0> d          -2.426  -2.440  -0.219  0.00  0.00     0.028 H 
ATOM     25  H7  <0> d          -0.815  -2.413  -0.976  0.00  0.00     0.028 H 
ENDBRANCH  17  22
BRANCH  17  26
ATOM     26  C4  <0> d          -2.259  -0.041   1.064  0.00  0.00    -0.069 C 
ATOM     27  H8  <0> d          -2.274   1.049   1.070  0.00  0.00     0.028 H 
ATOM     28  H9  <0> d          -3.278  -0.418   0.976  0.00  0.00     0.028 H 
ATOM     29  H10 <0> d          -1.817  -0.403   1.992  0.00  0.00     0.028 H 
ENDBRANCH  17  26
ENDBRANCH   1  17
TORSDOF 4
