REMARK  3 active torsions:
REMARK  status: ('A' for Active; 'I' for Inactive)
REMARK    1  A    between atoms: C4_4  and  C7_7 
REMARK    2  A    between atoms: C7_7  and  C8_8 
REMARK    3  A    between atoms: C8_8  and  O1_9 
ROOT
ATOM      1  C1  <0> d          -0.017   1.378   0.010  0.00  0.00    -0.083 A 
ATOM      2  C2  <0> d           1.171   2.086   0.002  0.00  0.00    -0.082 A 
ATOM      3  C3  <0> d           2.377   1.411  -0.013  0.00  0.00    -0.077 A 
ATOM      4  C4  <0> d           2.396   0.029  -0.020  0.00  0.00    -0.056 A 
ATOM      5  C5  <0> d           1.208  -0.679  -0.012  0.00  0.00    -0.077 A 
ATOM      6  C6  <0> d           0.002  -0.004   0.002  0.00  0.00    -0.082 A 
ATOM      7  H1  <0> d          -0.959   1.905   0.026  0.00  0.00     0.083 H 
ATOM      8  H2  <0> d           1.156   3.165   0.008  0.00  0.00     0.083 H 
ATOM      9  H3  <0> d           3.305   1.963  -0.020  0.00  0.00     0.084 H 
ATOM     10  H4  <0> d           1.223  -1.759  -0.018  0.00  0.00     0.084 H 
ATOM     11  H5  <0> d          -0.926  -0.557   0.008  0.00  0.00     0.083 H 
ENDROOT
BRANCH   4  12
ATOM     12  C7  <0> d           3.711  -0.707  -0.038  0.00  0.00    -0.021 C 
ATOM     13  H6  <0> d           3.588  -1.659  -0.555  0.00  0.00     0.043 H 
ATOM     14  H7  <0> d           4.457  -0.105  -0.556  0.00  0.00     0.043 H 
BRANCH  12  15
ATOM     15  C8  <0> d           4.171  -0.963   1.399  0.00  0.00     0.020 C 
ATOM     16  H8  <0> d           4.294  -0.012   1.916  0.00  0.00     0.074 H 
ATOM     17  H9  <0> d           3.425  -1.565   1.918  0.00  0.00     0.074 H 
BRANCH  15  18
ATOM     18  O1  <0> d           5.418  -1.661   1.382  0.00  0.00    -0.401 OA
ATOM     19  H10 <0> d           5.771  -1.857   2.261  0.00  0.00     0.209 HD
ENDBRANCH  15  18
ENDBRANCH  12  15
ENDBRANCH   4  12
TORSDOF 3
