REMARK  8 active torsions:
REMARK  status: ('A' for Active; 'I' for Inactive)
REMARK    1  A    between atoms: C1_1  and  C2_2 
REMARK    2  A    between atoms: C2_2  and  C3_3 
REMARK    3  A    between atoms: C3_3  and  C4_4 
REMARK    4  A    between atoms: C4_4  and  C5_6 
REMARK    5  A    between atoms: C4_4  and  C6_7 
REMARK    6  A    between atoms: C6_7  and  C7_9 
REMARK    7  A    between atoms: C7_9  and  C8_10 
REMARK    8  A    between atoms: C7_9  and  C9_11 
ROOT
ATOM      1  C4  <0> d          -1.329   1.939   0.019  0.00  0.00     0.001 C 
ATOM      2  H1  <0> d          -1.220   2.812   0.494  0.00  0.00     0.051 H 
ENDROOT
BRANCH   1   3
ATOM      3  C3  <0> d          -2.381   1.094   0.741  0.00  0.00    -0.056 C 
ATOM      4  H7  <0> d          -2.565   0.181   0.173  0.00  0.00     0.034 H 
ATOM      5  H8  <0> d          -2.019   0.836   1.736  0.00  0.00     0.034 H 
BRANCH   3   6
ATOM      6  C2  <0> d          -3.681   1.891   0.861  0.00  0.00    -0.068 C 
ATOM      7  H5  <0> d          -3.497   2.804   1.428  0.00  0.00     0.032 H 
ATOM      8  H6  <0> d          -4.043   2.149  -0.135  0.00  0.00     0.032 H 
BRANCH   6   9
ATOM      9  C1  <0> d          -4.733   1.046   1.583  0.00  0.00    -0.076 C 
ATOM     10  H2  <0> d          -4.917   0.134   1.016  0.00  0.00     0.027 H 
ATOM     11  H3  <0> d          -4.371   0.788   2.578  0.00  0.00     0.027 H 
ATOM     12  H4  <0> d          -5.659   1.614   1.668  0.00  0.00     0.027 H 
ENDBRANCH   6   9
ENDBRANCH   3   6
ENDBRANCH   1   3
BRANCH   1  13
ATOM     13  C5  <0> d          -1.781   2.196  -1.420  0.00  0.00    -0.066 C 
ATOM     14  H9  <0> d          -1.901   1.245  -1.938  0.00  0.00     0.028 H 
ATOM     15  H10 <0> d          -2.733   2.728  -1.413  0.00  0.00     0.028 H 
ATOM     16  H11 <0> d          -1.032   2.798  -1.934  0.00  0.00     0.028 H 
ENDBRANCH   1  13
BRANCH   1  17
ATOM     17  C6  <0> d          -0.014   1.203   0.009  0.00  0.00     0.134 C 
ATOM     18  O1  <0> d           0.002  -0.004   0.002  0.00  0.00    -0.297 OA
BRANCH  17  19
ATOM     19  C7  <0> d           1.280   1.975   0.000  0.00  0.00    -0.003 C 
ATOM     20  H12 <0> d           1.144   2.849  -0.465  0.00  0.00     0.050 H 
BRANCH  19  21
ATOM     21  C8  <0> d           1.732   2.228   1.440  0.00  0.00    -0.067 C 
ATOM     22  H13 <0> d           2.669   2.786   1.434  0.00  0.00     0.028 H 
ATOM     23  H14 <0> d           0.970   2.804   1.964  0.00  0.00     0.028 H 
ATOM     24  H15 <0> d           1.881   1.274   1.947  0.00  0.00     0.028 H 
ENDBRANCH  19  21
BRANCH  19  25
ATOM     25  C9  <0> d           2.351   1.166  -0.735  0.00  0.00    -0.067 C 
ATOM     26  H16 <0> d           2.029   0.986  -1.761  0.00  0.00     0.028 H 
ATOM     27  H17 <0> d           3.287   1.724  -0.741  0.00  0.00     0.028 H 
ATOM     28  H18 <0> d           2.499   0.213  -0.228  0.00  0.00     0.028 H 
ENDBRANCH  19  25
ENDBRANCH  17  19
ENDBRANCH   1  17
TORSDOF 8
