REMARK  2 active torsions:
REMARK  status: ('A' for Active; 'I' for Inactive)
REMARK    1  A    between atoms: C1_1  and  C4_9 
REMARK    2  A    between atoms: C2_2  and  C3_6 
REMARK       I    between atoms: C3_6  and  N3_8 
REMARK       I    between atoms: C4_9  and  N4_11 
ROOT
ATOM      1  C1  <0> d          -2.682   1.379   0.022  0.00  0.00     0.190 A 
ATOM      2  C2  <0> d          -1.308   1.935   0.019  0.00  0.00     0.190 A 
ATOM      3  N1  <0> d          -1.526   3.231   0.033  0.00  0.00    -0.097 NA
ATOM      4  O1  <0> d          -2.716   3.439   0.035  0.00  0.00    -0.105 OA
ATOM      5  N2  <0> d          -3.427   2.462   0.033  0.00  0.00    -0.097 NA
ENDROOT
BRANCH   1   6
ATOM      6  C4  <0> d          -3.108  -0.041   0.017  0.00  0.00     0.273 C 
ATOM      7  O3  <0> d          -2.275  -0.926   0.008  0.00  0.00    -0.266 OA
ATOM      8  N4  <0> d          -4.419  -0.351   0.021  0.00  0.00    -0.365 N 
ATOM      9  H3  <0> d          -5.085   0.354   0.028  0.00  0.00     0.159 HD
ATOM     10  H4  <0> d          -4.698  -1.280   0.017  0.00  0.00     0.159 HD
ENDBRANCH   1   6
BRANCH   2  11
ATOM     11  C3  <0> d          -0.014   1.211   0.009  0.00  0.00     0.273 C 
ATOM     12  O2  <0> d           0.002  -0.004   0.002  0.00  0.00    -0.266 OA
ATOM     13  N3  <0> d           1.143   1.901   0.001  0.00  0.00    -0.365 N 
ATOM     14  H1  <0> d           1.990   1.427  -0.009  0.00  0.00     0.159 HD
ATOM     15  H2  <0> d           1.130   2.870   0.007  0.00  0.00     0.159 HD
ENDBRANCH   2  11
TORSDOF 2
