REMARK  2 active torsions:
REMARK  status: ('A' for Active; 'I' for Inactive)
REMARK    1  A    between atoms: C1_1  and  C2_2 
REMARK    2  A    between atoms: C6_6  and  O1_8 
ROOT
ATOM      1  C2  <0> d           0.002  -0.004   0.002  0.00  0.00    -0.059 A 
ATOM      2  C3  <0> d           0.006  -0.688  -1.200  0.00  0.00    -0.075 A 
ATOM      3  C4  <0> d           0.024  -2.070  -1.211  0.00  0.00    -0.059 A 
ATOM      4  C5  <0> d           0.039  -2.772  -0.020  0.00  0.00     0.067 A 
ATOM      5  C6  <0> d           0.036  -2.087   1.187  0.00  0.00     0.087 A 
ATOM      6  C7  <0> d           0.023  -0.700   1.195  0.00  0.00    -0.044 A 
ATOM      7 Cl1  <0> d           0.061  -4.508  -0.035  0.00  0.00    -0.081 Cl
ATOM      8  H4  <0> d          -0.006  -0.141  -2.131  0.00  0.00     0.084 H 
ATOM      9  H5  <0> d           0.026  -2.602  -2.151  0.00  0.00     0.086 H 
ATOM     10  H6  <0> d           0.025  -0.165   2.133  0.00  0.00     0.088 H 
ENDROOT
BRANCH   1  11
ATOM     11  C1  <0> d          -0.018   1.503   0.010  0.00  0.00    -0.051 C 
ATOM     12  H1  <0> d           1.004   1.880   0.003  0.00  0.00     0.033 H 
ATOM     13  H2  <0> d          -0.545   1.864  -0.873  0.00  0.00     0.033 H 
ATOM     14  H3  <0> d          -0.529   1.854   0.907  0.00  0.00     0.033 H 
ENDBRANCH   1  11
BRANCH   5  15
ATOM     15  O1  <0> d           0.051  -2.775   2.360  0.00  0.00    -0.359 OA
ATOM     16  H7  <0> d           0.939  -2.962   2.695  0.00  0.00     0.217 HD
ENDBRANCH   5  15
TORSDOF 2
