REMARK  3 active torsions:
REMARK  status: ('A' for Active; 'I' for Inactive)
REMARK    1  A    between atoms: C1_1  and  C2_2 
REMARK    2  A    between atoms: C1_1  and  O2_8 
REMARK    3  A    between atoms: C3_3  and  N3_7 
ROOT
ATOM      1  C2  <0> d          -2.549   1.028   0.020  0.00  0.00     0.135 A 
ATOM      2  C3  <0> d          -1.225   1.645   0.017  0.00  0.00     0.180 A 
ATOM      3  N1  <0> d          -1.375   2.942   0.030  0.00  0.00    -0.085 NA
ATOM      4  O1  <0> d          -2.765   3.215   0.033  0.00  0.00    -0.104 OA
ATOM      5  N2  <0> d          -3.443   1.970   0.030  0.00  0.00    -0.103 NA
ENDROOT
BRANCH   1   6
ATOM      6  C1  <0> d          -2.831  -0.452   0.012  0.00  0.00     0.062 C 
ATOM      7  H1  <0> d          -3.785  -0.641  -0.503  0.00  0.00     0.084 H 
ATOM      8  H2  <0> d          -2.020  -0.977  -0.514  0.00  0.00     0.084 H 
BRANCH   6   9
ATOM      9  O2  <0> d          -2.913  -0.928   1.357  0.00  0.00    -0.395 OA
ATOM     10  H5  <0> d          -3.115  -1.992   1.552  0.00  0.00     0.209 HD
ENDBRANCH   6   9
ENDBRANCH   1   6
BRANCH   2  11
ATOM     11  N3  <0> d          -0.011   0.966   0.007  0.00  0.00    -0.380 N 
ATOM     12  H3  <0> d           0.934   1.529   0.006  0.00  0.00     0.157 HD
ATOM     13  H4  <0> d           0.004  -0.134   0.001  0.00  0.00     0.157 HD
ENDBRANCH   2  11
TORSDOF 3
