REMARK  1 active torsions:
REMARK  status: ('A' for Active; 'I' for Inactive)
REMARK    1  A    between atoms: C4_5  and  O2_8 
ROOT
ATOM      1  C1  <0> d          -0.013   1.086   0.008  0.00  0.00    -0.059 C 
ATOM      2  C2  <0> d          -0.733   1.582   1.266  0.00  0.00    -0.045 C 
ATOM      3  C3  <0> d          -0.820   3.110   1.225  0.00  0.00     0.023 C 
ATOM      4  O1  <0> d          -1.496   3.517   0.034  0.00  0.00    -0.361 OA
ATOM      5  C4  <0> d          -0.841   3.123  -1.173  0.00  0.00     0.128 C 
ATOM      6  H1  <0> d           0.164   3.543  -1.195  0.00  0.00     0.128 H 
ATOM      7  C5  <0> d          -0.757   1.595  -1.230  0.00  0.00    -0.019 C 
ATOM      8  H2  <0> d           0.002  -0.004   0.002  0.00  0.00     0.033 H 
ATOM      9  H3  <0> d           1.009   1.464   0.000  0.00  0.00     0.033 H 
ATOM     10  H4  <0> d          -1.738   1.161   1.299  0.00  0.00     0.036 H 
ATOM     11  H5  <0> d          -0.178   1.270   2.150  0.00  0.00     0.036 H 
ATOM     12  H6  <0> d           0.185   3.530   1.234  0.00  0.00     0.074 H 
ATOM     13  H7  <0> d          -1.371   3.466   2.096  0.00  0.00     0.074 H 
ATOM     14  H8  <0> d          -0.219   1.293  -2.128  0.00  0.00     0.040 H 
ATOM     15  H9  <0> d          -1.762   1.174  -1.249  0.00  0.00     0.040 H 
ENDROOT
BRANCH   5  16
ATOM     16  O2  <0> d          -1.583   3.601  -2.296  0.00  0.00    -0.371 OA
ATOM     17  H10 <0> d          -1.677   4.563  -2.325  0.00  0.00     0.212 HD
ENDBRANCH   5  16
TORSDOF 1
