REMARK  1 active torsions:
REMARK  status: ('A' for Active; 'I' for Inactive)
REMARK    1  A    between atoms: C3_3  and  N2_10 
ROOT
ATOM      1  C1  <0> d          -0.017   1.382   0.010  0.00  0.00    -0.078 A 
ATOM      2  C2  <0> d           0.002  -0.004   0.002  0.00  0.00    -0.055 A 
ATOM      3  C3  <0> d           1.206  -0.687  -0.014  0.00  0.00     0.057 A 
ATOM      4  C4  <0> d           2.409   0.032  -0.021  0.00  0.00     0.118 A 
ATOM      5  C5  <0> d           2.379   1.433  -0.013  0.00  0.00     0.107 A 
ATOM      6  C6  <0> d           1.161   2.099   0.002  0.00  0.00    -0.048 A 
ATOM      7  O1  <0> d           3.668   1.839  -0.023  0.00  0.00    -0.302 OA
ATOM      8  C7  <0> d           4.450   0.747  -0.037  0.00  0.00     0.104 A 
ATOM      9  N1  <0> d           3.721  -0.328  -0.036  0.00  0.00    -0.232 NA
ATOM     10  H1  <0> d          -0.962   1.905   0.017  0.00  0.00     0.083 H 
ATOM     11  H2  <0> d          -0.927  -0.554   0.008  0.00  0.00     0.087 H 
ATOM     12  H3  <0> d           1.136   3.179   0.008  0.00  0.00     0.087 H 
ATOM     13  H4  <0> d           5.530   0.761  -0.048  0.00  0.00     0.155 H 
ENDROOT
BRANCH   3  14
ATOM     14  N2  <0> d           1.222  -2.083  -0.021  0.00  0.00    -0.397 N 
ATOM     15  H5  <0> d           0.387  -2.577  -0.016  0.00  0.00     0.156 HD
ATOM     16  H6  <0> d           2.067  -2.558  -0.032  0.00  0.00     0.156 HD
ENDBRANCH   3  14
TORSDOF 1
