REMARK  0 active torsions:
REMARK  status: ('A' for Active; 'I' for Inactive)
ROOT
ATOM      1  C1  <0> d           1.196  -0.708  -0.014  0.00  0.00    -0.064 A 
ATOM      2  C2  <0> d           2.397  -0.020  -0.021  0.00  0.00    -0.053 A 
ATOM      3  C3  <0> d           2.360   1.371  -0.013  0.00  0.00     0.061 A 
ATOM      4  C4  <0> d           1.110   2.020   0.002  0.00  0.00     0.084 A 
ATOM      5  C5  <0> d           1.404   3.454   0.009  0.00  0.00    -0.038 A 
ATOM      6  C6  <0> d           2.741   3.583  -0.004  0.00  0.00    -0.020 A 
ATOM      7  N1  <0> d           3.328   2.349  -0.017  0.00  0.00    -0.364 N 
ATOM      8  H1  <0> d           4.284   2.187  -0.027  0.00  0.00     0.165 HD
ATOM      9  N2  <0> d          -0.016   1.311   0.009  0.00  0.00    -0.259 NA
ATOM     10  C7  <0> d           0.002  -0.004   0.002  0.00  0.00     0.003 A 
ATOM     11  H2  <0> d           1.190  -1.788  -0.020  0.00  0.00     0.085 H 
ATOM     12  H3  <0> d           3.338  -0.548  -0.034  0.00  0.00     0.087 H 
ATOM     13  H4  <0> d           0.682   4.257   0.020  0.00  0.00     0.089 H 
ATOM     14  H5  <0> d           3.273   4.522  -0.004  0.00  0.00     0.111 H 
ATOM     15  H6  <0> d          -0.932  -0.546   0.008  0.00  0.00     0.114 H 
ENDROOT
TORSDOF 0
