REMARK  1 active torsions:
REMARK  status: ('A' for Active; 'I' for Inactive)
REMARK    1  A    between atoms: C4_4  and  N1_7 
ROOT
ATOM      1  C1  <0> d           0.040  -2.771  -0.013  0.00  0.00    -0.083 A 
ATOM      2  C2  <0> d           1.228  -2.064  -0.020  0.00  0.00    -0.081 A 
ATOM      3  C3  <0> d           1.213  -0.683  -0.013  0.00  0.00    -0.055 A 
ATOM      4  C4  <0> d           0.002  -0.004   0.002  0.00  0.00     0.058 A 
ATOM      5  C5  <0> d          -1.190  -0.716   0.015  0.00  0.00    -0.055 A 
ATOM      6  C6  <0> d          -1.168  -2.097   0.002  0.00  0.00    -0.081 A 
ATOM      7  H1  <0> d           0.054  -3.850  -0.019  0.00  0.00     0.083 H 
ATOM      8  H2  <0> d           2.170  -2.593  -0.032  0.00  0.00     0.083 H 
ATOM      9  H3  <0> d           2.142  -0.132  -0.018  0.00  0.00     0.087 H 
ATOM     10  H4  <0> d          -2.133  -0.190   0.031  0.00  0.00     0.087 H 
ATOM     11  H5  <0> d          -2.095  -2.651   0.008  0.00  0.00     0.083 H 
ENDROOT
BRANCH   4  12
ATOM     12  N1  <0> d          -0.017   1.398   0.010  0.00  0.00    -0.245 N 
ATOM     13  N2  <0> d           1.104   2.237   0.004  0.00  0.00    -0.180 NA
ATOM     14  C9  <0> d           0.687   3.478   0.014  0.00  0.00     0.023 A 
ATOM     15  C8  <0> d          -0.713   3.469   0.028  0.00  0.00    -0.048 A 
ATOM     16  H8  <0> d           1.314   4.357   0.013  0.00  0.00     0.117 H 
ATOM     17  C7  <0> d          -1.121   2.179   0.019  0.00  0.00     0.006 A 
ATOM     18  H7  <0> d          -1.353   4.338   0.039  0.00  0.00     0.087 H 
ATOM     19  H6  <0> d          -2.145   1.834   0.021  0.00  0.00     0.114 H 
ENDBRANCH   4  12
TORSDOF 1
