REMARK  10 active torsions:
REMARK  status: ('A' for Active; 'I' for Inactive)
REMARK    1  A    between atoms: C1_1  and  C2_2 
REMARK    2  A    between atoms: C2_2  and  C3_3 
REMARK    3  A    between atoms: C3_3  and  C4_4 
REMARK    4  A    between atoms: C4_4  and  C5_5 
REMARK    5  A    between atoms: C5_5  and  C6_6 
REMARK    6  A    between atoms: C6_6  and  C7_7 
REMARK    7  A    between atoms: C7_7  and  C8_8 
REMARK    8  A    between atoms: C7_7  and  O1_10 
REMARK    9  A    between atoms: C8_8  and  C9_9 
REMARK   10  A    between atoms: O1_10  and  C10_11 
ROOT
ATOM      1  C5  <0> d           1.503  -2.548   2.473  0.00  0.00    -0.061 C 
ATOM      2  H10 <0> d           2.525  -2.170   2.465  0.00  0.00     0.033 H 
ATOM      3  H11 <0> d           0.993  -2.196   3.369  0.00  0.00     0.033 H 
ENDROOT
BRANCH   1   4
ATOM      4  C4  <0> d           0.763  -2.041   1.233  0.00  0.00    -0.065 C 
ATOM      5  H8  <0> d          -0.260  -2.418   1.241  0.00  0.00     0.033 H 
ATOM      6  H9  <0> d           1.273  -2.392   0.336  0.00  0.00     0.033 H 
BRANCH   4   7
ATOM      7  C3  <0> d           0.742  -0.511   1.242  0.00  0.00    -0.065 C 
ATOM      8  H6  <0> d           1.765  -0.134   1.234  0.00  0.00     0.033 H 
ATOM      9  H7  <0> d           0.232  -0.159   2.138  0.00  0.00     0.033 H 
BRANCH   7  10
ATOM     10  C2  <0> d           0.002  -0.004   0.002  0.00  0.00    -0.069 C 
ATOM     11  H4  <0> d          -1.020  -0.381   0.010  0.00  0.00     0.032 H 
ATOM     12  H5  <0> d           0.512  -0.356  -0.895  0.00  0.00     0.032 H 
BRANCH  10  13
ATOM     13  C1  <0> d          -0.019   1.526   0.010  0.00  0.00    -0.077 C 
ATOM     14  H1  <0> d           1.004   1.903   0.003  0.00  0.00     0.027 H 
ATOM     15  H2  <0> d          -0.546   1.887  -0.873  0.00  0.00     0.027 H 
ATOM     16  H3  <0> d          -0.529   1.877   0.907  0.00  0.00     0.027 H 
ENDBRANCH  10  13
ENDBRANCH   7  10
ENDBRANCH   4   7
ENDBRANCH   1   4
BRANCH   1  17
ATOM     17  C6  <0> d           1.524  -4.077   2.464  0.00  0.00    -0.022 C 
ATOM     18  H12 <0> d           0.501  -4.455   2.472  0.00  0.00     0.039 H 
ATOM     19  H13 <0> d           2.034  -4.429   1.567  0.00  0.00     0.039 H 
BRANCH  17  20
ATOM     20  C7  <0> d           2.252  -4.577   3.685  0.00  0.00     0.153 C 
BRANCH  20  21
ATOM     21  C8  <0> d           2.746  -3.725   4.545  0.00  0.00    -0.141 C 
BRANCH  21  22
ATOM     22  C9  <0> d           3.239  -2.874   5.406  0.00  0.00    -0.009 C 
ATOM     23  H14 <0> d           4.248  -2.509   5.286  0.00  0.00     0.051 H 
ATOM     24  H15 <0> d           2.638  -2.536   6.236  0.00  0.00     0.051 H 
ENDBRANCH  21  22
ENDBRANCH  20  21
BRANCH  20  25
ATOM     25  O1  <0> d           2.396  -5.906   3.891  0.00  0.00    -0.369 OA
BRANCH  25  26
ATOM     26  C10 <0> d           3.098  -6.308   5.069  0.00  0.00     0.006 C 
ATOM     27  H16 <0> d           4.110  -5.905   5.044  0.00  0.00     0.066 H 
ATOM     28  H17 <0> d           2.577  -5.930   5.949  0.00  0.00     0.066 H 
ATOM     29  H18 <0> d           3.142  -7.396   5.112  0.00  0.00     0.066 H 
ENDBRANCH  25  26
ENDBRANCH  20  25
ENDBRANCH  17  20
ENDBRANCH   1  17
TORSDOF 10
