REMARK  0 active torsions:
REMARK  status: ('A' for Active; 'I' for Inactive)
ROOT
ATOM      1  C1  <0> d          -0.017   1.391   0.010  0.00  0.00    -0.080 A 
ATOM      2  C2  <0> d           0.002  -0.004   0.002  0.00  0.00    -0.074 A 
ATOM      3  C3  <0> d           1.206  -0.653  -0.013  0.00  0.00    -0.029 A 
ATOM      4  C4  <0> d           2.364   0.114  -0.022  0.00  0.00     0.070 A 
ATOM      5  C5  <0> d           2.373   1.502  -0.014  0.00  0.00     0.085 A 
ATOM      6  C6  <0> d           1.129   2.141   0.003  0.00  0.00    -0.053 A 
ATOM      7  N1  <0> d           3.683   1.854  -0.025  0.00  0.00    -0.242 NA
ATOM      8  C7  <0> d           4.441   0.779  -0.041  0.00  0.00     0.067 A 
ATOM      9  N2  <0> d           3.680  -0.326  -0.044  0.00  0.00    -0.339 N 
ATOM     10  C8  <0> d           3.944  -1.766  -0.067  0.00  0.00     0.001 C 
ATOM     11  C9  <0> d           2.743  -2.471  -0.712  0.00  0.00    -0.046 C 
ATOM     12  C10 <0> d           1.418  -2.143  -0.015  0.00  0.00    -0.037 C 
ATOM     13  H1  <0> d          -0.970   1.898   0.017  0.00  0.00     0.083 H 
ATOM     14  H2  <0> d          -0.922  -0.564   0.008  0.00  0.00     0.084 H 
ATOM     15  H3  <0> d           1.072   3.219   0.010  0.00  0.00     0.087 H 
ATOM     16  H4  <0> d           5.520   0.785  -0.052  0.00  0.00     0.143 H 
ATOM     17  H5  <0> d           4.842  -1.965  -0.652  0.00  0.00     0.065 H 
ATOM     18  H6  <0> d           4.079  -2.130   0.951  0.00  0.00     0.065 H 
ATOM     19  H7  <0> d           2.676  -2.167  -1.756  0.00  0.00     0.035 H 
ATOM     20  H8  <0> d           2.905  -3.549  -0.671  0.00  0.00     0.035 H 
ATOM     21  H9  <0> d           1.448  -2.508   1.011  0.00  0.00     0.040 H 
ATOM     22  H10 <0> d           0.599  -2.626  -0.548  0.00  0.00     0.040 H 
ENDROOT
TORSDOF 0
