REMARK  5 active torsions:
REMARK  status: ('A' for Active; 'I' for Inactive)
REMARK    1  A    between atoms: C1_1  and  C2_2 
REMARK    2  A    between atoms: C2_2  and  C3_3 
REMARK    3  A    between atoms: C3_3  and  C4_5 
REMARK    4  A    between atoms: C3_3  and  C5_6 
REMARK    5  A    between atoms: C8_9  and  O1_12 
ROOT
ATOM      1  C3  <0> d           0.742  -0.511   1.242  0.00  0.00    -0.032 C 
ATOM      2  H1  <0> d           0.285  -0.087   2.136  0.00  0.00     0.046 H 
ENDROOT
BRANCH   1   3
ATOM      3  C2  <0> d           0.002  -0.004   0.002  0.00  0.00    -0.062 C 
ATOM      4  H5  <0> d          -1.020  -0.381   0.010  0.00  0.00     0.033 H 
ATOM      5  H6  <0> d           0.512  -0.356  -0.895  0.00  0.00     0.033 H 
BRANCH   3   6
ATOM      6  C1  <0> d          -0.019   1.526   0.010  0.00  0.00    -0.076 C 
ATOM      7  H2  <0> d           1.004   1.903   0.003  0.00  0.00     0.027 H 
ATOM      8  H3  <0> d          -0.546   1.887  -0.873  0.00  0.00     0.027 H 
ATOM      9  H4  <0> d          -0.529   1.877   0.907  0.00  0.00     0.027 H 
ENDBRANCH   3   6
ENDBRANCH   1   3
BRANCH   1  10
ATOM     10  C4  <0> d           2.210  -0.086   1.169  0.00  0.00    -0.069 C 
ATOM     11  H7  <0> d           2.667  -0.509   0.274  0.00  0.00     0.028 H 
ATOM     12  H8  <0> d           2.272   1.002   1.128  0.00  0.00     0.028 H 
ATOM     13  H9  <0> d           2.737  -0.447   2.052  0.00  0.00     0.028 H 
ENDBRANCH   1  10
BRANCH   1  14
ATOM     14  C5  <0> d           0.657  -2.014   1.298  0.00  0.00    -0.054 A 
ATOM     15  C10 <0> d           0.061  -2.632   2.382  0.00  0.00    -0.074 A 
ATOM     16  C9  <0> d          -0.024  -4.010   2.433  0.00  0.00    -0.051 A 
ATOM     17  H13 <0> d          -0.342  -2.036   3.188  0.00  0.00     0.084 H 
ATOM     18  C8  <0> d           0.500  -4.774   1.401  0.00  0.00     0.065 A 
ATOM     19  H12 <0> d          -0.493  -4.491   3.278  0.00  0.00     0.087 H 
ATOM     20  C7  <0> d           1.102  -4.153   0.317  0.00  0.00    -0.051 A 
ATOM     21  C6  <0> d           1.179  -2.774   0.268  0.00  0.00    -0.074 A 
ATOM     22  H11 <0> d           1.510  -4.746  -0.489  0.00  0.00     0.087 H 
ATOM     23  H10 <0> d           1.648  -2.290  -0.576  0.00  0.00     0.084 H 
BRANCH  18  24
ATOM     24  O1  <0> d           0.422  -6.130   1.451  0.00  0.00    -0.361 OA
ATOM     25  H14 <0> d           1.178  -6.552   1.881  0.00  0.00     0.217 HD
ENDBRANCH  18  24
ENDBRANCH   1  14
TORSDOF 5
