REMARK  4 active torsions:
REMARK  status: ('A' for Active; 'I' for Inactive)
REMARK    1  A    between atoms: C1_1  and  C2_2 
REMARK    2  A    between atoms: C2_2  and  O1_13 
REMARK    3  A    between atoms: C8_10  and  C9_11 
REMARK    4  A    between atoms: C8_10  and  C10_12 
ROOT
ATOM      1  C2  <0> d          -0.063  -0.072  -0.022  0.00  0.00     0.059 C 
ATOM      2  C3  <0> d          -1.481  -0.629  -0.061  0.00  0.00    -0.036 C 
ATOM      3  C4  <0> d          -1.632  -1.930   0.717  0.00  0.00    -0.058 C 
ATOM      4  C5  <0> d          -0.546  -2.112   1.776  0.00  0.00    -0.046 C 
ATOM      5  H1  <0> d          -0.728  -2.954   2.458  0.00  0.00     0.041 H 
ATOM      6  C6  <0> d           0.862  -2.099   1.143  0.00  0.00    -0.054 C 
ATOM      7  C7  <0> d           0.707  -0.559   1.207  0.00  0.00    -0.017 C 
ATOM      8  H2  <0> d           1.652  -0.023   1.374  0.00  0.00     0.045 H 
ATOM      9  C8  <0> d          -0.127  -0.806   2.465  0.00  0.00    -0.038 C 
ATOM     10  H6  <0> d          -2.194   0.117   0.299  0.00  0.00     0.037 H 
ATOM     11  H7  <0> d          -1.749  -0.822  -1.116  0.00  0.00     0.037 H 
ATOM     12  H8  <0> d          -2.620  -1.960   1.196  0.00  0.00     0.033 H 
ATOM     13  H9  <0> d          -1.592  -2.777   0.014  0.00  0.00     0.033 H 
ATOM     14  H10 <0> d           1.652  -2.502   1.766  0.00  0.00     0.034 H 
ATOM     15  H11 <0> d           0.885  -2.492   0.125  0.00  0.00     0.034 H 
ENDROOT
BRANCH   9  16
ATOM     16  C9  <0> d          -1.260   0.173   2.756  0.00  0.00    -0.069 C 
ATOM     17  H12 <0> d          -2.051  -0.339   3.305  0.00  0.00     0.028 H 
ATOM     18  H13 <0> d          -0.881   1.002   3.354  0.00  0.00     0.028 H 
ATOM     19  H14 <0> d          -1.659   0.556   1.816  0.00  0.00     0.028 H 
ENDBRANCH   9  16
BRANCH   9  20
ATOM     20  C10 <0> d           0.730  -1.039   3.725  0.00  0.00    -0.069 C 
ATOM     21  H15 <0> d           1.438  -1.847   3.539  0.00  0.00     0.028 H 
ATOM     22  H16 <0> d           1.276  -0.127   3.968  0.00  0.00     0.028 H 
ATOM     23  H17 <0> d           0.084  -1.309   4.560  0.00  0.00     0.028 H 
ENDBRANCH   9  20
BRANCH   1  24
ATOM     24  C1  <0> d          -0.095   1.462  -0.055  0.00  0.00    -0.048 C 
ATOM     25  H3  <0> d           0.924   1.845  -0.098  0.00  0.00     0.031 H 
ATOM     26  H4  <0> d          -0.646   1.794  -0.935  0.00  0.00     0.031 H 
ATOM     27  H5  <0> d          -0.586   1.835   0.843  0.00  0.00     0.031 H 
ENDBRANCH   1  24
BRANCH   1  28
ATOM     28  O1  <0> d           0.635  -0.516  -1.204  0.00  0.00    -0.390 OA
ATOM     29  H18 <0> d           0.220  -0.239  -2.032  0.00  0.00     0.210 HD
ENDBRANCH   1  28
TORSDOF 4
