REMARK  5 active torsions:
REMARK  status: ('A' for Active; 'I' for Inactive)
REMARK    1  A    between atoms: C1_1  and  C2_2 
REMARK    2  A    between atoms: C6_6  and  C7_8 
REMARK    3  A    between atoms: C7_8  and  C8_9 
REMARK    4  A    between atoms: C8_9  and  C9_11 
REMARK    5  A    between atoms: C8_9  and  O1_12 
ROOT
ATOM      1  C2  <0> d          -0.718   1.572   1.248  0.00  0.00     0.031 A 
ATOM      2  C3  <0> d          -2.083   1.787   1.217  0.00  0.00    -0.059 A 
ATOM      3  C4  <0> d          -2.723   2.229   2.365  0.00  0.00    -0.079 A 
ATOM      4  C5  <0> d          -1.961   2.450   3.502  0.00  0.00    -0.059 A 
ATOM      5  C6  <0> d          -0.600   2.218   3.456  0.00  0.00     0.037 A 
ATOM      6  N1  <0> d          -0.025   1.792   2.348  0.00  0.00    -0.258 NA
ATOM      7  H5  <0> d          -2.645   1.609   0.312  0.00  0.00     0.086 H 
ATOM      8  H6  <0> d          -3.789   2.402   2.372  0.00  0.00     0.083 H 
ATOM      9  H7  <0> d          -2.426   2.799   4.412  0.00  0.00     0.086 H 
ENDROOT
BRANCH   5  10
ATOM     10  C7  <0> d           0.238   2.454   4.686  0.00  0.00    -0.001 C 
ATOM     11  H8  <0> d           0.936   3.271   4.499  0.00  0.00     0.046 H 
ATOM     12  H9  <0> d          -0.410   2.715   5.522  0.00  0.00     0.046 H 
BRANCH  10  13
ATOM     13  C8  <0> d           1.020   1.183   5.023  0.00  0.00     0.037 C 
ATOM     14  H1  <0> d           1.600   0.872   4.155  0.00  0.00     0.082 H 
BRANCH  13  15
ATOM     15  C9  <0> d           1.963   1.460   6.195  0.00  0.00    -0.052 C 
ATOM     16  H10 <0> d           2.520   0.554   6.436  0.00  0.00     0.030 H 
ATOM     17  H11 <0> d           2.659   2.252   5.922  0.00  0.00     0.030 H 
ATOM     18  H12 <0> d           1.382   1.771   7.064  0.00  0.00     0.030 H 
ENDBRANCH  13  15
BRANCH  13  19
ATOM     19  O1  <0> d           0.106   0.144   5.382  0.00  0.00    -0.396 OA
ATOM     20  H13 <0> d           0.533  -0.694   5.609  0.00  0.00     0.210 HD
ENDBRANCH  13  19
ENDBRANCH  10  13
ENDBRANCH   5  10
BRANCH   1  21
ATOM     21  C1  <0> d          -0.013   1.086   0.008  0.00  0.00    -0.035 C 
ATOM     22  H2  <0> d           0.002  -0.004   0.002  0.00  0.00     0.035 H 
ATOM     23  H3  <0> d           1.010   1.463   0.000  0.00  0.00     0.035 H 
ATOM     24  H4  <0> d          -0.540   1.447  -0.875  0.00  0.00     0.035 H 
ENDBRANCH   1  21
TORSDOF 5
