REMARK  1 active torsions:
REMARK  status: ('A' for Active; 'I' for Inactive)
REMARK    1  A    between atoms: C4_4  and  C7_7 
ROOT
ATOM      1  C1  <0> d          -0.017   1.378   0.010  0.00  0.00    -0.083 A 
ATOM      2  C2  <0> d           1.171   2.086   0.002  0.00  0.00    -0.082 A 
ATOM      3  C3  <0> d           2.377   1.411  -0.014  0.00  0.00    -0.075 A 
ATOM      4  C4  <0> d           2.396   0.029  -0.021  0.00  0.00    -0.035 A 
ATOM      5  C5  <0> d           1.208  -0.679  -0.014  0.00  0.00    -0.075 A 
ATOM      6  C6  <0> d           0.002  -0.004   0.002  0.00  0.00    -0.082 A 
ATOM      7  H2  <0> d          -0.959   1.905   0.017  0.00  0.00     0.083 H 
ATOM      8  H3  <0> d           1.156   3.165   0.008  0.00  0.00     0.083 H 
ATOM      9  H4  <0> d           3.305   1.963  -0.020  0.00  0.00     0.084 H 
ATOM     10  H5  <0> d           1.223  -1.759  -0.020  0.00  0.00     0.084 H 
ATOM     11  H6  <0> d          -0.926  -0.557   0.008  0.00  0.00     0.083 H 
ENDROOT
BRANCH   4  12
ATOM     12  C7  <0> d           3.711  -0.707  -0.038  0.00  0.00     0.045 A 
ATOM     13  H1  <0> d           3.437  -1.608  -0.606  0.00  0.00     0.081 H 
ATOM     14  N1  <0> d           4.823   0.117  -0.516  0.00  0.00    -0.352 N 
ATOM     15  C9  <0> d           5.415   0.045   0.691  0.00  0.00     0.220 A 
ATOM     16  H9  <0> d           4.830   0.483  -1.553  0.00  0.00     0.163 HD
ATOM     17  C8  <0> d           4.359  -0.807   1.343  0.00  0.00     0.032 A 
ATOM     18  O1  <0> d           6.452   0.512   1.112  0.00  0.00    -0.274 OA
ATOM     19  H7  <0> d           3.680  -0.382   2.098  0.00  0.00     0.050 H 
ATOM     20  H8  <0> d           4.556  -1.863   1.581  0.00  0.00     0.050 H 
ENDBRANCH   4  12
TORSDOF 1
