REMARK  5 active torsions:
REMARK  status: ('A' for Active; 'I' for Inactive)
REMARK    1  A    between atoms: C1_1  and  C2_2 
REMARK    2  A    between atoms: C2_2  and  C3_3 
REMARK    3  A    between atoms: C2_2  and  C4_4 
REMARK    4  A    between atoms: C4_4  and  N1_5 
REMARK       I    between atoms: N1_5  and  C5_6 
REMARK    5  A    between atoms: C5_6  and  C6_8 
ROOT
ATOM      1  C4  <0> d           2.422   1.183  -0.015  0.00  0.00    -0.002 C 
ATOM      2  H8  <0> d           2.497   0.553   0.871  0.00  0.00     0.064 H 
ATOM      3  H9  <0> d           2.480   0.562  -0.909  0.00  0.00     0.064 H 
ENDROOT
BRANCH   1   4
ATOM      4  C2  <0> d           3.571   2.193  -0.020  0.00  0.00    -0.046 C 
ATOM      5  H4  <0> d           3.447   2.880  -0.857  0.00  0.00     0.041 H 
BRANCH   4   6
ATOM      6  C1  <0> d           3.564   2.981   1.292  0.00  0.00    -0.072 C 
ATOM      7  H1  <0> d           3.689   2.294   2.128  0.00  0.00     0.028 H 
ATOM      8  H2  <0> d           4.383   3.700   1.288  0.00  0.00     0.028 H 
ATOM      9  H3  <0> d           2.617   3.509   1.393  0.00  0.00     0.028 H 
ENDBRANCH   4   6
BRANCH   4  10
ATOM     10  C3  <0> d           4.902   1.451  -0.163  0.00  0.00    -0.072 C 
ATOM     11  H5  <0> d           4.907   0.890  -1.097  0.00  0.00     0.028 H 
ATOM     12  H6  <0> d           5.720   2.171  -0.167  0.00  0.00     0.028 H 
ATOM     13  H7  <0> d           5.026   0.764   0.674  0.00  0.00     0.028 H 
ENDBRANCH   4  10
ENDBRANCH   1   4
BRANCH   1  14
ATOM     14  N1  <0> d           1.143   1.898   0.001  0.00  0.00    -0.361 N 
ATOM     15  C5  <0> d          -0.014   1.209   0.009  0.00  0.00     0.213 C 
ATOM     16  O1  <0> d           0.002  -0.004   0.002  0.00  0.00    -0.274 OA
ATOM     17  H10 <0> d           1.130   2.868   0.007  0.00  0.00     0.162 HD
BRANCH  15  18
ATOM     18  C6  <0> d          -1.330   1.944   0.019  0.00  0.00    -0.003 C 
ATOM     19  H11 <0> d          -1.642   2.116   1.049  0.00  0.00     0.040 H 
ATOM     20  H12 <0> d          -1.215   2.901  -0.490  0.00  0.00     0.040 H 
ATOM     21  H13 <0> d          -2.084   1.348  -0.495  0.00  0.00     0.040 H 
ENDBRANCH  15  18
ENDBRANCH   1  14
TORSDOF 5
