REMARK  4 active torsions:
REMARK  status: ('A' for Active; 'I' for Inactive)
REMARK    1  A    between atoms: C1_1  and  C2_2 
REMARK    2  A    between atoms: C3_3  and  N2_10 
REMARK    3  A    between atoms: C6_7  and  O1_8 
REMARK    4  A    between atoms: O1_8  and  C7_9 
ROOT
ATOM      1  C2  <0> d           0.002  -0.004   0.002  0.00  0.00     0.001 A 
ATOM      2  C3  <0> d           0.006  -0.711  -1.197  0.00  0.00     0.052 A 
ATOM      3  C4  <0> d           0.026  -2.100  -1.162  0.00  0.00     0.028 A 
ATOM      4  N1  <0> d           0.040  -2.745  -0.013  0.00  0.00    -0.268 NA
ATOM      5  C5  <0> d           0.037  -2.110   1.142  0.00  0.00     0.035 A 
ATOM      6  C6  <0> d           0.023  -0.723   1.191  0.00  0.00     0.093 A 
ATOM      7  H4  <0> d           0.029  -2.657  -2.087  0.00  0.00     0.118 H 
ATOM      8  H5  <0> d           0.049  -2.676   2.062  0.00  0.00     0.119 H 
ENDROOT
BRANCH   6   9
ATOM      9  O1  <0> d           0.025  -0.076   2.386  0.00  0.00    -0.354 OA
BRANCH   9  10
ATOM     10  C7  <0> d           0.047  -0.887   3.563  0.00  0.00     0.010 C 
ATOM     11  H6  <0> d          -0.834  -1.529   3.578  0.00  0.00     0.066 H 
ATOM     12  H7  <0> d           0.946  -1.504   3.562  0.00  0.00     0.066 H 
ATOM     13  H8  <0> d           0.047  -0.247   4.445  0.00  0.00     0.066 H 
ENDBRANCH   9  10
ENDBRANCH   6   9
BRANCH   1  14
ATOM     14  C1  <0> d          -0.018   1.503   0.010  0.00  0.00    -0.046 C 
ATOM     15  H1  <0> d           1.004   1.880   0.003  0.00  0.00     0.033 H 
ATOM     16  H2  <0> d          -0.545   1.864  -0.873  0.00  0.00     0.033 H 
ATOM     17  H3  <0> d          -0.529   1.854   0.907  0.00  0.00     0.033 H 
ENDBRANCH   1  14
BRANCH   2  18
ATOM     18  N2  <0> d          -0.009  -0.034  -2.419  0.00  0.00    -0.397 N 
ATOM     19  H9  <0> d          -0.023   0.936  -2.436  0.00  0.00     0.156 HD
ATOM     20  H10 <0> d          -0.006  -0.533  -3.250  0.00  0.00     0.156 HD
ENDBRANCH   2  18
TORSDOF 4
