REMARK  4 active torsions:
REMARK  status: ('A' for Active; 'I' for Inactive)
REMARK    1  A    between atoms: C1_1  and  C2_2 
REMARK    2  A    between atoms: C2_2  and  O1_3 
REMARK    3  A    between atoms: O1_3  and  C3_4 
REMARK    4  A    between atoms: C5_6  and  C6_9 
REMARK       I    between atoms: C6_9  and  N2_11 
ROOT
ATOM      1  C3  <0> d           1.092   1.966   0.002  0.00  0.00     0.194 A 
ATOM      2  C4  <0> d          -0.013   1.076   0.008  0.00  0.00     0.010 A 
ATOM      3  C5  <0> d          -1.099   1.904   0.017  0.00  0.00     0.172 A 
ATOM      4  O2  <0> d          -0.615   3.161   0.025  0.00  0.00    -0.205 OA
ATOM      5  N1  <0> d           0.594   3.173   0.013  0.00  0.00    -0.102 NA
ATOM      6  H6  <0> d           0.002  -0.004   0.002  0.00  0.00     0.095 H 
ENDROOT
BRANCH   1   7
ATOM      7  O1  <0> d           2.407   1.630  -0.012  0.00  0.00    -0.333 OA
BRANCH   7   8
ATOM      8  C2  <0> d           3.351   2.703  -0.015  0.00  0.00     0.024 C 
ATOM      9  H4  <0> d           3.212   3.316   0.887  0.00  0.00     0.074 H 
ATOM     10  H5  <0> d           3.195   3.325  -0.909  0.00  0.00     0.074 H 
BRANCH   8  11
ATOM     11  C1  <0> d           4.770   2.133  -0.032  0.00  0.00    -0.056 C 
ATOM     12  H1  <0> d           5.497   2.959  -0.035  0.00  0.00     0.030 H 
ATOM     13  H2  <0> d           4.909   1.520  -0.935  0.00  0.00     0.030 H 
ATOM     14  H3  <0> d           4.926   1.510   0.861  0.00  0.00     0.030 H 
ENDBRANCH   8  11
ENDBRANCH   7   8
ENDBRANCH   1   7
BRANCH   3  15
ATOM     15  C6  <0> d          -2.519   1.502   0.020  0.00  0.00     0.275 C 
ATOM     16  O3  <0> d          -2.817   0.324   0.015  0.00  0.00    -0.266 OA
ATOM     17  N2  <0> d          -3.485   2.442   0.029  0.00  0.00    -0.364 N 
ATOM     18  H7  <0> d          -4.544   2.142   0.032  0.00  0.00     0.159 HD
ATOM     19  H8  <0> d          -3.216   3.508   0.034  0.00  0.00     0.159 HD
ENDBRANCH   3  15
TORSDOF 4
