REMARK  1 active torsions:
REMARK  status: ('A' for Active; 'I' for Inactive)
REMARK    1  A    between atoms: C4_6  and  C5_8 
ROOT
ATOM      1  C1  <0> d          -0.808   1.622  -1.204  0.00  0.00    -0.025 C 
ATOM      2  C2  <0> d          -0.013   1.086   0.008  0.00  0.00     0.030 C 
ATOM      3  O1  <0> d          -0.741   1.579   1.171  0.00  0.00    -0.321 OA
ATOM      4  C3  <0> d          -2.048   1.684   0.877  0.00  0.00     0.271 C 
ATOM      5  O2  <0> d          -2.942   1.713   1.690  0.00  0.00    -0.265 OA
ATOM      6  C4  <0> d          -2.233   1.759  -0.623  0.00  0.00     0.126 C 
ATOM      7  H1  <0> d          -2.865   0.941  -0.969  0.00  0.00     0.069 H 
ATOM      8  H2  <0> d          -0.424   2.590  -1.523  0.00  0.00     0.037 H 
ATOM      9  H3  <0> d          -0.789   0.908  -2.028  0.00  0.00     0.037 H 
ATOM     10  H4  <0> d           0.002  -0.004   0.002  0.00  0.00     0.075 H 
ATOM     11  H5  <0> d           1.004   1.480   0.000  0.00  0.00     0.075 H 
ENDROOT
BRANCH   6  12
ATOM     12  C5  <0> d          -2.841   3.107  -1.017  0.00  0.00     0.400 C 
ATOM     13  F1  <0> d          -2.907   3.198  -2.412  0.00  0.00    -0.170 F 
ATOM     14  F2  <0> d          -4.129   3.212  -0.482  0.00  0.00    -0.170 F 
ATOM     15  F3  <0> d          -2.043   4.142  -0.519  0.00  0.00    -0.170 F 
ENDBRANCH   6  12
TORSDOF 1
