REMARK  2 active torsions:
REMARK  status: ('A' for Active; 'I' for Inactive)
REMARK    1  A    between atoms: C1_1  and  S1_2 
REMARK    2  A    between atoms: S1_2  and  N1_3 
ROOT
ATOM      1  N1  <0> d           0.002  -0.004   0.002  0.00  0.00    -0.259 NA
ATOM      2  C2  <0> d           0.769  -0.514  -1.142  0.00  0.00    -0.011 C 
ATOM      3  C3  <0> d           0.891  -2.036  -1.038  0.00  0.00    -0.053 C 
ATOM      4  C4  <0> d          -0.509  -2.655  -1.022  0.00  0.00    -0.063 C 
ATOM      5  C5  <0> d          -1.303  -2.072   0.150  0.00  0.00    -0.053 C 
ATOM      6  C6  <0> d          -1.361  -0.549   0.012  0.00  0.00    -0.011 C 
ATOM      7  H4  <0> d           0.257  -0.253  -2.068  0.00  0.00     0.057 H 
ATOM      8  H5  <0> d           1.764  -0.068  -1.139  0.00  0.00     0.057 H 
ATOM      9  H6  <0> d           1.416  -2.297  -0.119  0.00  0.00     0.034 H 
ATOM     10  H7  <0> d           1.448  -2.416  -1.895  0.00  0.00     0.034 H 
ATOM     11  H8  <0> d          -0.427  -3.736  -0.904  0.00  0.00     0.033 H 
ATOM     12  H9  <0> d          -1.020  -2.428  -1.957  0.00  0.00     0.033 H 
ATOM     13  H10 <0> d          -0.813  -2.334   1.088  0.00  0.00     0.034 H 
ATOM     14  H11 <0> d          -2.314  -2.477   0.142  0.00  0.00     0.034 H 
ATOM     15  H12 <0> d          -1.914  -0.129   0.853  0.00  0.00     0.057 H 
ATOM     16  H13 <0> d          -1.864  -0.288  -0.919  0.00  0.00     0.057 H 
ENDROOT
BRANCH   1  17
ATOM     17  S1  <0> d          -0.022   1.761   0.012  0.00  0.00    -0.087 SA
BRANCH  17  18
ATOM     18  C1  <0> d           1.732   2.224  -0.003  0.00  0.00    -0.021 C 
ATOM     19  H1  <0> d           1.821   3.310   0.002  0.00  0.00     0.043 H 
ATOM     20  H2  <0> d           2.223   1.815   0.881  0.00  0.00     0.043 H 
ATOM     21  H3  <0> d           2.206   1.824  -0.899  0.00  0.00     0.043 H 
ENDBRANCH  17  18
ENDBRANCH   1  17
TORSDOF 2
