REMARK  1 active torsions:
REMARK  status: ('A' for Active; 'I' for Inactive)
REMARK    1  A    between atoms: C1_1  and  C2_2 
ROOT
ATOM      1  C2  <0> d           2.365   1.281  -0.013  0.00  0.00     0.040 A 
ATOM      2  C3  <0> d           1.185   2.008   0.002  0.00  0.00    -0.009 A 
ATOM      3  C4  <0> d          -0.016   1.320   0.009  0.00  0.00     0.044 A 
ATOM      4  N1  <0> d           0.002  -0.004   0.002  0.00  0.00    -0.246 NA
ATOM      5  C5  <0> d           1.143  -0.663  -0.013  0.00  0.00     0.087 A 
ATOM      6  N2  <0> d           2.305  -0.041  -0.020  0.00  0.00    -0.246 NA
ATOM      7  C6  <0> d          -1.165   2.302   0.019  0.00  0.00    -0.024 C 
ATOM      8  C7  <0> d          -0.543   3.646   0.463  0.00  0.00    -0.056 C 
ATOM      9  C8  <0> d           0.926   3.496   0.012  0.00  0.00    -0.037 C 
ATOM     10  H4  <0> d           1.125  -1.743  -0.018  0.00  0.00     0.146 H 
ATOM     11  H5  <0> d          -1.594   2.393  -0.979  0.00  0.00     0.042 H 
ATOM     12  H6  <0> d          -1.927   1.985   0.731  0.00  0.00     0.042 H 
ATOM     13  H7  <0> d          -0.606   3.767   1.545  0.00  0.00     0.034 H 
ATOM     14  H8  <0> d          -1.022   4.482  -0.046  0.00  0.00     0.034 H 
ATOM     15  H9  <0> d           1.591   3.991   0.719  0.00  0.00     0.040 H 
ATOM     16  H10 <0> d           1.060   3.910  -0.987  0.00  0.00     0.040 H 
ENDROOT
BRANCH   1  17
ATOM     17  C1  <0> d           3.697   1.986  -0.022  0.00  0.00    -0.035 C 
ATOM     18  H1  <0> d           4.008   2.161  -1.052  0.00  0.00     0.035 H 
ATOM     19  H2  <0> d           3.607   2.939   0.498  0.00  0.00     0.035 H 
ATOM     20  H3  <0> d           4.439   1.366   0.481  0.00  0.00     0.035 H 
ENDBRANCH   1  17
TORSDOF 1
