REMARK  4 active torsions:
REMARK  status: ('A' for Active; 'I' for Inactive)
REMARK    1  A    between atoms: C1_1  and  C2_2 
REMARK    2  A    between atoms: C2_2  and  C3_3 
REMARK    3  A    between atoms: C2_2  and  C4_4 
REMARK    4  A    between atoms: C4_4  and  C5_5 
ROOT
ATOM      1  C5  <0> d          -0.064   0.971   2.503  0.00  0.00     0.015 C 
ATOM      2  C6  <0> d          -0.753   1.446   3.714  0.00  0.00     0.059 C 
ATOM      3  N1  <0> d          -1.284   1.812   4.649  0.00  0.00    -0.197 NA
ATOM      4  H10 <0> d          -0.126  -0.116   2.452  0.00  0.00     0.054 H 
ATOM      5  H11 <0> d           0.983   1.274   2.539  0.00  0.00     0.054 H 
ENDROOT
BRANCH   1   6
ATOM      6  C4  <0> d          -0.729   1.579   1.267  0.00  0.00    -0.051 C 
ATOM      7  H8  <0> d          -0.666   2.666   1.318  0.00  0.00     0.034 H 
ATOM      8  H9  <0> d          -1.776   1.277   1.232  0.00  0.00     0.034 H 
BRANCH   6   9
ATOM      9  C2  <0> d          -0.013   1.086   0.008  0.00  0.00    -0.060 C 
ATOM     10  H4  <0> d           0.002  -0.004   0.002  0.00  0.00     0.038 H 
BRANCH   9  11
ATOM     11  C1  <0> d           1.423   1.615  -0.003  0.00  0.00    -0.073 C 
ATOM     12  H1  <0> d           1.408   2.705   0.003  0.00  0.00     0.028 H 
ATOM     13  H2  <0> d           1.950   1.254   0.880  0.00  0.00     0.028 H 
ATOM     14  H3  <0> d           1.933   1.264  -0.900  0.00  0.00     0.028 H 
ENDBRANCH   9  11
BRANCH   9  15
ATOM     15  C3  <0> d          -0.753   1.593  -1.232  0.00  0.00    -0.073 C 
ATOM     16  H5  <0> d          -0.242   1.241  -2.128  0.00  0.00     0.028 H 
ATOM     17  H6  <0> d          -1.775   1.215  -1.224  0.00  0.00     0.028 H 
ATOM     18  H7  <0> d          -0.767   2.683  -1.226  0.00  0.00     0.028 H 
ENDBRANCH   9  15
ENDBRANCH   6   9
ENDBRANCH   1   6
TORSDOF 4
