REMARK  2 active torsions:
REMARK  status: ('A' for Active; 'I' for Inactive)
REMARK    1  A    between atoms: C1_1  and  C2_2 
REMARK    2  A    between atoms: C4_4  and  C7_9 
ROOT
ATOM      1  C2  <0> d           2.398   0.006  -0.021  0.00  0.00    -0.055 A 
ATOM      2  C3  <0> d           2.346   1.393  -0.013  0.00  0.00    -0.044 A 
ATOM      3  C4  <0> d           1.107   2.025   0.002  0.00  0.00     0.112 A 
ATOM      4  N1  <0> d          -0.016   1.315   0.009  0.00  0.00    -0.329 N 
ATOM      5  C5  <0> d           0.002  -0.004   0.002  0.00  0.00     0.179 A 
ATOM      6  C6  <0> d           1.209  -0.700  -0.013  0.00  0.00    -0.025 A 
ATOM      7  O1  <0> d          -1.168  -0.691   0.009  0.00  0.00    -0.172 OA
ATOM      8  H4  <0> d           3.257   1.974  -0.018  0.00  0.00     0.088 H 
ATOM      9  H5  <0> d           1.215  -1.780  -0.019  0.00  0.00     0.091 H 
ATOM     10  H6  <0> d          -0.990   1.825   0.021  0.00  0.00     0.168 HD
ENDROOT
BRANCH   1  11
ATOM     11  C1  <0> d           3.721  -0.715  -0.038  0.00  0.00    -0.051 C 
ATOM     12  H1  <0> d           4.539   0.020  -0.042  0.00  0.00     0.033 H 
ATOM     13  H2  <0> d           3.786  -1.341  -0.940  0.00  0.00     0.033 H 
ATOM     14  H3  <0> d           3.804  -1.351   0.856  0.00  0.00     0.033 H 
ENDBRANCH   1  11
BRANCH   3  15
ATOM     15  C7  <0> d           1.039   3.504   0.011  0.00  0.00     0.226 C 
ATOM     16  O2  <0> d           2.061   4.159   0.004  0.00  0.00    -0.643 OA
ATOM     17  O3  <0> d          -0.158   4.123   0.025  0.00  0.00    -0.643 OA
ENDBRANCH   3  15
TORSDOF 2
