REMARK  2 active torsions:
REMARK  status: ('A' for Active; 'I' for Inactive)
REMARK    1  A    between atoms: C4_4  and  C7_7 
REMARK    2  A    between atoms: C4_4  and  O2_9 
ROOT
ATOM      1  C1  <0> d           2.873   4.425   0.826  0.00  0.00    -0.065 C 
ATOM      2  C2  <0> d           2.356   4.280  -0.607  0.00  0.00    -0.062 C 
ATOM      3  C3  <0> d           1.042   3.497  -0.599  0.00  0.00    -0.026 C 
ATOM      4  C4  <0> d           1.279   2.109   0.001  0.00  0.00     0.145 C 
ATOM      5  C5  <0> d           1.795   2.255   1.434  0.00  0.00    -0.026 C 
ATOM      6  C6  <0> d           3.109   3.038   1.426  0.00  0.00    -0.062 C 
ATOM      7  H1  <0> d           3.809   4.983   0.820  0.00  0.00     0.033 H 
ATOM      8  H2  <0> d           2.135   4.959   1.425  0.00  0.00     0.033 H 
ATOM      9  H3  <0> d           3.094   3.745  -1.206  0.00  0.00     0.033 H 
ATOM     10  H4  <0> d           2.188   5.268  -1.034  0.00  0.00     0.033 H 
ATOM     11  H5  <0> d           0.674   3.393  -1.620  0.00  0.00     0.038 H 
ATOM     12  H6  <0> d           0.305   4.031   0.001  0.00  0.00     0.038 H 
ATOM     13  H7  <0> d           1.058   2.789   2.034  0.00  0.00     0.038 H 
ATOM     14  H8  <0> d           1.963   1.266   1.861  0.00  0.00     0.038 H 
ATOM     15  H9  <0> d           3.846   2.503   0.826  0.00  0.00     0.033 H 
ATOM     16  H10 <0> d           3.477   3.141   2.447  0.00  0.00     0.033 H 
ENDROOT
BRANCH   4  17
ATOM     17  C7  <0> d          -0.016   1.338   0.009  0.00  0.00     0.209 C 
ATOM     18  O1  <0> d          -1.071   1.928   0.018  0.00  0.00    -0.646 OA
ATOM     19  O3  <0> d           0.002  -0.004   0.002  0.00  0.00    -0.646 OA
ENDBRANCH   4  17
BRANCH   4  20
ATOM     20  O2  <0> d           2.245   1.409  -0.785  0.00  0.00    -0.379 OA
ATOM     21  H11 <0> d           2.445   0.520  -0.462  0.00  0.00     0.211 HD
ENDBRANCH   4  20
TORSDOF 2
