REMARK  2 active torsions:
REMARK  status: ('A' for Active; 'I' for Inactive)
REMARK    1  A    between atoms: C1_1  and  C2_2 
REMARK    2  A    between atoms: C5_6  and  C7_11 
ROOT
ATOM      1  C2  <0> d          -2.267   1.514  -1.062  0.00  0.00     0.037 C 
ATOM      2  H1  <0> d          -2.602   2.305  -0.376  0.00  0.00     0.082 H 
ATOM      3  C3  <0> d          -0.736   1.585  -1.256  0.00  0.00    -0.039 C 
ATOM      4  C4  <0> d          -0.013   1.086   0.008  0.00  0.00    -0.039 C 
ATOM      5  C5  <0> d          -0.698   1.562   1.265  0.00  0.00     0.037 C 
ATOM      6  H2  <0> d          -1.265   2.488   1.090  0.00  0.00     0.082 H 
ATOM      7  O1  <0> d          -1.630   0.546   1.655  0.00  0.00    -0.362 OA
ATOM      8  C6  <0> d          -2.844   0.529   1.028  0.00  0.00     0.104 C 
ATOM      9  O2  <0> d          -2.684   0.348  -0.398  0.00  0.00    -0.362 OA
ATOM     10  H6  <0> d          -0.445   0.955  -2.109  0.00  0.00     0.036 H 
ATOM     11  H7  <0> d          -0.440   2.627  -1.451  0.00  0.00     0.036 H 
ATOM     12  H8  <0> d          -0.002  -0.014   0.014  0.00  0.00     0.036 H 
ATOM     13  H9  <0> d           1.021   1.463   0.012  0.00  0.00     0.036 H 
ATOM     14  H10 <0> d          -3.450  -0.299   1.425  0.00  0.00     0.117 H 
ATOM     15  H11 <0> d          -3.362   1.482   1.209  0.00  0.00     0.117 H 
ENDROOT
BRANCH   1  16
ATOM     16  C1  <0> d          -2.940   1.566  -2.435  0.00  0.00    -0.052 C 
ATOM     17  H3  <0> d          -2.621   2.475  -2.965  0.00  0.00     0.030 H 
ATOM     18  H4  <0> d          -4.033   1.580  -2.308  0.00  0.00     0.030 H 
ATOM     19  H5  <0> d          -2.651   0.680  -3.019  0.00  0.00     0.030 H 
ENDBRANCH   1  16
BRANCH   5  20
ATOM     20  C7  <0> d           0.336   1.770   2.374  0.00  0.00    -0.052 C 
ATOM     21  H12 <0> d          -0.171   2.117   3.287  0.00  0.00     0.030 H 
ATOM     22  H13 <0> d           1.071   2.523   2.054  0.00  0.00     0.030 H 
ATOM     23  H14 <0> d           0.850   0.819   2.579  0.00  0.00     0.030 H 
ENDBRANCH   5  20
TORSDOF 2
