REMARK  3 active torsions:
REMARK  status: ('A' for Active; 'I' for Inactive)
REMARK    1  A    between atoms: C1_1  and  C2_2 
REMARK    2  A    between atoms: N1_6  and  C7_11 
REMARK    3  A    between atoms: N2_9  and  C6_10 
ROOT
ATOM      1  C2  <0> d           0.019   1.788   2.356  0.00  0.00     0.017 A 
ATOM      2  C3  <0> d          -0.613   2.224   3.466  0.00  0.00     0.004 A 
ATOM      3  C4  <0> d          -2.012   2.435   3.425  0.00  0.00     0.252 A 
ATOM      4  O1  <0> d          -2.604   2.828   4.413  0.00  0.00    -0.268 OA
ATOM      5  N1  <0> d          -2.683   2.197   2.279  0.00  0.00    -0.271 N 
ATOM      6  C5  <0> d          -2.027   1.768   1.185  0.00  0.00     0.331 A 
ATOM      7  O2  <0> d          -2.645   1.562   0.158  0.00  0.00    -0.246 OA
ATOM      8  N2  <0> d          -0.698   1.558   1.213  0.00  0.00    -0.308 N 
ATOM      9  H4  <0> d          -0.058   2.408   4.375  0.00  0.00     0.095 H 
ENDROOT
BRANCH   1  10
ATOM     10  C1  <0> d           1.508   1.555   2.373  0.00  0.00    -0.037 C 
ATOM     11  H1  <0> d           2.022   2.472   2.085  0.00  0.00     0.035 H 
ATOM     12  H2  <0> d           1.819   1.265   3.377  0.00  0.00     0.035 H 
ATOM     13  H3  <0> d           1.760   0.761   1.671  0.00  0.00     0.035 H 
ENDBRANCH   1  10
BRANCH   8  14
ATOM     14  C6  <0> d          -0.013   1.086   0.008  0.00  0.00    -0.010 C 
ATOM     15  H5  <0> d           0.002  -0.004   0.002  0.00  0.00     0.057 H 
ATOM     16  H6  <0> d           1.010   1.463   0.000  0.00  0.00     0.057 H 
ATOM     17  H7  <0> d          -0.540   1.447  -0.875  0.00  0.00     0.057 H 
ENDBRANCH   8  14
BRANCH   5  18
ATOM     18  C7  <0> d          -4.131   2.412   2.224  0.00  0.00    -0.007 C 
ATOM     19  H8  <0> d          -4.484   2.761   3.195  0.00  0.00     0.057 H 
ATOM     20  H9  <0> d          -4.359   3.160   1.465  0.00  0.00     0.057 H 
ATOM     21  H10 <0> d          -4.628   1.476   1.972  0.00  0.00     0.057 H 
ENDBRANCH   5  18
TORSDOF 3
