REMARK  4 active torsions:
REMARK  status: ('A' for Active; 'I' for Inactive)
REMARK    1  A    between atoms: C1_1  and  C2_2 
REMARK    2  A    between atoms: C2_2  and  O2_4 
REMARK    3  A    between atoms: O2_4  and  C3_5 
REMARK    4  A    between atoms: C3_5  and  C4_6 
ROOT
ATOM      1  C4  <0> d          -0.013   1.086   0.008  0.00  0.00     0.059 C 
ATOM      2  H1  <0> d           0.002  -0.004   0.002  0.00  0.00     0.086 H 
ATOM      3  C5  <0> d           1.429   1.629  -0.003  0.00  0.00    -0.037 C 
ATOM      4  C6  <0> d           1.553   2.402   1.333  0.00  0.00    -0.043 C 
ATOM      5  C7  <0> d           0.413   1.778   2.177  0.00  0.00     0.020 C 
ATOM      6  O3  <0> d          -0.639   1.560   1.212  0.00  0.00    -0.384 OA
ATOM      7  H7  <0> d           2.146   0.809  -0.037  0.00  0.00     0.036 H 
ATOM      8  H8  <0> d           1.577   2.302  -0.848  0.00  0.00     0.036 H 
ATOM      9  H9  <0> d           2.523   2.224   1.797  0.00  0.00     0.036 H 
ATOM     10  H10 <0> d           1.386   3.469   1.182  0.00  0.00     0.036 H 
ATOM     11  H11 <0> d           0.734   0.833   2.615  0.00  0.00     0.074 H 
ATOM     12  H12 <0> d           0.087   2.470   2.953  0.00  0.00     0.074 H 
ENDROOT
BRANCH   1  13
ATOM     13  C3  <0> d          -0.773   1.602  -1.215  0.00  0.00     0.053 C 
ATOM     14  H5  <0> d          -0.871   2.686  -1.151  0.00  0.00     0.079 H 
ATOM     15  H6  <0> d          -0.225   1.341  -2.121  0.00  0.00     0.079 H 
BRANCH  13  16
ATOM     16  O2  <0> d          -2.092   0.998  -1.256  0.00  0.00    -0.319 OA
BRANCH  16  17
ATOM     17  C2  <0> d          -2.892   1.348  -2.276  0.00  0.00     0.254 C 
ATOM     18  O1  <0> d          -2.502   2.134  -3.107  0.00  0.00    -0.266 OA
BRANCH  17  19
ATOM     19  C1  <0> d          -4.276   0.762  -2.384  0.00  0.00     0.004 C 
ATOM     20  H2  <0> d          -4.447   0.079  -1.552  0.00  0.00     0.041 H 
ATOM     21  H3  <0> d          -5.014   1.563  -2.355  0.00  0.00     0.041 H 
ATOM     22  H4  <0> d          -4.367   0.218  -3.324  0.00  0.00     0.041 H 
ENDBRANCH  17  19
ENDBRANCH  16  17
ENDBRANCH  13  16
ENDBRANCH   1  13
TORSDOF 4
