REMARK  4 active torsions:
REMARK  status: ('A' for Active; 'I' for Inactive)
REMARK    1  A    between atoms: C1_1  and  C2_2 
REMARK    2  A    between atoms: C3_4  and  O4_14 
REMARK    3  A    between atoms: C5_7  and  O3_13 
REMARK    4  A    between atoms: C6_9  and  O2_12 
ROOT
ATOM      1  C2  <0> d           3.271   3.186   1.321  0.00  0.00     0.063 C 
ATOM      2  H1  <0> d           2.730   3.483   2.219  0.00  0.00     0.086 H 
ATOM      3  C3  <0> d           2.541   3.716   0.084  0.00  0.00     0.062 C 
ATOM      4  H2  <0> d           3.104   3.454  -0.812  0.00  0.00     0.086 H 
ATOM      5  C4  <0> d           1.146   3.087   0.016  0.00  0.00    -0.010 C 
ATOM      6  C5  <0> d           1.286   1.562  -0.002  0.00  0.00     0.085 C 
ATOM      7  H3  <0> d           1.823   1.255  -0.899  0.00  0.00     0.090 H 
ATOM      8  C6  <0> d           2.065   1.115   1.238  0.00  0.00     0.153 C 
ATOM      9  H4  <0> d           2.205   0.034   1.209  0.00  0.00     0.132 H 
ATOM     10  O1  <0> d           3.340   1.760   1.257  0.00  0.00    -0.351 OA
ATOM     11  H8  <0> d           0.641   3.417  -0.892  0.00  0.00     0.041 H 
ATOM     12  H9  <0> d           0.566   3.390   0.887  0.00  0.00     0.041 H 
ENDROOT
BRANCH   1  13
ATOM     13  C1  <0> d           4.688   3.763   1.364  0.00  0.00    -0.050 C 
ATOM     14  H5  <0> d           5.229   3.466   0.466  0.00  0.00     0.031 H 
ATOM     15  H6  <0> d           4.635   4.851   1.413  0.00  0.00     0.031 H 
ATOM     16  H7  <0> d           5.208   3.385   2.244  0.00  0.00     0.031 H 
ENDBRANCH   1  13
BRANCH   3  17
ATOM     17  O4  <0> d           2.420   5.137   0.174  0.00  0.00    -0.393 OA
ATOM     18  H12 <0> d           1.966   5.542  -0.578  0.00  0.00     0.210 HD
ENDBRANCH   3  17
BRANCH   8  19
ATOM     19  O2  <0> d           1.334   1.469   2.413  0.00  0.00    -0.369 OA
ATOM     20  H10 <0> d           1.770   1.216   3.239  0.00  0.00     0.212 HD
ENDBRANCH   8  19
BRANCH   6  21
ATOM     21  O3  <0> d          -0.011   0.963   0.007  0.00  0.00    -0.391 OA
ATOM     22  H11 <0> d           0.002  -0.004   0.002  0.00  0.00     0.210 HD
ENDBRANCH   6  21
TORSDOF 4
