REMARK  4 active torsions:
REMARK  status: ('A' for Active; 'I' for Inactive)
REMARK    1  A    between atoms: C1_1  and  C2_2 
REMARK    2  A    between atoms: C3_3  and  C4_4 
REMARK    3  A    between atoms: C7_7  and  O1_10 
REMARK    4  A    between atoms: O1_10  and  C10_11 
ROOT
ATOM      1  C4  <0> d          -1.117  -2.160   0.001  0.00  0.00    -0.036 A 
ATOM      2  C5  <0> d           0.100  -2.843  -0.008  0.00  0.00    -0.070 A 
ATOM      3  C6  <0> d           0.115  -4.222  -0.016  0.00  0.00    -0.050 A 
ATOM      4  C7  <0> d          -1.079  -4.931  -0.014  0.00  0.00     0.068 A 
ATOM      5  C8  <0> d          -2.292  -4.255  -0.005  0.00  0.00    -0.050 A 
ATOM      6  C9  <0> d          -2.315  -2.876   0.009  0.00  0.00    -0.070 A 
ATOM      7  H6  <0> d           1.029  -2.293  -0.010  0.00  0.00     0.084 H 
ATOM      8  H7  <0> d           1.056  -4.751  -0.024  0.00  0.00     0.087 H 
ATOM      9  H8  <0> d          -3.219  -4.809  -0.004  0.00  0.00     0.087 H 
ATOM     10  H9  <0> d          -3.259  -2.351   0.021  0.00  0.00     0.084 H 
ENDROOT
BRANCH   1  11
ATOM     11  C3  <0> d          -1.137  -0.683   0.009  0.00  0.00    -0.077 C 
ATOM     12  C2  <0> d           0.002  -0.004   0.002  0.00  0.00    -0.106 C 
ATOM     13  H4  <0> d           0.945  -0.531  -0.010  0.00  0.00     0.076 H 
ATOM     14  H5  <0> d          -2.080  -0.155   0.021  0.00  0.00     0.084 H 
BRANCH  12  15
ATOM     15  C1  <0> d          -0.018   1.503   0.010  0.00  0.00    -0.060 C 
ATOM     16  H1  <0> d           1.004   1.880   0.003  0.00  0.00     0.032 H 
ATOM     17  H2  <0> d          -0.545   1.864  -0.873  0.00  0.00     0.032 H 
ATOM     18  H3  <0> d          -0.529   1.854   0.907  0.00  0.00     0.032 H 
ENDBRANCH  12  15
ENDBRANCH   1  11
BRANCH   4  19
ATOM     19  O1  <0> d          -1.061  -6.289  -0.022  0.00  0.00    -0.356 OA
BRANCH  19  20
ATOM     20  C10 <0> d          -2.325  -6.955  -0.019  0.00  0.00     0.010 C 
ATOM     21  H10 <0> d          -2.890  -6.665  -0.905  0.00  0.00     0.066 H 
ATOM     22  H11 <0> d          -2.168  -8.034  -0.026  0.00  0.00     0.066 H 
ATOM     23  H12 <0> d          -2.882  -6.675   0.875  0.00  0.00     0.066 H 
ENDBRANCH  19  20
ENDBRANCH   4  19
TORSDOF 4
