REMARK  4 active torsions:
REMARK  status: ('A' for Active; 'I' for Inactive)
REMARK    1  A    between atoms: C1_1  and  C2_2 
REMARK    2  A    between atoms: C2_2  and  O1_3 
REMARK    3  A    between atoms: O1_3  and  C3_4 
REMARK    4  A    between atoms: C6_7  and  N1_11 
ROOT
ATOM      1  C3  <0> d          -3.649   3.004   0.037  0.00  0.00     0.107 A 
ATOM      2  C4  <0> d          -2.457   3.712   0.035  0.00  0.00    -0.046 A 
ATOM      3  C5  <0> d          -1.251   3.037   0.030  0.00  0.00    -0.055 A 
ATOM      4  C6  <0> d          -1.232   1.649   0.017  0.00  0.00     0.028 A 
ATOM      5  C7  <0> d          -2.425   0.939   0.019  0.00  0.00    -0.018 A 
ATOM      6  C8  <0> d          -3.631   1.615   0.029  0.00  0.00     0.151 A 
ATOM      7  F1  <0> d          -4.793   0.925   0.030  0.00  0.00    -0.203 F 
ATOM      8  H6  <0> d          -2.471   4.792   0.042  0.00  0.00     0.088 H 
ATOM      9  H7  <0> d          -0.324   3.590   0.033  0.00  0.00     0.087 H 
ATOM     10  H8  <0> d          -2.411  -0.141   0.013  0.00  0.00     0.091 H 
ENDROOT
BRANCH   1  11
ATOM     11  O1  <0> d          -4.835   3.669   0.046  0.00  0.00    -0.348 OA
BRANCH  11  12
ATOM     12  C2  <0> d          -4.778   5.097   0.054  0.00  0.00     0.023 C 
ATOM     13  H4  <0> d          -4.246   5.434   0.944  0.00  0.00     0.074 H 
ATOM     14  H5  <0> d          -4.255   5.445  -0.836  0.00  0.00     0.074 H 
BRANCH  12  15
ATOM     15  C1  <0> d          -6.199   5.664   0.065  0.00  0.00    -0.056 C 
ATOM     16  H1  <0> d          -6.732   5.327  -0.825  0.00  0.00     0.030 H 
ATOM     17  H2  <0> d          -6.723   5.316   0.955  0.00  0.00     0.030 H 
ATOM     18  H3  <0> d          -6.156   6.753   0.071  0.00  0.00     0.030 H 
ENDBRANCH  12  15
ENDBRANCH  11  12
ENDBRANCH   1  11
BRANCH   4  19
ATOM     19  N1  <0> d          -0.011   0.966   0.007  0.00  0.00    -0.399 N 
ATOM     20  H9  <0> d           0.002  -0.004   0.002  0.00  0.00     0.156 HD
ATOM     21  H10 <0> d           0.822   1.462   0.002  0.00  0.00     0.156 HD
ENDBRANCH   4  19
TORSDOF 4
