REMARK  2 active torsions:
REMARK  status: ('A' for Active; 'I' for Inactive)
REMARK    1  A    between atoms: C1_1  and  C2_2 
REMARK    2  A    between atoms: C2_2  and  C3_4 
ROOT
ATOM      1  C3  <0> d          -1.262  -0.757   0.010  0.00  0.00     0.030 A 
ATOM      2  C4  <0> d          -1.257  -2.160   0.008  0.00  0.00    -0.029 A 
ATOM      3  C5  <0> d          -2.475  -2.820   0.017  0.00  0.00     0.134 A 
ATOM      4  C6  <0> d          -3.647  -2.079   0.026  0.00  0.00     0.039 A 
ATOM      5  N1  <0> d          -3.620  -0.760   0.028  0.00  0.00    -0.269 NA
ATOM      6  C7  <0> d          -2.489  -0.087   0.025  0.00  0.00     0.015 A 
ATOM      7  F1  <0> d          -2.520  -4.170   0.015  0.00  0.00    -0.205 F 
ATOM      8  H4  <0> d          -0.328  -2.711   0.000  0.00  0.00     0.089 H 
ATOM      9  H5  <0> d          -4.598  -2.591   0.032  0.00  0.00     0.119 H 
ATOM     10  H6  <0> d          -2.509   0.993   0.031  0.00  0.00     0.116 H 
ENDROOT
BRANCH   1  11
ATOM     11  C2  <0> d           0.002  -0.004   0.002  0.00  0.00     0.157 C 
ATOM     12  O1  <0> d           1.060  -0.596  -0.011  0.00  0.00    -0.293 OA
BRANCH  11  13
ATOM     13  C1  <0> d          -0.018   1.503   0.010  0.00  0.00    -0.017 C 
ATOM     14  H1  <0> d           1.004   1.880   0.003  0.00  0.00     0.038 H 
ATOM     15  H2  <0> d          -0.545   1.864  -0.873  0.00  0.00     0.038 H 
ATOM     16  H3  <0> d          -0.529   1.854   0.907  0.00  0.00     0.038 H 
ENDBRANCH  11  13
ENDBRANCH   1  11
TORSDOF 2
