REMARK  2 active torsions:
REMARK  status: ('A' for Active; 'I' for Inactive)
REMARK    1  A    between atoms: C1_1  and  C2_2 
REMARK    2  A    between atoms: C7_8  and  N1_10 
REMARK       I    between atoms: N1_10  and  C8_11 
REMARK       I    between atoms: C8_11  and  N2_13 
ROOT
ATOM      1  C2  <0> d           1.322  -0.499   0.596  0.00  0.00    -0.038 C 
ATOM      2  H1  <0> d           1.337  -1.589   0.590  0.00  0.00     0.042 H 
ATOM      3  C3  <0> d           2.489   0.031  -0.239  0.00  0.00    -0.060 C 
ATOM      4  C4  <0> d           2.356  -0.473  -1.678  0.00  0.00    -0.065 C 
ATOM      5  C5  <0> d           1.036   0.022  -2.272  0.00  0.00    -0.063 C 
ATOM      6  C6  <0> d          -0.130  -0.508  -1.437  0.00  0.00    -0.046 C 
ATOM      7  C7  <0> d           0.002  -0.004   0.002  0.00  0.00     0.017 C 
ATOM      8  H2  <0> d          -0.829  -0.382   0.597  0.00  0.00     0.073 H 
ATOM      9  H6  <0> d           3.429  -0.322   0.184  0.00  0.00     0.033 H 
ATOM     10  H7  <0> d           2.474   1.121  -0.233  0.00  0.00     0.033 H 
ATOM     11  H8  <0> d           2.371  -1.563  -1.684  0.00  0.00     0.033 H 
ATOM     12  H9  <0> d           3.187  -0.095  -2.273  0.00  0.00     0.033 H 
ATOM     13  H10 <0> d           0.942  -0.337  -3.297  0.00  0.00     0.033 H 
ATOM     14  H11 <0> d           1.021   1.112  -2.266  0.00  0.00     0.033 H 
ATOM     15  H12 <0> d          -0.116  -1.598  -1.442  0.00  0.00     0.036 H 
ATOM     16  H13 <0> d          -1.071  -0.155  -1.860  0.00  0.00     0.036 H 
ENDROOT
BRANCH   7  17
ATOM     17  N1  <0> d          -0.018   1.461   0.010  0.00  0.00    -0.338 N 
ATOM     18  C8  <0> d          -1.194   2.119   0.019  0.00  0.00     0.314 C 
ATOM     19  O1  <0> d          -2.239   1.496   0.021  0.00  0.00    -0.248 OA
ATOM     20  N2  <0> d          -1.212   3.466   0.027  0.00  0.00    -0.352 N 
ATOM     21  H15 <0> d          -0.379   3.963   0.025  0.00  0.00     0.160 HD
ATOM     22  H16 <0> d          -2.059   3.940   0.033  0.00  0.00     0.160 HD
ATOM     23  H14 <0> d           0.816   1.957   0.005  0.00  0.00     0.164 HD
ENDBRANCH   7  17
BRANCH   1  24
ATOM     24  C1  <0> d           1.454   0.004   2.035  0.00  0.00    -0.071 C 
ATOM     25  H3  <0> d           0.623  -0.373   2.630  0.00  0.00     0.028 H 
ATOM     26  H4  <0> d           2.395  -0.348   2.458  0.00  0.00     0.028 H 
ATOM     27  H5  <0> d           1.440   1.094   2.041  0.00  0.00     0.028 H 
ENDBRANCH   1  24
TORSDOF 2
