REMARK  2 active torsions:
REMARK  status: ('A' for Active; 'I' for Inactive)
REMARK    1  A    between atoms: C1_1  and  C2_2 
REMARK    2  A    between atoms: C5_5  and  C6_8 
ROOT
ATOM      1  C2  <0> d          -1.208   1.773   0.017  0.00  0.00     0.026 A 
ATOM      2  C3  <0> d          -0.013   1.076   0.008  0.00  0.00    -0.023 A 
ATOM      3  C4  <0> d           1.172   1.811   0.001  0.00  0.00     0.135 A 
ATOM      4  C5  <0> d           1.076   3.200  -0.002  0.00  0.00     0.087 A 
ATOM      5  N1  <0> d          -0.111   3.773   0.013  0.00  0.00    -0.177 NA
ATOM      6  N2  <0> d          -1.199   3.093   0.024  0.00  0.00    -0.282 N 
ATOM      7  O1  <0> d           2.381   1.193  -0.014  0.00  0.00    -0.190 OA
ATOM      8  H4  <0> d          -0.017   0.076   0.007  0.00  0.00     0.091 H 
ATOM      9  H8  <0> d          -2.148   3.649   0.041  0.00  0.00     0.189 HD
ENDROOT
BRANCH   1  10
ATOM     10  C1  <0> d          -2.517   1.027   0.019  0.00  0.00    -0.036 C 
ATOM     11  H1  <0> d          -3.349   1.746   0.027  0.00  0.00     0.035 H 
ATOM     12  H2  <0> d          -2.574   0.390   0.914  0.00  0.00     0.035 H 
ATOM     13  H3  <0> d          -2.583   0.400  -0.882  0.00  0.00     0.035 H 
ENDBRANCH   1  10
BRANCH   4  14
ATOM     14  C6  <0> d           2.323   4.045  -0.020  0.00  0.00    -0.031 C 
ATOM     15  H5  <0> d           3.208   3.392  -0.030  0.00  0.00     0.035 H 
ATOM     16  H6  <0> d           2.348   4.683   0.876  0.00  0.00     0.035 H 
ATOM     17  H7  <0> d           2.324   4.678  -0.920  0.00  0.00     0.035 H 
ENDBRANCH   4  14
TORSDOF 2
