REMARK  4 active torsions:
REMARK  status: ('A' for Active; 'I' for Inactive)
REMARK    1  A    between atoms: C1_1  and  C2_2 
REMARK    2  A    between atoms: C2_2  and  C3_3 
REMARK    3  A    between atoms: C3_3  and  C4_4 
REMARK    4  A    between atoms: C7_8  and  N3_10 
ROOT
ATOM      1  C4  <0> d           0.739  -2.004  -1.265  0.00  0.00     0.059 A 
ATOM      2  C5  <0> d          -0.224  -2.695  -1.942  0.00  0.00     0.007 A 
ATOM      3  C6  <0> d          -0.184  -4.101  -1.935  0.00  0.00     0.261 A 
ATOM      4  N1  <0> d           0.807  -4.718  -1.258  0.00  0.00    -0.155 N 
ATOM      5  C7  <0> d           1.740  -3.977  -0.600  0.00  0.00     0.701 A 
ATOM      6  N2  <0> d           1.699  -2.659  -0.616  0.00  0.00    -0.070 NA
ATOM      7  O1  <0> d          -1.028  -4.750  -2.530  0.00  0.00    -0.268 OA
ATOM      8  H8  <0> d          -1.004  -2.171  -2.475  0.00  0.00     0.095 H 
ATOM      9  H11 <0> d           0.854  -5.687  -1.239  0.00  0.00     0.187 HD
ENDROOT
BRANCH   1  10
ATOM     10  C3  <0> d           0.718  -0.497  -1.257  0.00  0.00    -0.024 C 
ATOM     11  H6  <0> d           0.191  -0.136  -2.140  0.00  0.00     0.042 H 
ATOM     12  H7  <0> d           1.741  -0.120  -1.264  0.00  0.00     0.042 H 
BRANCH  10  13
ATOM     13  C2  <0> d           0.002  -0.004   0.002  0.00  0.00    -0.063 C 
ATOM     14  H4  <0> d           0.529  -0.365   0.885  0.00  0.00     0.033 H 
ATOM     15  H5  <0> d          -1.020  -0.381   0.010  0.00  0.00     0.033 H 
BRANCH  13  16
ATOM     16  C1  <0> d          -0.019   1.526   0.010  0.00  0.00    -0.076 C 
ATOM     17  H1  <0> d           1.004   1.903   0.003  0.00  0.00     0.027 H 
ATOM     18  H2  <0> d          -0.546   1.887  -0.873  0.00  0.00     0.027 H 
ATOM     19  H3  <0> d          -0.529   1.877   0.907  0.00  0.00     0.027 H 
ENDBRANCH  13  16
ENDBRANCH  10  13
ENDBRANCH   1  10
BRANCH   5  20
ATOM     20  N3  <0> d           2.742  -4.610   0.085  0.00  0.00    -0.233 N 
ATOM     21  H9  <0> d           2.782  -5.579   0.099  0.00  0.00     0.174 HD
ATOM     22  H10 <0> d           3.411  -4.090   0.556  0.00  0.00     0.174 HD
ENDBRANCH   5  20
TORSDOF 4
