REMARK  1 active torsions:
REMARK  status: ('A' for Active; 'I' for Inactive)
REMARK    1  A    between atoms: C5_6  and  O1_9 
ROOT
ATOM      1  C1  <0> d          -0.013   1.086   0.008  0.00  0.00    -0.063 C 
ATOM      2  C2  <0> d          -0.753   1.593  -1.232  0.00  0.00    -0.062 C 
ATOM      3  C3  <0> d          -2.188   1.063  -1.221  0.00  0.00    -0.034 C 
ATOM      4  C4  <0> d          -2.904   1.556   0.038  0.00  0.00     0.103 C 
ATOM      5  H1  <0> d          -3.927   1.179   0.046  0.00  0.00     0.095 H 
ATOM      6  C5  <0> d          -2.164   1.050   1.278  0.00  0.00     0.065 C 
ATOM      7  H2  <0> d          -2.149  -0.040   1.272  0.00  0.00     0.087 H 
ATOM      8  C6  <0> d          -0.729   1.579   1.267  0.00  0.00    -0.038 C 
ATOM      9  F1  <0> d          -2.923   2.955   0.046  0.00  0.00    -0.247 F 
ATOM     10  H3  <0> d           0.002  -0.004   0.002  0.00  0.00     0.033 H 
ATOM     11  H4  <0> d           1.010   1.463   0.000  0.00  0.00     0.033 H 
ATOM     12  H5  <0> d          -0.767   2.683  -1.226  0.00  0.00     0.033 H 
ATOM     13  H6  <0> d          -0.242   1.241  -2.128  0.00  0.00     0.033 H 
ATOM     14  H7  <0> d          -2.715   1.424  -2.104  0.00  0.00     0.037 H 
ATOM     15  H8  <0> d          -2.173  -0.027  -1.227  0.00  0.00     0.037 H 
ATOM     16  H9  <0> d          -0.202   1.218   2.150  0.00  0.00     0.036 H 
ATOM     17  H10 <0> d          -0.744   2.669   1.273  0.00  0.00     0.036 H 
ENDROOT
BRANCH   6  18
ATOM     18  O1  <0> d          -2.833   1.510   2.453  0.00  0.00    -0.393 OA
ATOM     19  H11 <0> d          -2.418   1.226   3.279  0.00  0.00     0.210 HD
ENDBRANCH   6  18
TORSDOF 1
