REMARK  5 active torsions:
REMARK  status: ('A' for Active; 'I' for Inactive)
REMARK    1  A    between atoms: C1_1  and  C2_2 
REMARK    2  A    between atoms: C2_2  and  C3_3 
REMARK    3  A    between atoms: C3_3  and  C4_4 
REMARK    4  A    between atoms: C6_6  and  O2_11 
REMARK    5  A    between atoms: C8_8  and  O1_10 
ROOT
ATOM      1  C4  <0> d           2.382   1.417  -0.013  0.00  0.00    -0.053 A 
ATOM      2  C5  <0> d           1.176   2.091   0.002  0.00  0.00    -0.045 A 
ATOM      3  C6  <0> d          -0.017   1.382   0.010  0.00  0.00     0.068 A 
ATOM      4  C7  <0> d           0.002  -0.004   0.002  0.00  0.00    -0.019 A 
ATOM      5  C8  <0> d           1.213  -0.678  -0.013  0.00  0.00     0.068 A 
ATOM      6  C9  <0> d           2.403   0.035  -0.021  0.00  0.00    -0.045 A 
ATOM      7  H8  <0> d           1.162   3.171   0.008  0.00  0.00     0.088 H 
ATOM      8  H9  <0> d          -0.925  -0.558   0.008  0.00  0.00     0.092 H 
ATOM      9  H10 <0> d           3.347  -0.490  -0.033  0.00  0.00     0.088 H 
ENDROOT
BRANCH   1  10
ATOM     10  C3  <0> d           3.676   2.189  -0.022  0.00  0.00    -0.041 C 
ATOM     11  H6  <0> d           3.537   3.137   0.498  0.00  0.00     0.040 H 
ATOM     12  H7  <0> d           4.449   1.609   0.481  0.00  0.00     0.040 H 
BRANCH  10  13
ATOM     13  C2  <0> d           4.100   2.458  -1.468  0.00  0.00    -0.065 C 
ATOM     14  H4  <0> d           4.239   1.510  -1.988  0.00  0.00     0.032 H 
ATOM     15  H5  <0> d           3.327   3.038  -1.971  0.00  0.00     0.032 H 
BRANCH  13  16
ATOM     16  C1  <0> d           5.414   3.242  -1.476  0.00  0.00    -0.076 C 
ATOM     17  H1  <0> d           6.187   2.661  -0.973  0.00  0.00     0.027 H 
ATOM     18  H2  <0> d           5.715   3.433  -2.506  0.00  0.00     0.027 H 
ATOM     19  H3  <0> d           5.274   4.190  -0.956  0.00  0.00     0.027 H 
ENDBRANCH  13  16
ENDBRANCH  10  13
ENDBRANCH   1  10
BRANCH   5  20
ATOM     20  O1  <0> d           1.235  -2.037  -0.021  0.00  0.00    -0.361 OA
ATOM     21  H11 <0> d           1.233  -2.425  -0.907  0.00  0.00     0.217 HD
ENDBRANCH   5  20
BRANCH   3  22
ATOM     22  O2  <0> d          -1.202   2.046   0.019  0.00  0.00    -0.361 OA
ATOM     23  H12 <0> d          -1.541   2.233   0.905  0.00  0.00     0.217 HD
ENDBRANCH   3  22
TORSDOF 5
