REMARK  0 active torsions:
REMARK  status: ('A' for Active; 'I' for Inactive)
ROOT
ATOM      1  C1  <0> d          -0.013   1.076   0.008  0.00  0.00    -0.065 A 
ATOM      2  C2  <0> d           1.163   1.781   0.001  0.00  0.00    -0.065 A 
ATOM      3  C3  <0> d           1.095   3.178   0.008  0.00  0.00     0.053 A 
ATOM      4  C4  <0> d          -0.167   3.807   0.023  0.00  0.00     0.157 A 
ATOM      5  N1  <0> d           0.069   5.155   0.028  0.00  0.00    -0.259 N 
ATOM      6  H1  <0> d          -0.775   5.861   0.040  0.00  0.00     0.191 HD
ATOM      7  N2  <0> d           1.448   5.382   0.017  0.00  0.00    -0.160 NA
ATOM      8  C5  <0> d           2.089   4.247   0.005  0.00  0.00     0.160 A 
ATOM      9 Cl1  <0> d           3.813   4.043  -0.011  0.00  0.00    -0.059 Cl
ATOM     10  N3  <0> d          -1.272   3.071   0.029  0.00  0.00    -0.241 NA
ATOM     11  C6  <0> d          -1.221   1.757   0.017  0.00  0.00     0.004 A 
ATOM     12  H2  <0> d           0.002  -0.004   0.002  0.00  0.00     0.085 H 
ATOM     13  H3  <0> d           2.115   1.272  -0.011  0.00  0.00     0.085 H 
ATOM     14  H4  <0> d          -2.143   1.194   0.019  0.00  0.00     0.114 H 
ENDROOT
TORSDOF 0
