REMARK  1 active torsions:
REMARK  status: ('A' for Active; 'I' for Inactive)
REMARK    1  A    between atoms: C1_1  and  C3_8 
ROOT
ATOM      1  C1  <0> d          -1.307   2.065   0.019  0.00  0.00     0.231 A 
ATOM      2  C2  <0> d          -1.551   3.529   0.035  0.00  0.00     0.304 A 
ATOM      3  O1  <0> d          -0.743   4.441   0.042  0.00  0.00    -0.263 OA
ATOM      4  N1  <0> d          -2.907   3.590   0.036  0.00  0.00    -0.202 N 
ATOM      5  H1  <0> d          -3.438   4.401   0.044  0.00  0.00     0.200 HD
ATOM      6  O2  <0> d          -3.340   2.460   0.032  0.00  0.00    -0.128 OA
ATOM      7  N2  <0> d          -2.524   1.571   0.023  0.00  0.00    -0.094 NA
ENDROOT
BRANCH   1   8
ATOM      8  C3  <0> d          -0.016   1.343   0.009  0.00  0.00     0.237 C 
ATOM      9  O3  <0> d           1.027   1.964   0.003  0.00  0.00    -0.643 OA
ATOM     10  O4  <0> d           0.002  -0.004   0.002  0.00  0.00    -0.643 OA
ENDBRANCH   1   8
TORSDOF 1
