REMARK  3 active torsions:
REMARK  status: ('A' for Active; 'I' for Inactive)
REMARK    1  A    between atoms: C1_1  and  C2_2 
REMARK    2  A    between atoms: C3_3  and  O2_10 
REMARK    3  A    between atoms: N1_8  and  C7_9 
ROOT
ATOM      1  C2  <0> d           0.002  -0.004   0.002  0.00  0.00     0.044 A 
ATOM      2  C3  <0> d           0.006  -0.668  -1.178  0.00  0.00     0.138 A 
ATOM      3  C4  <0> d           0.025  -2.086  -1.173  0.00  0.00     0.208 A 
ATOM      4  O1  <0> d           0.029  -2.714  -2.222  0.00  0.00    -0.285 OA
ATOM      5  C5  <0> d           0.041  -2.759   0.070  0.00  0.00    -0.017 A 
ATOM      6  C6  <0> d           0.036  -2.038   1.213  0.00  0.00    -0.017 A 
ATOM      7  N1  <0> d           0.022  -0.683   1.179  0.00  0.00    -0.362 N 
ATOM      8  H4  <0> d           0.056  -3.838   0.105  0.00  0.00     0.091 H 
ATOM      9  H5  <0> d           0.048  -2.547   2.165  0.00  0.00     0.111 H 
ENDROOT
BRANCH   1  10
ATOM     10  C1  <0> d          -0.018   1.503   0.010  0.00  0.00    -0.035 C 
ATOM     11  H1  <0> d           1.004   1.880   0.003  0.00  0.00     0.035 H 
ATOM     12  H2  <0> d          -0.545   1.864  -0.873  0.00  0.00     0.035 H 
ATOM     13  H3  <0> d          -0.529   1.854   0.907  0.00  0.00     0.035 H 
ENDBRANCH   1  10
BRANCH   7  14
ATOM     14  C7  <0> d           0.024   0.065   2.438  0.00  0.00    -0.015 C 
ATOM     15  H6  <0> d          -1.003   0.237   2.760  0.00  0.00     0.057 H 
ATOM     16  H7  <0> d           0.553  -0.507   3.200  0.00  0.00     0.057 H 
ATOM     17  H8  <0> d           0.524   1.023   2.291  0.00  0.00     0.057 H 
ENDBRANCH   7  14
BRANCH   2  18
ATOM     18  O2  <0> d          -0.010   0.016  -2.354  0.00  0.00    -0.355 OA
ATOM     19  H9  <0> d          -0.006  -0.550  -3.139  0.00  0.00     0.218 HD
ENDBRANCH   2  18
TORSDOF 3
