REMARK  4 active torsions:
REMARK  status: ('A' for Active; 'I' for Inactive)
REMARK    1  A    between atoms: C1_1  and  O1_2 
REMARK    2  A    between atoms: O1_2  and  C2_3 
REMARK    3  A    between atoms: C2_3  and  C3_5 
REMARK    4  A    between atoms: C3_5  and  N1_9 
ROOT
ATOM      1  C3  <0> d           0.657  -2.104  -1.120  0.00  0.00     0.241 C 
ATOM      2  C4  <0> d           2.059  -2.679  -0.859  0.00  0.00    -0.022 C 
ATOM      3  C5  <0> d           1.773  -3.681  -1.990  0.00  0.00    -0.059 C 
ATOM      4  C6  <0> d           0.789  -2.642  -2.554  0.00  0.00    -0.022 C 
ATOM      5  H4  <0> d           2.867  -1.983  -1.086  0.00  0.00     0.037 H 
ATOM      6  H5  <0> d           2.165  -3.145   0.121  0.00  0.00     0.037 H 
ATOM      7  H6  <0> d           2.631  -3.867  -2.636  0.00  0.00     0.033 H 
ATOM      8  H7  <0> d           1.292  -4.598  -1.649  0.00  0.00     0.033 H 
ATOM      9  H8  <0> d          -0.131  -3.079  -2.943  0.00  0.00     0.037 H 
ATOM     10  H9  <0> d           1.249  -1.936  -3.245  0.00  0.00     0.037 H 
ENDROOT
BRANCH   1  11
ATOM     11  C2  <0> d           0.598  -0.600  -1.043  0.00  0.00     0.297 C 
ATOM     12  O2  <0> d           1.088   0.070  -1.921  0.00  0.00    -0.262 OA
BRANCH  11  13
ATOM     13  O1  <0> d           0.002  -0.004   0.002  0.00  0.00    -0.324 OA
BRANCH  13  14
ATOM     14  C1  <0> d          -0.017   1.425   0.010  0.00  0.00     0.013 C 
ATOM     15  H1  <0> d           1.005   1.802   0.002  0.00  0.00     0.067 H 
ATOM     16  H2  <0> d          -0.544   1.786  -0.873  0.00  0.00     0.067 H 
ATOM     17  H3  <0> d          -0.527   1.776   0.907  0.00  0.00     0.067 H 
ENDBRANCH  13  14
ENDBRANCH  11  13
ENDBRANCH   1  11
BRANCH   1  18
ATOM     18  N1  <0> d          -0.403  -2.757  -0.341  0.00  0.00     0.098 N 
ATOM     19  H10 <0> d          -0.439  -2.392   0.599  0.00  0.00     0.314 HD
ATOM     20  H11 <0> d          -1.297  -2.664  -0.799  0.00  0.00     0.314 HD
ENDBRANCH   1  18
TORSDOF 4
