REMARK  3 active torsions:
REMARK  status: ('A' for Active; 'I' for Inactive)
REMARK    1  A    between atoms: C1_1  and  C2_2 
REMARK    2  A    between atoms: C3_3  and  N3_8 
REMARK    3  A    between atoms: N1_5  and  C5_7 
ROOT
ATOM      1  C2  <0> d           0.002  -0.004   0.002  0.00  0.00     0.078 A 
ATOM      2  C3  <0> d          -0.017   1.398   0.010  0.00  0.00     0.069 A 
ATOM      3  C4  <0> d           1.269   1.832  -0.000  0.00  0.00     0.025 A 
ATOM      4  N1  <0> d           2.072   0.735  -0.014  0.00  0.00    -0.283 N 
ATOM      5  N2  <0> d           1.250  -0.399  -0.012  0.00  0.00    -0.176 NA
ATOM      6  H4  <0> d           1.595   2.861   0.002  0.00  0.00     0.117 H 
ENDROOT
BRANCH   1   7
ATOM      7  C1  <0> d          -1.208  -0.902   0.008  0.00  0.00    -0.032 C 
ATOM      8  H1  <0> d          -1.509  -1.114  -1.018  0.00  0.00     0.035 H 
ATOM      9  H2  <0> d          -0.964  -1.836   0.515  0.00  0.00     0.035 H 
ATOM     10  H3  <0> d          -2.026  -0.407   0.532  0.00  0.00     0.035 H 
ENDBRANCH   1   7
BRANCH   2  11
ATOM     11  N3  <0> d          -1.166   2.211   0.020  0.00  0.00    -0.396 N 
ATOM     12  H8  <0> d          -2.047   1.806   0.022  0.00  0.00     0.156 HD
ATOM     13  H9  <0> d          -1.077   3.177   0.025  0.00  0.00     0.156 HD
ENDBRANCH   2  11
BRANCH   4  14
ATOM     14  C5  <0> d           3.537   0.738  -0.027  0.00  0.00     0.002 C 
ATOM     15  H5  <0> d           3.890   0.744  -1.058  0.00  0.00     0.059 H 
ATOM     16  H6  <0> d           3.903   1.626   0.488  0.00  0.00     0.059 H 
ATOM     17  H7  <0> d           3.907  -0.154   0.478  0.00  0.00     0.059 H 
ENDBRANCH   4  14
TORSDOF 3
