REMARK  7 active torsions:
REMARK  status: ('A' for Active; 'I' for Inactive)
REMARK    1  A    between atoms: C1_1  and  C2_2 
REMARK    2  A    between atoms: C2_2  and  C3_3 
REMARK    3  A    between atoms: C3_3  and  C4_4 
REMARK    4  A    between atoms: C4_4  and  C5_6 
REMARK    5  A    between atoms: C4_4  and  N1_10 
REMARK    6  A    between atoms: C5_6  and  O2_8 
REMARK    7  A    between atoms: O2_8  and  C6_9 
ROOT
ATOM      1  C4  <0> d           0.763  -2.041   1.233  0.00  0.00     0.212 C 
ATOM      2  H1  <0> d           1.193  -2.393   0.296  0.00  0.00     0.104 H 
ENDROOT
BRANCH   1   3
ATOM      3  C3  <0> d           0.742  -0.511   1.242  0.00  0.00    -0.028 C 
ATOM      4  H7  <0> d           1.765  -0.134   1.234  0.00  0.00     0.036 H 
ATOM      5  H8  <0> d           0.232  -0.159   2.138  0.00  0.00     0.036 H 
BRANCH   3   6
ATOM      6  C2  <0> d           0.002  -0.004   0.002  0.00  0.00    -0.066 C 
ATOM      7  H5  <0> d          -1.020  -0.381   0.010  0.00  0.00     0.032 H 
ATOM      8  H6  <0> d           0.512  -0.356  -0.895  0.00  0.00     0.032 H 
BRANCH   6   9
ATOM      9  C1  <0> d          -0.019   1.526   0.010  0.00  0.00    -0.076 C 
ATOM     10  H2  <0> d           1.004   1.903   0.003  0.00  0.00     0.027 H 
ATOM     11  H3  <0> d          -0.546   1.887  -0.873  0.00  0.00     0.027 H 
ATOM     12  H4  <0> d          -0.529   1.877   0.907  0.00  0.00     0.027 H 
ENDBRANCH   6   9
ENDBRANCH   3   6
ENDBRANCH   1   3
BRANCH   1  13
ATOM     13  C5  <0> d           1.596  -2.538   2.386  0.00  0.00     0.291 C 
ATOM     14  O1  <0> d           1.058  -2.924   3.398  0.00  0.00    -0.263 OA
BRANCH  13  15
ATOM     15  O2  <0> d           2.934  -2.553   2.290  0.00  0.00    -0.325 OA
BRANCH  15  16
ATOM     16  C6  <0> d           3.661  -3.037   3.422  0.00  0.00     0.013 C 
ATOM     17  H9  <0> d           3.436  -2.418   4.290  0.00  0.00     0.067 H 
ATOM     18  H10 <0> d           3.370  -4.068   3.626  0.00  0.00     0.067 H 
ATOM     19  H11 <0> d           4.729  -2.996   3.212  0.00  0.00     0.067 H 
ENDBRANCH  15  16
ENDBRANCH  13  15
ENDBRANCH   1  13
BRANCH   1  20
ATOM     20  N1  <0> d          -0.609  -2.550   1.364  0.00  0.00     0.092 N 
ATOM     21  H12 <0> d          -1.030  -2.237   2.226  0.00  0.00     0.313 HD
ATOM     22  H13 <0> d          -1.171  -2.284   0.570  0.00  0.00     0.313 HD
ENDBRANCH   1  20
TORSDOF 7
