REMARK  1 active torsions:
REMARK  status: ('A' for Active; 'I' for Inactive)
REMARK       I    between atoms: N1_6  and  C5_7 
REMARK    1  A    between atoms: C5_7  and  C6_9 
ROOT
ATOM      1  C6  <0> d           2.932   3.527   1.846  0.00  0.00     0.088 C 
ATOM      2  C7  <0> d           3.772   4.082   2.919  0.00  0.00     0.068 C 
ATOM      3  N2  <0> d           4.421   4.510   3.747  0.00  0.00    -0.197 NA
ATOM      4  H9  <0> d           3.355   3.794   0.877  0.00  0.00     0.069 H 
ATOM      5  H10 <0> d           1.924   3.935   1.926  0.00  0.00     0.069 H 
ENDROOT
BRANCH   1   6
ATOM      6  C5  <0> d           2.878   2.027   1.974  0.00  0.00     0.233 C 
ATOM      7  N1  <0> d           2.162   1.300   1.093  0.00  0.00    -0.347 N 
ATOM      8  C1  <0> d           1.423   1.950  -0.001  0.00  0.00     0.017 C 
ATOM      9  C4  <0> d           2.095  -0.166   1.198  0.00  0.00     0.017 C 
ATOM     10  C2  <0> d          -0.017   1.425   0.010  0.00  0.00     0.034 C 
ATOM     11  H1  <0> d           1.894   1.710  -0.955  0.00  0.00     0.067 H 
ATOM     12  H2  <0> d           1.422   3.030   0.147  0.00  0.00     0.067 H 
ATOM     13  O1  <0> d           0.002  -0.004   0.002  0.00  0.00    -0.388 OA
ATOM     14  H3  <0> d          -0.543   1.787  -0.874  0.00  0.00     0.076 H 
ATOM     15  H4  <0> d          -0.526   1.778   0.907  0.00  0.00     0.076 H 
ATOM     16  C3  <0> d           0.622  -0.587   1.151  0.00  0.00     0.034 C 
ATOM     17  H5  <0> d           0.115  -0.242   2.052  0.00  0.00     0.076 H 
ATOM     18  H6  <0> d           0.555  -1.673   1.088  0.00  0.00     0.076 H 
ATOM     19  H7  <0> d           2.538  -0.487   2.141  0.00  0.00     0.067 H 
ATOM     20  H8  <0> d           2.633  -0.619   0.366  0.00  0.00     0.067 H 
ATOM     21  O2  <0> d           3.480   1.473   2.869  0.00  0.00    -0.272 OA
ENDBRANCH   1   6
TORSDOF 1
