REMARK  1 active torsions:
REMARK  status: ('A' for Active; 'I' for Inactive)
REMARK    1  A    between atoms: C1_1  and  C2_2 
ROOT
ATOM      1  C2  <0> d           0.497   5.636   0.024  0.00  0.00    -0.022 A 
ATOM      2  C3  <0> d           1.241   4.490   0.012  0.00  0.00    -0.062 A 
ATOM      3  C4  <0> d           0.603   3.248   0.013  0.00  0.00    -0.007 A 
ATOM      4  C5  <0> d           1.076   1.861   0.002  0.00  0.00    -0.056 A 
ATOM      5  C6  <0> d          -0.013   1.076   0.008  0.00  0.00    -0.022 A 
ATOM      6  N1  <0> d          -1.144   1.846   0.017  0.00  0.00    -0.365 N 
ATOM      7  H1  <0> d          -2.052   1.504   0.019  0.00  0.00     0.165 HD
ATOM      8  C7  <0> d          -0.802   3.180   0.025  0.00  0.00     0.045 A 
ATOM      9  C8  <0> d          -1.542   4.358   0.037  0.00  0.00    -0.019 A 
ATOM     10  C9  <0> d          -0.891   5.575   0.036  0.00  0.00     0.124 A 
ATOM     11  F1  <0> d          -1.611   6.718   0.048  0.00  0.00    -0.205 F 
ATOM     12  H5  <0> d           2.320   4.545   0.002  0.00  0.00     0.085 H 
ATOM     13  H6  <0> d           2.105   1.533  -0.010  0.00  0.00     0.086 H 
ATOM     14  H7  <0> d           0.002  -0.004   0.002  0.00  0.00     0.111 H 
ATOM     15  H8  <0> d          -2.621   4.320   0.046  0.00  0.00     0.091 H 
ENDROOT
BRANCH   1  16
ATOM     16  C1  <0> d           1.187   6.975   0.023  0.00  0.00    -0.048 C 
ATOM     17  H2  <0> d           1.344   7.303  -1.005  0.00  0.00     0.033 H 
ATOM     18  H3  <0> d           0.567   7.704   0.546  0.00  0.00     0.033 H 
ATOM     19  H4  <0> d           2.150   6.889   0.527  0.00  0.00     0.033 H 
ENDBRANCH   1  16
TORSDOF 1
