REMARK  5 active torsions:
REMARK  status: ('A' for Active; 'I' for Inactive)
REMARK    1  A    between atoms: C1_1  and  C2_2 
REMARK    2  A    between atoms: C4_4  and  C9_11 
REMARK    3  A    between atoms: C5_6  and  C7_8 
REMARK    4  A    between atoms: C7_8  and  C8_9 
REMARK    5  A    between atoms: C8_9  and  O1_10 
ROOT
ATOM      1  C2  <0> d          -1.237   3.556   0.032  0.00  0.00    -0.058 A 
ATOM      2  C3  <0> d          -1.229   2.169   0.020  0.00  0.00    -0.054 A 
ATOM      3  C4  <0> d          -0.018   1.503   0.010  0.00  0.00     0.031 A 
ATOM      4  N1  <0> d           1.119   2.170   0.003  0.00  0.00    -0.258 NA
ATOM      5  C5  <0> d           1.150   3.488   0.009  0.00  0.00     0.037 A 
ATOM      6  C6  <0> d          -0.021   4.223   0.024  0.00  0.00    -0.053 A 
ATOM      7  H4  <0> d          -2.157   1.617   0.021  0.00  0.00     0.087 H 
ATOM      8  H5  <0> d           0.010   5.302   0.029  0.00  0.00     0.087 H 
ENDROOT
BRANCH   5   9
ATOM      9  C7  <0> d           2.477   4.202   0.001  0.00  0.00    -0.005 C 
ATOM     10  H6  <0> d           2.994   3.997  -0.936  0.00  0.00     0.045 H 
ATOM     11  H7  <0> d           2.312   5.276   0.098  0.00  0.00     0.045 H 
BRANCH   9  12
ATOM     12  C8  <0> d           3.329   3.710   1.173  0.00  0.00     0.022 C 
ATOM     13  H8  <0> d           2.811   3.915   2.110  0.00  0.00     0.074 H 
ATOM     14  H9  <0> d           3.493   2.636   1.076  0.00  0.00     0.074 H 
BRANCH  12  15
ATOM     15  O1  <0> d           4.587   4.387   1.165  0.00  0.00    -0.400 OA
ATOM     16  H10 <0> d           5.180   4.123   1.882  0.00  0.00     0.209 HD
ENDBRANCH  12  15
ENDBRANCH   9  12
ENDBRANCH   5   9
BRANCH   3  17
ATOM     17  C9  <0> d           0.002  -0.004   0.002  0.00  0.00    -0.035 C 
ATOM     18  H11 <0> d           0.017  -0.373   1.028  0.00  0.00     0.035 H 
ATOM     19  H12 <0> d          -0.888  -0.377  -0.505  0.00  0.00     0.035 H 
ATOM     20  H13 <0> d           0.892  -0.352  -0.522  0.00  0.00     0.035 H 
ENDBRANCH   3  17
BRANCH   1  21
ATOM     21  C1  <0> d          -2.535   4.320   0.049  0.00  0.00    -0.051 C 
ATOM     22  H1  <0> d          -2.858   4.510  -0.975  0.00  0.00     0.033 H 
ATOM     23  H2  <0> d          -3.295   3.734   0.566  0.00  0.00     0.033 H 
ATOM     24  H3  <0> d          -2.393   5.269   0.566  0.00  0.00     0.033 H 
ENDBRANCH   1  21
TORSDOF 5
