REMARK  3 active torsions:
REMARK  status: ('A' for Active; 'I' for Inactive)
REMARK    1  A    between atoms: C1_1  and  C2_2 
REMARK    2  A    between atoms: C3_4  and  C6_10 
REMARK    3  A    between atoms: C4_5  and  O3_9 
ROOT
ATOM      1  C2  <0> d           2.145   0.720  -0.015  0.00  0.00     0.069 A 
ATOM      2  H1  <0> d           2.798   0.686   0.870  0.00  0.00     0.090 H 
ATOM      3  C3  <0> d           1.234   1.925   0.001  0.00  0.00    -0.016 A 
ATOM      4  C4  <0> d          -0.018   1.465   0.010  0.00  0.00     0.146 A 
ATOM      5  C5  <0> d           0.002  -0.004   0.002  0.00  0.00     0.317 A 
ATOM      6  O1  <0> d          -0.983  -0.715   0.008  0.00  0.00    -0.257 OA
ATOM      7  O2  <0> d           1.274  -0.445  -0.013  0.00  0.00    -0.306 OA
ENDROOT
BRANCH   1   8
ATOM      8  C1  <0> d           3.010   0.728  -1.276  0.00  0.00    -0.048 C 
ATOM      9  H2  <0> d           3.664   1.613  -1.267  0.00  0.00     0.031 H 
ATOM     10  H3  <0> d           2.362   0.761  -2.165  0.00  0.00     0.031 H 
ATOM     11  H4  <0> d           3.626  -0.183  -1.305  0.00  0.00     0.031 H 
ENDBRANCH   1   8
BRANCH   3  12
ATOM     12  C6  <0> d           1.659   3.371   0.004  0.00  0.00    -0.049 C 
ATOM     13  H6  <0> d           0.767   4.015   0.016  0.00  0.00     0.033 H 
ATOM     14  H7  <0> d           2.251   3.582  -0.899  0.00  0.00     0.033 H 
ATOM     15  H8  <0> d           2.269   3.572   0.897  0.00  0.00     0.033 H 
ENDBRANCH   3  12
BRANCH   4  16
ATOM     16  O3  <0> d          -1.138   2.236   0.020  0.00  0.00    -0.355 OA
ATOM     17  H5  <0> d          -2.131   1.763   0.027  0.00  0.00     0.218 HD
ENDBRANCH   4  16
TORSDOF 3
