REMARK  3 active torsions:
REMARK  status: ('A' for Active; 'I' for Inactive)
REMARK    1  A    between atoms: C1_1  and  C2_2 
REMARK    2  A    between atoms: C4_4  and  O1_10 
REMARK    3  A    between atoms: O1_10  and  C9_11 
ROOT
ATOM      1  C2  <0> d           1.163   3.189   0.008  0.00  0.00    -0.039 A 
ATOM      2  C3  <0> d          -0.043   3.855   0.023  0.00  0.00    -0.044 A 
ATOM      3  C4  <0> d          -1.234   3.139   0.030  0.00  0.00     0.068 A 
ATOM      4  C5  <0> d          -1.214   1.749   0.017  0.00  0.00    -0.049 A 
ATOM      5  C6  <0> d          -0.013   1.076   0.008  0.00  0.00    -0.060 A 
ATOM      6  C7  <0> d           1.188   1.792   0.000  0.00  0.00     0.050 A 
ATOM      7  C8  <0> d           2.439   1.096  -0.016  0.00  0.00     0.100 C 
ATOM      8  N1  <0> d           3.432   0.544  -0.029  0.00  0.00    -0.191 NA
ATOM      9  H4  <0> d          -0.063   4.934   0.029  0.00  0.00     0.088 H 
ATOM     10  H5  <0> d          -2.142   1.196   0.018  0.00  0.00     0.087 H 
ATOM     11  H6  <0> d           0.002  -0.004   0.002  0.00  0.00     0.086 H 
ENDROOT
BRANCH   1  12
ATOM     12  C1  <0> d           2.454   3.967   0.001  0.00  0.00    -0.050 C 
ATOM     13  H1  <0> d           2.756   4.160  -1.029  0.00  0.00     0.033 H 
ATOM     14  H2  <0> d           2.311   4.914   0.521  0.00  0.00     0.033 H 
ATOM     15  H3  <0> d           3.229   3.389   0.504  0.00  0.00     0.033 H 
ENDBRANCH   1  12
BRANCH   3  16
ATOM     16  O1  <0> d          -2.420   3.799   0.044  0.00  0.00    -0.356 OA
BRANCH  16  17
ATOM     17  C9  <0> d          -3.606   3.001   0.051  0.00  0.00     0.010 C 
ATOM     18  H7  <0> d          -3.629   2.377  -0.842  0.00  0.00     0.066 H 
ATOM     19  H8  <0> d          -3.613   2.367   0.938  0.00  0.00     0.066 H 
ATOM     20  H9  <0> d          -4.481   3.651   0.062  0.00  0.00     0.066 H 
ENDBRANCH  16  17
ENDBRANCH   3  16
TORSDOF 3
