REMARK  1 active torsions:
REMARK  status: ('A' for Active; 'I' for Inactive)
REMARK    1  A    between atoms: C1_1  and  C2_2 
ROOT
ATOM      1  C2  <0> d          -2.899   3.994   0.050  0.00  0.00     0.124 A 
ATOM      2  N1  <0> d          -3.380   2.763   0.048  0.00  0.00    -0.245 NA
ATOM      3  C3  <0> d          -2.575   1.713   0.035  0.00  0.00     0.018 A 
ATOM      4  C4  <0> d          -1.199   1.931   0.018  0.00  0.00     0.029 A 
ATOM      5  C5  <0> d          -0.013   1.076   0.008  0.00  0.00    -0.053 A 
ATOM      6  C6  <0> d           1.054   1.891   0.002  0.00  0.00    -0.020 A 
ATOM      7  N2  <0> d           0.644   3.198   0.013  0.00  0.00    -0.350 N 
ATOM      8  H1  <0> d           1.236   3.967   0.011  0.00  0.00     0.166 HD
ATOM      9  C7  <0> d          -0.723   3.260   0.026  0.00  0.00     0.141 A 
ATOM     10  N3  <0> d          -1.609   4.251   0.039  0.00  0.00    -0.215 NA
ATOM     11  H5  <0> d          -2.976   0.710   0.034  0.00  0.00     0.116 H 
ATOM     12  H6  <0> d           0.002  -0.004   0.002  0.00  0.00     0.087 H 
ATOM     13  H7  <0> d           2.084   1.564  -0.009  0.00  0.00     0.111 H 
ENDROOT
BRANCH   1  14
ATOM     14  C1  <0> d          -3.866   5.149   0.065  0.00  0.00    -0.019 C 
ATOM     15  H2  <0> d          -4.109   5.433  -0.959  0.00  0.00     0.037 H 
ATOM     16  H3  <0> d          -4.777   4.853   0.586  0.00  0.00     0.037 H 
ATOM     17  H4  <0> d          -3.413   5.996   0.579  0.00  0.00     0.037 H 
ENDBRANCH   1  14
TORSDOF 1
