REMARK  3 active torsions:
REMARK  status: ('A' for Active; 'I' for Inactive)
REMARK    1  A    between atoms: C3_3  and  C6_9 
REMARK    2  A    between atoms: C6_9  and  C7_10 
REMARK    3  A    between atoms: C7_10  and  O2_11 
ROOT
ATOM      1  C1  <0> d          -0.871   2.905   1.020  0.00  0.00    -0.050 C 
ATOM      2  C2  <0> d           0.055   3.612   0.023  0.00  0.00    -0.052 C 
ATOM      3  C3  <0> d           1.476   3.080   0.221  0.00  0.00     0.025 C 
ATOM      4  H1  <0> d           1.875   3.455   1.164  0.00  0.00     0.054 H 
ATOM      5  C4  <0> d           1.461   1.578   0.248  0.00  0.00     0.221 C 
ATOM      6  O1  <0> d           2.507   0.990   0.073  0.00  0.00    -0.273 OA
ATOM      7  N1  <0> d           0.358   0.857   0.455  0.00  0.00    -0.361 N 
ATOM      8  C5  <0> d          -0.972   1.429   0.628  0.00  0.00    -0.005 C 
ATOM      9  H2  <0> d          -0.460   2.993   2.026  0.00  0.00     0.035 H 
ATOM     10  H3  <0> d          -1.861   3.360   0.986  0.00  0.00     0.035 H 
ATOM     11  H4  <0> d           0.037   4.687   0.204  0.00  0.00     0.034 H 
ATOM     12  H5  <0> d          -0.276   3.406  -0.995  0.00  0.00     0.034 H 
ATOM     13  H6  <0> d           0.446  -0.108   0.489  0.00  0.00     0.162 HD
ATOM     14  H7  <0> d          -1.527   1.337  -0.305  0.00  0.00     0.064 H 
ATOM     15  H8  <0> d          -1.498   0.884   1.412  0.00  0.00     0.064 H 
ENDROOT
BRANCH   3  16
ATOM     16  C6  <0> d           2.362   3.558  -0.931  0.00  0.00    -0.034 C 
ATOM     17  H9  <0> d           3.349   3.106  -0.843  0.00  0.00     0.037 H 
ATOM     18  H10 <0> d           1.912   3.266  -1.880  0.00  0.00     0.037 H 
BRANCH  16  19
ATOM     19  C7  <0> d           2.492   5.082  -0.876  0.00  0.00     0.018 C 
ATOM     20  H11 <0> d           1.517   5.536  -1.056  0.00  0.00     0.074 H 
ATOM     21  H12 <0> d           2.856   5.380   0.107  0.00  0.00     0.074 H 
BRANCH  19  22
ATOM     22  O2  <0> d           3.413   5.518  -1.878  0.00  0.00    -0.401 OA
ATOM     23  H13 <0> d           3.545   6.476  -1.901  0.00  0.00     0.209 HD
ENDBRANCH  19  22
ENDBRANCH  16  19
ENDBRANCH   3  16
TORSDOF 3
