REMARK  2 active torsions:
REMARK  status: ('A' for Active; 'I' for Inactive)
REMARK    1  A    between atoms: C2_2  and  N2_10 
REMARK    2  A    between atoms: C5_5  and  N1_8 
ROOT
ATOM      1  C1  <0> d          -0.017   1.379   0.010  0.00  0.00    -0.018 A 
ATOM      2  C2  <0> d           1.176   2.090   0.002  0.00  0.00     0.031 A 
ATOM      3  C3  <0> d           2.388   1.413  -0.014  0.00  0.00    -0.018 A 
ATOM      4  C4  <0> d           2.408   0.030  -0.022  0.00  0.00     0.147 A 
ATOM      5  C5  <0> d           1.215  -0.682  -0.014  0.00  0.00     0.104 A 
ATOM      6  C6  <0> d           0.002  -0.004   0.002  0.00  0.00     0.147 A 
ATOM      7  F1  <0> d          -1.159  -0.696   0.010  0.00  0.00    -0.204 F 
ATOM      8  F2  <0> d           3.588  -0.629  -0.038  0.00  0.00    -0.204 F 
ATOM      9  H1  <0> d          -0.959   1.906   0.026  0.00  0.00     0.091 H 
ATOM     10  H2  <0> d           3.316   1.966  -0.020  0.00  0.00     0.091 H 
ENDROOT
BRANCH   2  11
ATOM     11  N2  <0> d           1.157   3.489   0.010  0.00  0.00    -0.399 N 
ATOM     12  H5  <0> d           0.310   3.962   0.020  0.00  0.00     0.156 HD
ATOM     13  H6  <0> d           1.990   3.986   0.004  0.00  0.00     0.156 HD
ENDBRANCH   2  11
BRANCH   5  14
ATOM     14  N1  <0> d           1.234  -2.085  -0.022  0.00  0.00    -0.394 N 
ATOM     15  H3  <0> d           2.081  -2.559  -0.034  0.00  0.00     0.156 HD
ATOM     16  H4  <0> d           0.401  -2.582  -0.017  0.00  0.00     0.156 HD
ENDBRANCH   5  14
TORSDOF 2
