REMARK  2 active torsions:
REMARK  status: ('A' for Active; 'I' for Inactive)
REMARK    1  A    between atoms: C1_1  and  N1_2 
REMARK    2  A    between atoms: N1_2  and  C2_3 
ROOT
ATOM      1  C2  <0> d          -0.841   2.913   1.440  0.00  0.00     0.721 A 
ATOM      2  N2  <0> d          -0.345   3.769   0.557  0.00  0.00    -0.074 NA
ATOM      3  C3  <0> d          -0.465   5.071   0.735  0.00  0.00     0.042 A 
ATOM      4  C4  <0> d          -1.118   5.543   1.882  0.00  0.00     0.080 A 
ATOM      5  C5  <0> d          -1.622   4.605   2.792  0.00  0.00     0.042 A 
ATOM      6  N3  <0> d          -1.465   3.319   2.538  0.00  0.00    -0.074 NA
ATOM      7  C6  <0> d          -1.266   6.948   2.117  0.00  0.00     0.102 C 
ATOM      8  N4  <0> d          -1.383   8.062   2.304  0.00  0.00    -0.191 NA
ATOM      9  H5  <0> d          -0.063   5.763   0.010  0.00  0.00     0.118 H 
ATOM     10  H6  <0> d          -2.131   4.929   3.688  0.00  0.00     0.118 H 
ENDROOT
BRANCH   1  11
ATOM     11  N1  <0> d          -0.698   1.558   1.213  0.00  0.00    -0.227 N 
ATOM     12  H4  <0> d          -1.100   0.834   1.937  0.00  0.00     0.177 HD
BRANCH  11  13
ATOM     13  C1  <0> d          -0.013   1.086   0.008  0.00  0.00    -0.005 C 
ATOM     14  H1  <0> d           0.002  -0.014   0.002  0.00  0.00     0.057 H 
ATOM     15  H2  <0> d           1.019   1.466   0.000  0.00  0.00     0.057 H 
ATOM     16  H3  <0> d          -0.545   1.450  -0.883  0.00  0.00     0.057 H 
ENDBRANCH  11  13
ENDBRANCH   1  11
TORSDOF 2
