REMARK  9 active torsions:
REMARK  status: ('A' for Active; 'I' for Inactive)
REMARK    1  A    between atoms: C1_1  and  C2_2 
REMARK    2  A    between atoms: C2_2  and  C3_3 
REMARK    3  A    between atoms: C2_2  and  C4_4 
REMARK    4  A    between atoms: C4_4  and  O1_5 
REMARK    5  A    between atoms: C4_4  and  O2_7 
REMARK    6  A    between atoms: C4_4  and  O3_9 
REMARK    7  A    between atoms: O1_5  and  C5_6 
REMARK    8  A    between atoms: O2_7  and  C6_8 
REMARK    9  A    between atoms: O3_9  and  C7_10 
ROOT
ATOM      1  C4  <0> d           0.538   1.425   0.298  0.00  0.00     0.284 C 
ENDROOT
BRANCH   1   2
ATOM      2  C2  <0> d           0.492  -0.090   0.508  0.00  0.00     0.020 C 
ATOM      3  H4  <0> d           1.352  -0.551   0.022  0.00  0.00     0.051 H 
BRANCH   2   4
ATOM      4  C1  <0> d           0.527  -0.398   2.006  0.00  0.00    -0.066 C 
ATOM      5  H1  <0> d          -0.333   0.062   2.492  0.00  0.00     0.028 H 
ATOM      6  H2  <0> d           0.494  -1.478   2.156  0.00  0.00     0.028 H 
ATOM      7  H3  <0> d           1.445   0.000   2.438  0.00  0.00     0.028 H 
ENDBRANCH   2   4
BRANCH   2   8
ATOM      8  C3  <0> d          -0.796  -0.650  -0.098  0.00  0.00    -0.066 C 
ATOM      9  H5  <0> d          -0.821  -0.430  -1.165  0.00  0.00     0.028 H 
ATOM     10  H6  <0> d          -0.830  -1.729   0.052  0.00  0.00     0.028 H 
ATOM     11  H7  <0> d          -1.657  -0.189   0.388  0.00  0.00     0.028 H 
ENDBRANCH   2   8
ENDBRANCH   1   2
BRANCH   1  12
ATOM     12  O1  <0> d           1.742   1.948   0.864  0.00  0.00    -0.338 OA
BRANCH  12  13
ATOM     13  C5  <0> d           2.935   1.445   0.259  0.00  0.00     0.010 C 
ATOM     14  H8  <0> d           3.046   0.387   0.498  0.00  0.00     0.066 H 
ATOM     15  H9  <0> d           2.874   1.568  -0.822  0.00  0.00     0.066 H 
ATOM     16  H10 <0> d           3.795   1.995   0.640  0.00  0.00     0.066 H 
ENDBRANCH  12  13
ENDBRANCH   1  12
BRANCH   1  17
ATOM     17  O2  <0> d           0.506   1.713  -1.101  0.00  0.00    -0.338 OA
BRANCH  17  18
ATOM     18  C6  <0> d           0.714   3.091  -1.416  0.00  0.00     0.010 C 
ATOM     19  H11 <0> d           0.609   3.238  -2.491  0.00  0.00     0.066 H 
ATOM     20  H12 <0> d          -0.023   3.699  -0.892  0.00  0.00     0.066 H 
ATOM     21  H13 <0> d           1.716   3.387  -1.105  0.00  0.00     0.066 H 
ENDBRANCH  17  18
ENDBRANCH   1  17
BRANCH   1  22
ATOM     22  O3  <0> d          -0.589   2.029   0.935  0.00  0.00    -0.338 OA
BRANCH  22  23
ATOM     23  C7  <0> d          -0.606   3.455   0.855  0.00  0.00     0.010 C 
ATOM     24  H14 <0> d           0.411   3.825   0.728  0.00  0.00     0.066 H 
ATOM     25  H15 <0> d          -1.214   3.765   0.005  0.00  0.00     0.066 H 
ATOM     26  H16 <0> d          -1.029   3.866   1.772  0.00  0.00     0.066 H 
ENDBRANCH  22  23
ENDBRANCH   1  22
TORSDOF 9
