REMARK  1 active torsions:
REMARK  status: ('A' for Active; 'I' for Inactive)
REMARK    1  A    between atoms: C10_10  and  O1_11 
ROOT
ATOM      1  C1  <0> d          -0.729   1.579   1.267  0.00  0.00    -0.058 C 
ATOM      2  C2  <0> d          -0.013   1.086   0.008  0.00  0.00    -0.053 C 
ATOM      3  C3  <0> d          -0.753   1.593  -1.232  0.00  0.00    -0.056 C 
ATOM      4  C4  <0> d          -0.773   3.123  -1.223  0.00  0.00    -0.028 C 
ATOM      5  C5  <0> d          -1.490   3.616   0.036  0.00  0.00    -0.056 C 
ATOM      6  C6  <0> d          -0.750   3.109   1.275  0.00  0.00    -0.053 C 
ATOM      7  C7  <0> d           0.686   3.639   1.264  0.00  0.00    -0.056 C 
ATOM      8  C8  <0> d           1.402   3.145   0.006  0.00  0.00    -0.028 C 
ATOM      9  C9  <0> d           1.423   1.615  -0.003  0.00  0.00    -0.056 C 
ATOM     10  C10 <0> d           0.662   3.652  -1.234  0.00  0.00     0.042 C 
ATOM     11  H1  <0> d          -1.751   1.202   1.275  0.00  0.00     0.034 H 
ATOM     12  H2  <0> d          -0.202   1.218   2.150  0.00  0.00     0.034 H 
ATOM     13  H3  <0> d           0.002  -0.004   0.002  0.00  0.00     0.040 H 
ATOM     14  H4  <0> d          -0.242   1.241  -2.128  0.00  0.00     0.034 H 
ATOM     15  H5  <0> d          -1.775   1.215  -1.224  0.00  0.00     0.034 H 
ATOM     16  H6  <0> d          -1.301   3.484  -2.106  0.00  0.00     0.043 H 
ATOM     17  H7  <0> d          -2.512   3.239   0.043  0.00  0.00     0.034 H 
ATOM     18  H8  <0> d          -1.504   4.706   0.042  0.00  0.00     0.034 H 
ATOM     19  H9  <0> d          -1.260   3.461   2.172  0.00  0.00     0.040 H 
ATOM     20  H10 <0> d           1.213   3.278   2.147  0.00  0.00     0.034 H 
ATOM     21  H11 <0> d           0.671   4.729   1.270  0.00  0.00     0.034 H 
ATOM     22  H12 <0> d           2.425   3.522  -0.002  0.00  0.00     0.043 H 
ATOM     23  H13 <0> d           1.950   1.254   0.880  0.00  0.00     0.034 H 
ATOM     24  H14 <0> d           1.933   1.264  -0.900  0.00  0.00     0.034 H 
ATOM     25  H15 <0> d           1.172   3.300  -2.131  0.00  0.00     0.084 H 
ENDROOT
BRANCH  10  26
ATOM     26  O1  <0> d           0.643   5.081  -1.226  0.00  0.00    -0.395 OA
ATOM     27  H16 <0> d           0.188   5.472  -1.985  0.00  0.00     0.210 HD
ENDBRANCH  10  26
TORSDOF 1
