REMARK  4 active torsions:
REMARK  status: ('A' for Active; 'I' for Inactive)
REMARK    1  A    between atoms: C2_2  and  C3_3 
REMARK    2  A    between atoms: C3_3  and  C4_4 
REMARK    3  A    between atoms: C7_7  and  C10_10 
REMARK    4  A    between atoms: C10_10  and  O1_11 
ROOT
ATOM      1  C1  <0> d           0.018  -1.178  -0.004  0.00  0.00    -0.154 C 
ATOM      2  C2  <0> d           0.002  -0.004   0.002  0.00  0.00    -0.117 C 
ATOM      3  H1  <0> d           0.032  -2.228  -0.010  0.00  0.00     0.166 H 
ENDROOT
BRANCH   2   4
ATOM      4  C3  <0> d          -0.018   1.468   0.010  0.00  0.00    -0.007 C 
ATOM      5  H2  <0> d          -0.545   1.829  -0.873  0.00  0.00     0.052 H 
ATOM      6  H3  <0> d          -0.528   1.819   0.907  0.00  0.00     0.052 H 
BRANCH   4   7
ATOM      7  C4  <0> d           1.417   1.997  -0.001  0.00  0.00    -0.044 C 
ATOM      8  C9  <0> d           1.397   3.523  -0.118  0.00  0.00    -0.060 C 
ATOM      9  C8  <0> d           2.833   4.052  -0.129  0.00  0.00    -0.059 C 
ATOM     10  H12 <0> d           0.897   3.809  -1.043  0.00  0.00     0.033 H 
ATOM     11  H13 <0> d           0.861   3.945   0.731  0.00  0.00     0.033 H 
ATOM     12  C7  <0> d           3.535   3.650   1.170  0.00  0.00    -0.034 C 
ATOM     13  H10 <0> d           2.818   5.139  -0.213  0.00  0.00     0.033 H 
ATOM     14  H11 <0> d           3.370   3.630  -0.978  0.00  0.00     0.033 H 
ATOM     15  C6  <0> d           3.555   2.124   1.287  0.00  0.00    -0.059 C 
ATOM     16  H9  <0> d           2.998   4.073   2.019  0.00  0.00     0.043 H 
ATOM     17  C5  <0> d           2.119   1.595   1.298  0.00  0.00    -0.060 C 
ATOM     18  H7  <0> d           4.055   1.838   2.212  0.00  0.00     0.033 H 
ATOM     19  H8  <0> d           4.092   1.702   0.438  0.00  0.00     0.033 H 
ATOM     20  H5  <0> d           1.583   2.018   2.147  0.00  0.00     0.033 H 
ATOM     21  H6  <0> d           2.134   0.508   1.381  0.00  0.00     0.033 H 
ATOM     22  H4  <0> d           1.954   1.575  -0.850  0.00  0.00     0.041 H 
BRANCH  12  23
ATOM     23  C10 <0> d           4.970   4.179   1.159  0.00  0.00     0.020 C 
ATOM     24  H14 <0> d           5.497   3.818   2.042  0.00  0.00     0.074 H 
ATOM     25  H15 <0> d           5.480   3.828   0.262  0.00  0.00     0.074 H 
BRANCH  23  26
ATOM     26  O1  <0> d           4.951   5.608   1.167  0.00  0.00    -0.400 OA
ATOM     27  H16 <0> d           5.829   6.014   1.160  0.00  0.00     0.209 HD
ENDBRANCH  23  26
ENDBRANCH  12  23
ENDBRANCH   4   7
ENDBRANCH   2   4
TORSDOF 4
