REMARK  1 active torsions:
REMARK  status: ('A' for Active; 'I' for Inactive)
REMARK    1  A    between atoms: C1_1  and  C2_2 
ROOT
ATOM      1  C2  <0> d           0.002  -0.004   0.002  0.00  0.00     0.008 A 
ATOM      2  C3  <0> d           0.008  -0.769  -1.103  0.00  0.00    -0.032 A 
ATOM      3  C4  <0> d           0.030  -2.164  -0.659  0.00  0.00     0.085 A 
ATOM      4  C5  <0> d           0.035  -2.120   0.748  0.00  0.00     0.061 A 
ATOM      5  N1  <0> d           0.023  -0.794   1.117  0.00  0.00    -0.358 N 
ATOM      6  H1  <0> d           0.027  -0.469   2.030  0.00  0.00     0.166 HD
ATOM      7  C6  <0> d           0.056  -3.316   1.460  0.00  0.00    -0.053 A 
ATOM      8  C7  <0> d           0.070  -4.502   0.748  0.00  0.00    -0.064 A 
ATOM      9  C8  <0> d           0.064  -4.471  -0.638  0.00  0.00     0.003 A 
ATOM     10  N2  <0> d           0.043  -3.332  -1.296  0.00  0.00    -0.259 NA
ATOM     11  H5  <0> d          -0.002  -0.421  -2.125  0.00  0.00     0.090 H 
ATOM     12  H6  <0> d           0.061  -3.318   2.539  0.00  0.00     0.087 H 
ATOM     13  H7  <0> d           0.087  -5.448   1.269  0.00  0.00     0.085 H 
ATOM     14  H8  <0> d           0.075  -5.400  -1.189  0.00  0.00     0.114 H 
ENDROOT
BRANCH   1  15
ATOM     15  C1  <0> d          -0.018   1.503   0.010  0.00  0.00    -0.037 C 
ATOM     16  H2  <0> d           1.004   1.880   0.003  0.00  0.00     0.035 H 
ATOM     17  H3  <0> d          -0.545   1.864  -0.873  0.00  0.00     0.035 H 
ATOM     18  H4  <0> d          -0.529   1.854   0.907  0.00  0.00     0.035 H 
ENDBRANCH   1  15
TORSDOF 1
