REMARK  2 active torsions:
REMARK  status: ('A' for Active; 'I' for Inactive)
REMARK    1  A    between atoms: C1_1  and  C2_2 
REMARK    2  A    between atoms: C4_5  and  N3_8 
ROOT
ATOM      1  C2  <0> d           0.002  -0.004   0.002  0.00  0.00     0.038 A 
ATOM      2  C3  <0> d           0.009  -0.798  -1.082  0.00  0.00     0.016 A 
ATOM      3  N1  <0> d           0.028  -2.077  -0.669  0.00  0.00    -0.200 N 
ATOM      4  C4  <0> d           0.035  -2.109   0.642  0.00  0.00     0.675 A 
ATOM      5  N2  <0> d           0.024  -0.829   1.104  0.00  0.00    -0.195 N 
ATOM      6  H1  <0> d           0.028  -0.551   2.033  0.00  0.00     0.184 HD
ATOM      7  H5  <0> d          -0.001  -0.465  -2.110  0.00  0.00     0.115 H 
ATOM      8  H8  <0> d           0.036  -2.854  -1.250  0.00  0.00     0.183 HD
ENDROOT
BRANCH   1   9
ATOM      9  C1  <0> d          -0.018   1.503   0.010  0.00  0.00    -0.036 C 
ATOM     10  H2  <0> d           1.004   1.880   0.003  0.00  0.00     0.035 H 
ATOM     11  H3  <0> d          -0.545   1.864  -0.873  0.00  0.00     0.035 H 
ATOM     12  H4  <0> d          -0.529   1.854   0.907  0.00  0.00     0.035 H 
ENDBRANCH   1   9
BRANCH   4  13
ATOM     13  N3  <0> d           0.053  -3.252   1.424  0.00  0.00    -0.234 N 
ATOM     14  H6  <0> d           0.064  -4.126   1.005  0.00  0.00     0.174 HD
ATOM     15  H7  <0> d           0.056  -3.178   2.392  0.00  0.00     0.174 HD
ENDBRANCH   4  13
TORSDOF 2
