REMARK  3 active torsions:
REMARK  status: ('A' for Active; 'I' for Inactive)
REMARK    1  A    between atoms: C1_1  and  C2_2 
REMARK    2  A    between atoms: C2_2  and  C3_3 
REMARK    3  A    between atoms: C8_8  and  C9_9 
ROOT
ATOM      1  C3  <0> d           3.664   1.447  -0.130  0.00  0.00    -0.042 A 
ATOM      2  C4  <0> d           4.822   0.701  -0.209  0.00  0.00    -0.076 A 
ATOM      3  C5  <0> d           4.768  -0.678  -0.111  0.00  0.00    -0.082 A 
ATOM      4  C6  <0> d           3.554  -1.318   0.067  0.00  0.00    -0.082 A 
ATOM      5  C7  <0> d           2.389  -0.584   0.152  0.00  0.00    -0.066 A 
ATOM      6  C8  <0> d           2.436   0.807   0.049  0.00  0.00     0.047 A 
ATOM      7  H6  <0> d           5.772   1.195  -0.347  0.00  0.00     0.084 H 
ATOM      8  H7  <0> d           5.677  -1.257  -0.172  0.00  0.00     0.083 H 
ATOM      9  H8  <0> d           3.519  -2.395   0.144  0.00  0.00     0.083 H 
ATOM     10  H9  <0> d           1.443  -1.085   0.295  0.00  0.00     0.085 H 
ENDROOT
BRANCH   1  11
ATOM     11  C2  <0> d           3.724   2.949  -0.237  0.00  0.00    -0.043 C 
ATOM     12  H4  <0> d           3.055   3.393   0.499  0.00  0.00     0.039 H 
ATOM     13  H5  <0> d           4.744   3.286  -0.050  0.00  0.00     0.039 H 
BRANCH  11  14
ATOM     14  C1  <0> d           3.295   3.379  -1.641  0.00  0.00    -0.073 C 
ATOM     15  H1  <0> d           3.965   2.935  -2.378  0.00  0.00     0.028 H 
ATOM     16  H2  <0> d           2.275   3.042  -1.828  0.00  0.00     0.028 H 
ATOM     17  H3  <0> d           3.339   4.465  -1.718  0.00  0.00     0.028 H 
ENDBRANCH  11  14
ENDBRANCH   1  11
BRANCH   6  18
ATOM     18  C9  <0> d           1.192   1.600   0.134  0.00  0.00     0.209 C 
ATOM     19  O1  <0> d           1.244   2.813   0.144  0.00  0.00    -0.644 OA
ATOM     20  O2  <0> d          -0.000   0.977   0.201  0.00  0.00    -0.644 OA
ENDBRANCH   6  18
TORSDOF 3
