REMARK  6 active torsions:
REMARK  status: ('A' for Active; 'I' for Inactive)
REMARK    1  A    between atoms: C1_1  and  C2_2 
REMARK    2  A    between atoms: C2_2  and  N1_3 
REMARK    3  A    between atoms: N1_3  and  C3_4 
REMARK    4  A    between atoms: N1_3  and  C5_6 
REMARK    5  A    between atoms: C3_4  and  C4_5 
REMARK    6  A    between atoms: C6_7  and  C7_8 
ROOT
ATOM      1  C7  <0> d          -2.029  -0.785   3.615  0.00  0.00    -0.088 C 
ATOM      2  C8  <0> d          -2.570  -0.994   4.636  0.00  0.00    -0.150 C 
ATOM      3  H13 <0> d          -3.054  -1.181   5.549  0.00  0.00     0.166 H 
ENDROOT
BRANCH   1   4
ATOM      4  C6  <0> d          -1.369  -0.531   2.370  0.00  0.00    -0.019 C 
ATOM      5  C5  <0> d          -2.009  -0.757   1.214  0.00  0.00    -0.018 C 
ATOM      6  H11 <0> d          -3.022  -1.131   1.221  0.00  0.00     0.111 H 
ATOM      7  H12 <0> d          -0.356  -0.157   2.362  0.00  0.00     0.099 H 
BRANCH   5   8
ATOM      8  N1  <0> d          -1.372  -0.511   0.012  0.00  0.00    -0.390 N 
BRANCH   8   9
ATOM      9  C2  <0> d           0.002  -0.004   0.002  0.00  0.00    -0.009 C 
ATOM     10  H4  <0> d           0.512  -0.356  -0.895  0.00  0.00     0.063 H 
ATOM     11  H5  <0> d           0.529  -0.365   0.885  0.00  0.00     0.063 H 
BRANCH   9  12
ATOM     12  C1  <0> d          -0.019   1.526   0.010  0.00  0.00    -0.061 C 
ATOM     13  H1  <0> d           1.004   1.903   0.003  0.00  0.00     0.029 H 
ATOM     14  H2  <0> d          -0.546   1.887  -0.873  0.00  0.00     0.029 H 
ATOM     15  H3  <0> d          -0.529   1.877   0.907  0.00  0.00     0.029 H 
ENDBRANCH   9  12
ENDBRANCH   8   9
BRANCH   8  16
ATOM     16  C3  <0> d          -2.072  -0.758  -1.251  0.00  0.00    -0.009 C 
ATOM     17  H6  <0> d          -3.142  -0.606  -1.110  0.00  0.00     0.063 H 
ATOM     18  H7  <0> d          -1.704  -0.068  -2.010  0.00  0.00     0.063 H 
BRANCH  16  19
ATOM     19  C4  <0> d          -1.816  -2.197  -1.703  0.00  0.00    -0.061 C 
ATOM     20  H8  <0> d          -2.336  -2.381  -2.643  0.00  0.00     0.029 H 
ATOM     21  H9  <0> d          -0.746  -2.349  -1.844  0.00  0.00     0.029 H 
ATOM     22  H10 <0> d          -2.183  -2.887  -0.943  0.00  0.00     0.029 H 
ENDBRANCH  16  19
ENDBRANCH   8  16
ENDBRANCH   5   8
ENDBRANCH   1   4
TORSDOF 6
