REMARK  5 active torsions:
REMARK  status: ('A' for Active; 'I' for Inactive)
REMARK    1  A    between atoms: C1_1  and  C2_2 
REMARK    2  A    between atoms: C2_2  and  O1_3 
REMARK    3  A    between atoms: O1_3  and  C3_4 
REMARK    4  A    between atoms: C4_5  and  C5_6 
REMARK    5  A    between atoms: C4_5  and  C6_7 
ROOT
ATOM      1  C6  <0> d           1.502  -3.720  -2.585  0.00  0.00    -0.081 C 
ATOM      2  C7  <0> d           1.594  -4.882  -2.726  0.00  0.00    -0.149 C 
ATOM      3  H10 <0> d           1.675  -5.921  -2.851  0.00  0.00     0.166 H 
ENDROOT
BRANCH   1   4
ATOM      4  C4  <0> d           1.391  -2.302  -2.414  0.00  0.00     0.012 C 
ATOM      5  C3  <0> d           0.776  -1.806  -1.336  0.00  0.00     0.026 C 
ATOM      6  H6  <0> d           0.364  -2.473  -0.594  0.00  0.00     0.124 H 
BRANCH   5   7
ATOM      7  O1  <0> d           0.671  -0.465  -1.174  0.00  0.00    -0.362 OA
BRANCH   7   8
ATOM      8  C2  <0> d           0.002  -0.004   0.002  0.00  0.00     0.022 C 
ATOM      9  H4  <0> d           0.529  -0.365   0.885  0.00  0.00     0.074 H 
ATOM     10  H5  <0> d          -1.020  -0.381   0.010  0.00  0.00     0.074 H 
BRANCH   8  11
ATOM     11  C1  <0> d          -0.019   1.526   0.010  0.00  0.00    -0.056 C 
ATOM     12  H1  <0> d           1.004   1.903   0.003  0.00  0.00     0.030 H 
ATOM     13  H2  <0> d          -0.546   1.887  -0.873  0.00  0.00     0.030 H 
ATOM     14  H3  <0> d          -0.529   1.877   0.907  0.00  0.00     0.030 H 
ENDBRANCH   8  11
ENDBRANCH   7   8
ENDBRANCH   5   7
BRANCH   4  15
ATOM     15  C5  <0> d           1.966  -1.371  -3.450  0.00  0.00    -0.042 C 
ATOM     16  H7  <0> d           2.999  -1.137  -3.194  0.00  0.00     0.034 H 
ATOM     17  H8  <0> d           1.933  -1.850  -4.428  0.00  0.00     0.034 H 
ATOM     18  H9  <0> d           1.381  -0.451  -3.476  0.00  0.00     0.034 H 
ENDBRANCH   4  15
ENDBRANCH   1   4
TORSDOF 5
