REMARK  2 active torsions:
REMARK  status: ('A' for Active; 'I' for Inactive)
REMARK    1  A    between atoms: C1_1  and  C2_2 
REMARK    2  A    between atoms: C4_4  and  N1_9 
ROOT
ATOM      1  C2  <0> d          -3.629   1.615   0.029  0.00  0.00    -0.021 A 
ATOM      2  C3  <0> d          -2.425   0.939   0.019  0.00  0.00    -0.049 A 
ATOM      3  C4  <0> d          -1.231   1.648   0.017  0.00  0.00     0.026 A 
ATOM      4  C5  <0> d          -1.251   3.037   0.030  0.00  0.00    -0.055 A 
ATOM      5  C6  <0> d          -2.458   3.709   0.034  0.00  0.00    -0.043 A 
ATOM      6  C7  <0> d          -3.647   3.000   0.036  0.00  0.00     0.122 A 
ATOM      7  F1  <0> d          -4.826   3.659   0.045  0.00  0.00    -0.206 F 
ATOM      8  H4  <0> d          -2.412  -0.141   0.013  0.00  0.00     0.087 H 
ATOM      9  H5  <0> d          -0.324   3.591   0.033  0.00  0.00     0.087 H 
ATOM     10  H6  <0> d          -2.474   4.789   0.040  0.00  0.00     0.088 H 
ENDROOT
BRANCH   1  11
ATOM     11  C1  <0> d          -4.925   0.846   0.030  0.00  0.00    -0.048 C 
ATOM     12  H1  <0> d          -5.232   0.654   1.059  0.00  0.00     0.033 H 
ATOM     13  H2  <0> d          -5.694   1.429  -0.476  0.00  0.00     0.033 H 
ATOM     14  H3  <0> d          -4.786  -0.102  -0.489  0.00  0.00     0.033 H 
ENDBRANCH   1  11
BRANCH   3  15
ATOM     15  N1  <0> d          -0.011   0.966   0.007  0.00  0.00    -0.399 N 
ATOM     16  H7  <0> d           0.002  -0.004   0.002  0.00  0.00     0.156 HD
ATOM     17  H8  <0> d           0.822   1.462   0.002  0.00  0.00     0.156 HD
ENDBRANCH   3  15
TORSDOF 2
