REMARK  2 active torsions:
REMARK  status: ('A' for Active; 'I' for Inactive)
REMARK    1  A    between atoms: C4_4  and  C7_7 
REMARK    2  A    between atoms: C7_7  and  N2_11 
ROOT
ATOM      1  C7  <0> d           0.002  -0.004   0.002  0.00  0.00     0.237 C 
ATOM      2  H1  <0> d           0.970  -0.380  -0.363  0.00  0.00     0.119 H 
ATOM      3  C8  <0> d          -0.219  -0.505   1.368  0.00  0.00     0.100 C 
ATOM      4  N1  <0> d          -0.390  -0.892   2.423  0.00  0.00    -0.195 NA
ENDROOT
BRANCH   1   5
ATOM      5  C4  <0> d          -0.018   1.503   0.010  0.00  0.00    -0.012 A 
ATOM      6  C3  <0> d           1.169   2.210   0.003  0.00  0.00    -0.074 A 
ATOM      7  C2  <0> d           1.151   3.592   0.010  0.00  0.00    -0.082 A 
ATOM      8  H4  <0> d           2.112   1.683  -0.009  0.00  0.00     0.084 H 
ATOM      9  C1  <0> d          -0.056   4.267   0.025  0.00  0.00    -0.083 A 
ATOM     10  H3  <0> d           2.078   4.145   0.005  0.00  0.00     0.083 H 
ATOM     11  C6  <0> d          -1.244   3.560   0.032  0.00  0.00    -0.082 A 
ATOM     12  H2  <0> d          -0.070   5.347   0.032  0.00  0.00     0.083 H 
ATOM     13  C5  <0> d          -1.225   2.178   0.020  0.00  0.00    -0.074 A 
ATOM     14  H6  <0> d          -2.186   4.087   0.044  0.00  0.00     0.083 H 
ATOM     15  H5  <0> d          -2.153   1.625   0.021  0.00  0.00     0.084 H 
ENDBRANCH   1   5
BRANCH   1  16
ATOM     16  N2  <0> d          -1.061  -0.503  -0.881  0.00  0.00     0.100 N 
ATOM     17  H7  <0> d          -1.046  -1.603  -0.887  0.00  0.00     0.315 HD
ATOM     18  H8  <0> d          -2.037  -0.152  -0.515  0.00  0.00     0.315 HD
ENDBRANCH   1  16
TORSDOF 2
