REMARK  0 active torsions:
REMARK  status: ('A' for Active; 'I' for Inactive)
ROOT
ATOM      1  C1  <0> d          -0.017   1.388   0.010  0.00  0.00    -0.052 A 
ATOM      2  C2  <0> d           1.275   1.806  -0.000  0.00  0.00    -0.021 A 
ATOM      3  N1  <0> d           2.101   0.722  -0.013  0.00  0.00    -0.361 N 
ATOM      4  H1  <0> d           3.070   0.753  -0.024  0.00  0.00     0.165 HD
ATOM      5  C3  <0> d           1.355  -0.400  -0.006  0.00  0.00     0.114 A 
ATOM      6  C4  <0> d           0.002  -0.004   0.002  0.00  0.00     0.045 A 
ATOM      7  C5  <0> d          -1.052  -1.031  -0.007  0.00  0.00     0.179 C 
ATOM      8  O1  <0> d          -2.172  -0.809   0.401  0.00  0.00    -0.290 OA
ATOM      9  C6  <0> d          -0.649  -2.385  -0.560  0.00  0.00     0.055 C 
ATOM     10  N2  <0> d           0.716  -2.730  -0.181  0.00  0.00    -0.348 N 
ATOM     11  C7  <0> d           1.704  -1.829  -0.000  0.00  0.00     0.269 C 
ATOM     12  O2  <0> d           2.854  -2.190   0.164  0.00  0.00    -0.266 OA
ATOM     13  H2  <0> d          -0.894   2.017   0.025  0.00  0.00     0.087 H 
ATOM     14  H3  <0> d           1.597   2.837   0.001  0.00  0.00     0.111 H 
ATOM     15  H4  <0> d          -1.329  -3.145  -0.174  0.00  0.00     0.076 H 
ATOM     16  H5  <0> d          -0.722  -2.362  -1.647  0.00  0.00     0.076 H 
ATOM     17  H6  <0> d           0.927  -3.668  -0.050  0.00  0.00     0.163 HD
ENDROOT
TORSDOF 0
