REMARK  2 active torsions:
REMARK  status: ('A' for Active; 'I' for Inactive)
REMARK    1  A    between atoms: C1_1  and  C2_2 
REMARK    2  A    between atoms: N2_5  and  C5_7 
ROOT
ATOM      1  C2  <0> d          -1.157   1.881   0.017  0.00  0.00    -0.026 A 
ATOM      2  C3  <0> d          -0.013   1.076   0.008  0.00  0.00     0.029 A 
ATOM      3  N1  <0> d           1.037   1.857   0.002  0.00  0.00    -0.185 NA
ATOM      4  N2  <0> d           0.593   3.186   0.013  0.00  0.00    -0.285 N 
ATOM      5  C4  <0> d          -0.756   3.173   0.025  0.00  0.00     0.005 A 
ATOM      6  H4  <0> d           0.002  -0.004   0.002  0.00  0.00     0.118 H 
ATOM      7  H5  <0> d          -1.401   4.039   0.036  0.00  0.00     0.115 H 
ENDROOT
BRANCH   1   8
ATOM      8  C1  <0> d          -2.583   1.394   0.020  0.00  0.00    -0.049 C 
ATOM      9  H1  <0> d          -2.923   1.271   1.048  0.00  0.00     0.033 H 
ATOM     10  H2  <0> d          -3.216   2.122  -0.488  0.00  0.00     0.033 H 
ATOM     11  H3  <0> d          -2.641   0.437  -0.499  0.00  0.00     0.033 H 
ENDBRANCH   1   8
BRANCH   4  12
ATOM     12  C5  <0> d           1.444   4.379   0.011  0.00  0.00     0.002 C 
ATOM     13  H6  <0> d           1.645   4.680  -1.017  0.00  0.00     0.059 H 
ATOM     14  H7  <0> d           0.935   5.189   0.534  0.00  0.00     0.059 H 
ATOM     15  H8  <0> d           2.384   4.155   0.515  0.00  0.00     0.059 H 
ENDBRANCH   4  12
TORSDOF 2
