REMARK  1 active torsions:
REMARK  status: ('A' for Active; 'I' for Inactive)
REMARK    1  A    between atoms: C4_5  and  C5_6 
ROOT
ATOM      1  C5  <0> d          -0.013   1.086   0.008  0.00  0.00     0.039 C 
ATOM      2  C6  <0> d          -0.725   1.573  -1.185  0.00  0.00     0.063 C 
ATOM      3  N1  <0> d          -1.274   1.950  -2.105  0.00  0.00    -0.197 NA
ATOM      4  H4  <0> d           0.002  -0.004   0.002  0.00  0.00     0.062 H 
ATOM      5  H5  <0> d           1.010   1.463   0.000  0.00  0.00     0.062 H 
ENDROOT
BRANCH   1   6
ATOM      6  C4  <0> d          -0.718   1.572   1.248  0.00  0.00    -0.038 A 
ATOM      7  C1  <0> d          -0.368   2.777   1.827  0.00  0.00    -0.069 A 
ATOM      8  C2  <0> d          -1.027   3.188   2.938  0.00  0.00    -0.045 A 
ATOM      9  H1  <0> d           0.414   3.385   1.397  0.00  0.00     0.085 H 
ATOM     10  S1  <0> d          -2.172   1.845   3.207  0.00  0.00    -0.113 SA
ATOM     11  H2  <0> d          -0.890   4.091   3.515  0.00  0.00     0.095 H 
ATOM     12  C3  <0> d          -1.701   0.831   1.815  0.00  0.00    -0.038 A 
ATOM     13  H3  <0> d          -2.096  -0.126   1.506  0.00  0.00     0.095 H 
ENDBRANCH   1   6
TORSDOF 1
