REMARK  2 active torsions:
REMARK  status: ('A' for Active; 'I' for Inactive)
REMARK    1  A    between atoms: C3_3  and  O2_9 
REMARK    2  A    between atoms: C5_5  and  O1_7 
ROOT
ATOM      1  C1  <0> d          -0.059   4.503   0.027  0.00  0.00    -0.078 A 
ATOM      2  C2  <0> d           1.148   3.830   0.012  0.00  0.00    -0.049 A 
ATOM      3  C3  <0> d           1.169   2.443   0.004  0.00  0.00     0.090 A 
ATOM      4  C4  <0> d          -0.021   1.732   0.012  0.00  0.00     0.100 A 
ATOM      5  C5  <0> d          -1.231   2.410   0.021  0.00  0.00     0.090 A 
ATOM      6  C6  <0> d          -1.247   3.798   0.035  0.00  0.00    -0.049 A 
ATOM      7 Cl1  <0> d           0.002  -0.004   0.002  0.00  0.00    -0.078 Cl
ATOM      8  H1  <0> d          -0.074   5.583   0.034  0.00  0.00     0.083 H 
ATOM      9  H2  <0> d           2.075   4.384   0.006  0.00  0.00     0.087 H 
ATOM     10  H3  <0> d          -2.189   4.326   0.046  0.00  0.00     0.087 H 
ENDROOT
BRANCH   3  11
ATOM     11  O2  <0> d           2.357   1.781  -0.011  0.00  0.00    -0.359 OA
ATOM     12  H5  <0> d           2.692   1.594  -0.898  0.00  0.00     0.217 HD
ENDBRANCH   3  11
BRANCH   5  13
ATOM     13  O1  <0> d          -2.400   1.717   0.022  0.00  0.00    -0.359 OA
ATOM     14  H4  <0> d          -2.735   1.511   0.906  0.00  0.00     0.217 HD
ENDBRANCH   5  13
TORSDOF 2
