REMARK  4 active torsions:
REMARK  status: ('A' for Active; 'I' for Inactive)
REMARK    1  A    between atoms: C1_1  and  C2_2 
REMARK    2  A    between atoms: C2_2  and  C3_4 
REMARK    3  A    between atoms: C2_2  and  O2_11 
REMARK    4  A    between atoms: C3_4  and  N1_5 
ROOT
ATOM      1  N1  <0> d          -0.829   1.670  -1.065  0.00  0.00     0.095 N 
ATOM      2  C4  <0> d          -2.106   0.955  -1.204  0.00  0.00     0.133 C 
ATOM      3  C5  <0> d          -2.947   1.631  -2.289  0.00  0.00     0.044 C 
ATOM      4  O1  <0> d          -2.206   1.659  -3.512  0.00  0.00    -0.388 OA
ATOM      5  C6  <0> d          -0.957   2.349  -3.413  0.00  0.00     0.044 C 
ATOM      6  C7  <0> d          -0.095   1.679  -2.339  0.00  0.00     0.133 C 
ATOM      7  H7  <0> d          -1.911  -0.091  -1.486  0.00  0.00     0.083 H 
ATOM      8  H8  <0> d          -2.647   0.981  -0.247  0.00  0.00     0.083 H 
ATOM      9  H9  <0> d          -3.879   1.065  -2.436  0.00  0.00     0.077 H 
ATOM     10  H10 <0> d          -3.187   2.659  -1.980  0.00  0.00     0.077 H 
ATOM     11  H11 <0> d          -0.438   2.307  -4.381  0.00  0.00     0.077 H 
ATOM     12  H12 <0> d          -1.139   3.398  -3.138  0.00  0.00     0.077 H 
ATOM     13  H13 <0> d           0.843   2.240  -2.217  0.00  0.00     0.083 H 
ATOM     14  H14 <0> d           0.131   0.646  -2.639  0.00  0.00     0.083 H 
ENDROOT
BRANCH   1  15
ATOM     15  C3  <0> d          -0.013   1.086   0.008  0.00  0.00     0.136 C 
ATOM     16  H5  <0> d           0.485   0.178  -0.363  0.00  0.00     0.083 H 
ATOM     17  H6  <0> d          -0.658   0.827   0.860  0.00  0.00     0.083 H 
BRANCH  15  18
ATOM     18  C2  <0> d           1.042   2.100   0.456  0.00  0.00     0.058 C 
ATOM     19  H1  <0> d           1.640   2.456  -0.396  0.00  0.00     0.085 H 
BRANCH  18  20
ATOM     20  C1  <0> d           1.930   1.470   1.531  0.00  0.00    -0.051 C 
ATOM     21  H2  <0> d           2.688   2.199   1.853  0.00  0.00     0.030 H 
ATOM     22  H3  <0> d           2.428   0.580   1.121  0.00  0.00     0.030 H 
ATOM     23  H4  <0> d           1.312   1.180   2.393  0.00  0.00     0.030 H 
ENDBRANCH  18  20
BRANCH  18  24
ATOM     24  O2  <0> d           0.395   3.256   0.989  0.00  0.00    -0.394 OA
ATOM     25  H15 <0> d          -0.288   3.844   0.359  0.00  0.00     0.210 HD
ENDBRANCH  18  24
ENDBRANCH  15  18
ENDBRANCH   1  15
TORSDOF 4
