REMARK  1 active torsions:
REMARK  status: ('A' for Active; 'I' for Inactive)
REMARK    1  A    between atoms: C6_6  and  C7_7 
ROOT
ATOM      1  C1  <0> d          -1.324   3.328   0.032  0.00  0.00    -0.064 A 
ATOM      2  C2  <0> d          -2.530   3.996   0.035  0.00  0.00    -0.045 A 
ATOM      3  C3  <0> d          -3.720   3.284   0.037  0.00  0.00     0.116 A 
ATOM      4  C4  <0> d          -3.704   1.897   0.030  0.00  0.00    -0.045 A 
ATOM      5  C5  <0> d          -2.504   1.219   0.021  0.00  0.00    -0.064 A 
ATOM      6  C6  <0> d          -1.302   1.931   0.019  0.00  0.00     0.041 A 
ATOM      7  F1  <0> d          -4.899   3.943   0.045  0.00  0.00    -0.206 F 
ATOM      8  H1  <0> d          -0.398   3.884   0.036  0.00  0.00     0.085 H 
ATOM      9  H2  <0> d          -2.548   5.075   0.041  0.00  0.00     0.088 H 
ATOM     10  H3  <0> d          -4.634   1.347   0.031  0.00  0.00     0.088 H 
ATOM     11  H4  <0> d          -2.493   0.139   0.014  0.00  0.00     0.085 H 
ENDROOT
BRANCH   6  12
ATOM     12  C7  <0> d          -0.014   1.211   0.009  0.00  0.00     0.209 C 
ATOM     13  O1  <0> d           0.002  -0.004   0.002  0.00  0.00    -0.644 OA
ATOM     14  O2  <0> d           1.143   1.900   0.001  0.00  0.00    -0.644 OA
ENDBRANCH   6  12
TORSDOF 1
