REMARK  4 active torsions:
REMARK  status: ('A' for Active; 'I' for Inactive)
REMARK    1  A    between atoms: C1_1  and  C2_2 
REMARK    2  A    between atoms: C3_3  and  N3_9 
REMARK    3  A    between atoms: C4_4  and  C5_8 
REMARK       I    between atoms: N3_9  and  C6_10 
REMARK    4  A    between atoms: C6_10  and  C7_12 
ROOT
ATOM      1  C2  <0> d          -3.666   1.678  -0.058  0.00  0.00     0.052 A 
ATOM      2  C3  <0> d          -2.430   1.189  -0.334  0.00  0.00     0.085 A 
ATOM      3  C4  <0> d          -2.528  -0.208  -0.406  0.00  0.00     0.079 A 
ATOM      4  N1  <0> d          -3.770  -0.547  -0.174  0.00  0.00    -0.177 NA
ATOM      5  N2  <0> d          -4.512   0.621   0.046  0.00  0.00    -0.280 N 
ATOM      6  H1  <0> d          -5.491   0.667   0.244  0.00  0.00     0.189 HD
ENDROOT
BRANCH   2   7
ATOM      7  N3  <0> d          -1.260   1.949  -0.520  0.00  0.00    -0.324 N 
ATOM      8  C6  <0> d          -0.187   1.739   0.267  0.00  0.00     0.218 C 
ATOM      9  O1  <0> d          -0.259   0.959   1.194  0.00  0.00    -0.274 OA
ATOM     10  H8  <0> d          -1.226   2.624  -1.216  0.00  0.00     0.169 HD
BRANCH   8  11
ATOM     11  C7  <0> d           1.103   2.467  -0.007  0.00  0.00    -0.003 C 
ATOM     12  H9  <0> d           1.853   2.167   0.726  0.00  0.00     0.040 H 
ATOM     13  H10 <0> d           1.455   2.219  -1.009  0.00  0.00     0.040 H 
ATOM     14  H11 <0> d           0.936   3.542   0.064  0.00  0.00     0.040 H 
ENDBRANCH   8  11
ENDBRANCH   2   7
BRANCH   1  15
ATOM     15  C1  <0> d          -4.032   3.131   0.106  0.00  0.00    -0.034 C 
ATOM     16  H2  <0> d          -4.321   3.544  -0.861  0.00  0.00     0.035 H 
ATOM     17  H3  <0> d          -4.866   3.219   0.802  0.00  0.00     0.035 H 
ATOM     18  H4  <0> d          -3.175   3.680   0.494  0.00  0.00     0.035 H 
ENDBRANCH   1  15
BRANCH   3  19
ATOM     19  C5  <0> d          -1.394  -1.158  -0.698  0.00  0.00    -0.032 C 
ATOM     20  H5  <0> d          -1.125  -1.692   0.213  0.00  0.00     0.035 H 
ATOM     21  H6  <0> d          -1.706  -1.873  -1.460  0.00  0.00     0.035 H 
ATOM     22  H7  <0> d          -0.533  -0.596  -1.058  0.00  0.00     0.035 H 
ENDBRANCH   3  19
TORSDOF 4
