REMARK  0 active torsions:
REMARK  status: ('A' for Active; 'I' for Inactive)
ROOT
ATOM      1  C1  <0> d          -0.017   1.367   0.010  0.00  0.00     0.024 A 
ATOM      2  C2  <0> d           1.148   2.051   0.002  0.00  0.00     0.199 A 
ATOM      3  C3  <0> d           2.369   1.332  -0.013  0.00  0.00     0.289 A 
ATOM      4  O1  <0> d           3.432   1.926  -0.020  0.00  0.00    -0.265 OA
ATOM      5  N1  <0> d           2.344  -0.016  -0.020  0.00  0.00    -0.273 N 
ATOM      6  H1  <0> d           3.176  -0.515  -0.031  0.00  0.00     0.173 HD
ATOM      7  C4  <0> d           1.169  -0.673  -0.013  0.00  0.00     0.327 A 
ATOM      8  O2  <0> d           1.163  -1.889  -0.019  0.00  0.00    -0.247 OA
ATOM      9  N2  <0> d           0.002  -0.004   0.002  0.00  0.00    -0.316 N 
ATOM     10  H2  <0> d          -0.834  -0.496   0.008  0.00  0.00     0.170 HD
ATOM     11  F1  <0> d           1.149   3.402   0.009  0.00  0.00    -0.199 F 
ATOM     12  H3  <0> d          -0.957   1.897   0.026  0.00  0.00     0.116 H 
ENDROOT
TORSDOF 0
