REMARK  1 active torsions:
REMARK  status: ('A' for Active; 'I' for Inactive)
REMARK    1  A    between atoms: C7_8  and  N2_10 
ROOT
ATOM      1  C1  <0> d           4.025   2.032  -0.025  0.00  0.00    -0.081 A 
ATOM      2  C2  <0> d           3.219   3.160  -0.012  0.00  0.00    -0.080 A 
ATOM      3  C3  <0> d           1.845   3.038   0.001  0.00  0.00    -0.048 A 
ATOM      4  C4  <0> d           1.263   1.780  -0.000  0.00  0.00     0.108 A 
ATOM      5  C5  <0> d           2.075   0.636  -0.014  0.00  0.00     0.095 A 
ATOM      6  C6  <0> d           3.464   0.774  -0.027  0.00  0.00    -0.052 A 
ATOM      7  N1  <0> d           1.237  -0.437  -0.012  0.00  0.00    -0.206 NA
ATOM      8  C7  <0> d           0.002  -0.004   0.002  0.00  0.00     0.245 A 
ATOM      9  O1  <0> d          -0.016   1.340   0.009  0.00  0.00    -0.276 OA
ATOM     10  H1  <0> d           5.100   2.141  -0.035  0.00  0.00     0.083 H 
ATOM     11  H2  <0> d           3.670   4.142  -0.012  0.00  0.00     0.083 H 
ATOM     12  H3  <0> d           1.223   3.921   0.011  0.00  0.00     0.087 H 
ATOM     13  H4  <0> d           4.096  -0.101  -0.038  0.00  0.00     0.087 H 
ENDROOT
BRANCH   8  14
ATOM     14  N2  <0> d          -1.115  -0.808   0.009  0.00  0.00    -0.363 N 
ATOM     15  H5  <0> d          -2.118  -0.356   0.021  0.00  0.00     0.159 HD
ATOM     16  H6  <0> d          -1.005  -1.903   0.003  0.00  0.00     0.159 HD
ENDBRANCH   8  14
TORSDOF 1
