REMARK  3 active torsions:
REMARK  status: ('A' for Active; 'I' for Inactive)
REMARK    1  A    between atoms: C1_1  and  O1_2 
REMARK    2  A    between atoms: O1_2  and  C2_3 
REMARK    3  A    between atoms: C7_8  and  O2_9 
ROOT
ATOM      1  C2  <0> d           1.168   3.178   0.007  0.00  0.00     0.102 A 
ATOM      2  C3  <0> d          -0.035   3.858   0.022  0.00  0.00    -0.028 A 
ATOM      3  C4  <0> d          -1.237   3.144   0.030  0.00  0.00     0.047 A 
ATOM      4  C5  <0> d          -1.216   1.747   0.017  0.00  0.00    -0.060 A 
ATOM      5  C6  <0> d          -0.013   1.076   0.008  0.00  0.00    -0.047 A 
ATOM      6  C7  <0> d           1.181   1.784   0.000  0.00  0.00     0.099 A 
ATOM      7  C8  <0> d          -2.487   3.843   0.046  0.00  0.00     0.099 C 
ATOM      8  N1  <0> d          -3.478   4.398   0.058  0.00  0.00    -0.191 NA
ATOM      9  H4  <0> d          -0.047   4.938   0.027  0.00  0.00     0.090 H 
ATOM     10  H5  <0> d          -2.143   1.193   0.019  0.00  0.00     0.086 H 
ATOM     11  H6  <0> d           0.002  -0.004   0.002  0.00  0.00     0.087 H 
ENDROOT
BRANCH   1  12
ATOM     12  O1  <0> d           2.339   3.869  -0.001  0.00  0.00    -0.353 OA
BRANCH  12  13
ATOM     13  C1  <0> d           2.251   5.296   0.007  0.00  0.00     0.010 C 
ATOM     14  H1  <0> d           1.707   5.631  -0.877  0.00  0.00     0.066 H 
ATOM     15  H2  <0> d           1.724   5.622   0.903  0.00  0.00     0.066 H 
ATOM     16  H3  <0> d           3.254   5.722  -0.001  0.00  0.00     0.066 H 
ENDBRANCH  12  13
ENDBRANCH   1  12
BRANCH   6  17
ATOM     17  O2  <0> d           2.365   1.118  -0.014  0.00  0.00    -0.358 OA
ATOM     18  H7  <0> d           2.699   0.930  -0.902  0.00  0.00     0.217 HD
ENDBRANCH   6  17
TORSDOF 3
