REMARK  7 active torsions:
REMARK  status: ('A' for Active; 'I' for Inactive)
REMARK    1  A    between atoms: C1_1  and  C2_2 
REMARK    2  A    between atoms: C3_3  and  C4_4 
REMARK    3  A    between atoms: C4_4  and  C5_5 
REMARK    4  A    between atoms: C4_4  and  C6_6 
REMARK    5  A    between atoms: C4_4  and  O1_9 
REMARK    6  A    between atoms: C6_6  and  C7_7 
REMARK    7  A    between atoms: C6_6  and  C8_8 
ROOT
ATOM      1  C4  <0> d          -0.019   1.526   0.010  0.00  0.00     0.120 C 
ENDROOT
BRANCH   1   2
ATOM      2  C3  <0> d          -0.708   2.001   1.222  0.00  0.00    -0.069 C 
ATOM      3  C2  <0> d          -1.257   2.379   2.187  0.00  0.00    -0.108 C 
BRANCH   3   4
ATOM      4  C1  <0> d          -1.946   2.854   3.398  0.00  0.00    -0.021 C 
ATOM      5  H1  <0> d          -1.961   3.944   3.405  0.00  0.00     0.044 H 
ATOM      6  H2  <0> d          -2.969   2.477   3.406  0.00  0.00     0.044 H 
ATOM      7  H3  <0> d          -1.419   2.493   4.282  0.00  0.00     0.044 H 
ENDBRANCH   3   4
ENDBRANCH   1   2
BRANCH   1   8
ATOM      8  C5  <0> d           0.002  -0.004   0.002  0.00  0.00    -0.037 C 
ATOM      9  H4  <0> d           0.529  -0.365   0.885  0.00  0.00     0.033 H 
ATOM     10  H5  <0> d          -1.020  -0.381   0.010  0.00  0.00     0.033 H 
ATOM     11  H6  <0> d           0.512  -0.356  -0.895  0.00  0.00     0.033 H 
ENDBRANCH   1   8
BRANCH   1  12
ATOM     12  C6  <0> d          -0.759   2.033  -1.229  0.00  0.00    -0.021 C 
ATOM     13  H7  <0> d          -1.781   1.655  -1.221  0.00  0.00     0.044 H 
BRANCH  12  14
ATOM     14  C7  <0> d          -0.779   3.562  -1.221  0.00  0.00    -0.070 C 
ATOM     15  H8  <0> d          -1.307   3.924  -2.104  0.00  0.00     0.028 H 
ATOM     16  H9  <0> d          -1.290   3.914  -0.324  0.00  0.00     0.028 H 
ATOM     17  H10 <0> d           0.243   3.940  -1.228  0.00  0.00     0.028 H 
ENDBRANCH  12  14
BRANCH  12  18
ATOM     18  C8  <0> d          -0.043   1.539  -2.488  0.00  0.00    -0.070 C 
ATOM     19  H11 <0> d          -0.028   0.449  -2.494  0.00  0.00     0.028 H 
ATOM     20  H12 <0> d          -0.570   1.900  -3.371  0.00  0.00     0.028 H 
ATOM     21  H13 <0> d           0.980   1.917  -2.496  0.00  0.00     0.028 H 
ENDBRANCH  12  18
ENDBRANCH   1  12
BRANCH   1  22
ATOM     22  O1  <0> d           1.322   2.020   0.000  0.00  0.00    -0.378 OA
ATOM     23  H14 <0> d           1.385   2.985   0.005  0.00  0.00     0.211 HD
ENDBRANCH   1  22
TORSDOF 7
