REMARK  1 active torsions:
REMARK  status: ('A' for Active; 'I' for Inactive)
REMARK    1  A    between atoms: C3_3  and  N2_11 
ROOT
ATOM      1  C1  <0> d          -0.017   1.376   0.010  0.00  0.00    -0.079 A 
ATOM      2  C2  <0> d           1.165   2.092   0.002  0.00  0.00    -0.057 A 
ATOM      3  C3  <0> d           2.381   1.417  -0.013  0.00  0.00     0.034 A 
ATOM      4  C4  <0> d           2.399   0.034  -0.021  0.00  0.00     0.004 A 
ATOM      5  C5  <0> d           1.216  -0.691  -0.013  0.00  0.00     0.043 A 
ATOM      6  C6  <0> d           0.002  -0.004   0.002  0.00  0.00    -0.056 A 
ATOM      7  N1  <0> d           1.488  -2.059  -0.023  0.00  0.00    -0.326 N 
ATOM      8  C7  <0> d           2.807  -2.315  -0.037  0.00  0.00     0.226 A 
ATOM      9  O1  <0> d           3.329  -3.410  -0.049  0.00  0.00    -0.273 OA
ATOM     10  C8  <0> d           3.519  -0.979  -0.037  0.00  0.00     0.038 A 
ATOM     11  H1  <0> d          -0.961   1.899   0.026  0.00  0.00     0.083 H 
ATOM     12  H2  <0> d           1.144   3.172   0.008  0.00  0.00     0.086 H 
ATOM     13  H3  <0> d          -0.927  -0.554   0.008  0.00  0.00     0.086 H 
ATOM     14  H4  <0> d           0.804  -2.747  -0.020  0.00  0.00     0.169 HD
ATOM     15  H5  <0> d           4.122  -0.868  -0.938  0.00  0.00     0.054 H 
ATOM     16  H6  <0> d           4.139  -0.877   0.854  0.00  0.00     0.054 H 
ENDROOT
BRANCH   3  17
ATOM     17  N2  <0> d           3.580   2.134  -0.021  0.00  0.00    -0.399 N 
ATOM     18  H7  <0> d           3.565   3.104  -0.016  0.00  0.00     0.156 HD
ATOM     19  H8  <0> d           4.427   1.661  -0.032  0.00  0.00     0.156 HD
ENDBRANCH   3  17
TORSDOF 1
