REMARK  4 active torsions:
REMARK  status: ('A' for Active; 'I' for Inactive)
REMARK    1  A    between atoms: C1_1  and  C2_2 
REMARK    2  A    between atoms: C7_8  and  C9_12 
REMARK    3  A    between atoms: C7_8  and  C10_13 
REMARK    4  A    between atoms: C8_9  and  O1_11 
ROOT
ATOM      1  C2  <0> d           0.096  -0.051   0.014  0.00  0.00    -0.017 C 
ATOM      2  C3  <0> d           0.876  -0.758  -1.137  0.00  0.00    -0.056 C 
ATOM      3  C4  <0> d           1.116  -2.195  -0.621  0.00  0.00    -0.060 C 
ATOM      4  C5  <0> d           0.459  -2.221   0.793  0.00  0.00    -0.044 C 
ATOM      5  H1  <0> d           0.797  -3.013   1.462  0.00  0.00     0.041 H 
ATOM      6  C6  <0> d           0.732  -0.750   1.267  0.00  0.00    -0.052 C 
ATOM      7  C7  <0> d          -1.075  -2.175   0.512  0.00  0.00    -0.017 C 
ATOM      8  C8  <0> d          -1.321  -0.701   0.009  0.00  0.00     0.049 C 
ATOM      9  H2  <0> d          -1.991  -0.157   0.674  0.00  0.00     0.085 H 
ATOM     10  H6  <0> d           0.276  -0.776  -2.047  0.00  0.00     0.034 H 
ATOM     11  H7  <0> d           1.826  -0.255  -1.317  0.00  0.00     0.034 H 
ATOM     12  H8  <0> d           0.634  -2.920  -1.277  0.00  0.00     0.033 H 
ATOM     13  H9  <0> d           2.184  -2.399  -0.547  0.00  0.00     0.033 H 
ATOM     14  H10 <0> d           1.798  -0.540   1.355  0.00  0.00     0.034 H 
ATOM     15  H11 <0> d           0.195  -0.509   2.185  0.00  0.00     0.034 H 
ENDROOT
BRANCH   7  16
ATOM     16  C9  <0> d          -1.453  -3.209  -0.550  0.00  0.00    -0.067 C 
ATOM     17  H13 <0> d          -1.062  -4.185  -0.263  0.00  0.00     0.028 H 
ATOM     18  H14 <0> d          -2.539  -3.263  -0.633  0.00  0.00     0.028 H 
ATOM     19  H15 <0> d          -1.030  -2.915  -1.510  0.00  0.00     0.028 H 
ENDBRANCH   7  16
BRANCH   7  20
ATOM     20  C10 <0> d          -1.861  -2.420   1.802  0.00  0.00    -0.067 C 
ATOM     21  H16 <0> d          -1.610  -1.650   2.532  0.00  0.00     0.028 H 
ATOM     22  H17 <0> d          -2.929  -2.384   1.588  0.00  0.00     0.028 H 
ATOM     23  H18 <0> d          -1.603  -3.399   2.204  0.00  0.00     0.028 H 
ENDBRANCH   7  20
BRANCH   8  24
ATOM     24  O1  <0> d          -1.850  -0.732  -1.318  0.00  0.00    -0.394 OA
ATOM     25  H12 <0> d          -2.731  -1.126  -1.381  0.00  0.00     0.210 HD
ENDBRANCH   8  24
BRANCH   1  26
ATOM     26  C1  <0> d           0.130   1.479   0.003  0.00  0.00    -0.067 C 
ATOM     27  H3  <0> d           1.165   1.820   0.026  0.00  0.00     0.028 H 
ATOM     28  H4  <0> d          -0.353   1.847  -0.902  0.00  0.00     0.028 H 
ATOM     29  H5  <0> d          -0.398   1.860   0.877  0.00  0.00     0.028 H 
ENDBRANCH   1  26
TORSDOF 4
