REMARK  1 active torsions:
REMARK  status: ('A' for Active; 'I' for Inactive)
REMARK    1  A    between atoms: C2_2  and  C6_8 
REMARK       I    between atoms: C6_8  and  N2_10 
ROOT
ATOM      1  C1  <0> d           1.170   2.064   0.002  0.00  0.00    -0.028 A 
ATOM      2  C2  <0> d           1.099   3.462   0.010  0.00  0.00     0.052 A 
ATOM      3  C3  <0> d          -0.155   4.074   0.025  0.00  0.00     0.017 A 
ATOM      4  N1  <0> d          -1.254   3.350   0.031  0.00  0.00    -0.269 NA
ATOM      5  C4  <0> d          -1.221   2.031   0.019  0.00  0.00     0.039 A 
ATOM      6  C5  <0> d          -0.016   1.347   0.009  0.00  0.00     0.134 A 
ATOM      7  F1  <0> d           0.002  -0.004   0.002  0.00  0.00    -0.205 F 
ATOM      8  H1  <0> d           2.123   1.557  -0.009  0.00  0.00     0.089 H 
ATOM      9  H2  <0> d          -0.224   5.152   0.030  0.00  0.00     0.116 H 
ATOM     10  H3  <0> d          -2.148   1.476   0.021  0.00  0.00     0.119 H 
ENDROOT
BRANCH   2  11
ATOM     11  C6  <0> d           2.333   4.276   0.002  0.00  0.00     0.250 C 
ATOM     12  O1  <0> d           3.420   3.733  -0.011  0.00  0.00    -0.268 OA
ATOM     13  N2  <0> d           2.252   5.622   0.009  0.00  0.00    -0.366 N 
ATOM     14  H4  <0> d           1.385   6.056   0.020  0.00  0.00     0.159 HD
ATOM     15  H5  <0> d           3.062   6.156   0.004  0.00  0.00     0.159 HD
ENDBRANCH   2  11
TORSDOF 1
