REMARK  5 active torsions:
REMARK  status: ('A' for Active; 'I' for Inactive)
REMARK    1  A    between atoms: C1_1  and  C2_2 
REMARK    2  A    between atoms: C2_2  and  C3_3 
REMARK    3  A    between atoms: C2_2  and  C4_4 
REMARK       I    between atoms: C4_4  and  N1_6 
REMARK    4  A    between atoms: N1_6  and  C5_7 
REMARK    5  A    between atoms: N1_6  and  C6_8 
ROOT
ATOM      1  C4  <0> d          -0.103   1.324  -0.012  0.00  0.00     0.222 C 
ATOM      2  O1  <0> d           0.213   0.153   0.006  0.00  0.00    -0.273 OA
ATOM      3  N1  <0> d          -1.405   1.670   0.032  0.00  0.00    -0.361 N 
ENDROOT
BRANCH   1   4
ATOM      4  C2  <0> d           0.958   2.390  -0.089  0.00  0.00     0.017 C 
ATOM      5  H4  <0> d           0.595   3.222  -0.693  0.00  0.00     0.053 H 
BRANCH   4   6
ATOM      6  C1  <0> d           1.284   2.888   1.321  0.00  0.00    -0.065 C 
ATOM      7  H1  <0> d           1.986   3.720   1.259  0.00  0.00     0.028 H 
ATOM      8  H2  <0> d           0.369   3.221   1.810  0.00  0.00     0.028 H 
ATOM      9  H3  <0> d           1.730   2.078   1.898  0.00  0.00     0.028 H 
ENDBRANCH   4   6
BRANCH   4  10
ATOM     10  C3  <0> d           2.220   1.809  -0.729  0.00  0.00    -0.065 C 
ATOM     11  H5  <0> d           1.988   1.454  -1.733  0.00  0.00     0.028 H 
ATOM     12  H6  <0> d           2.988   2.580  -0.785  0.00  0.00     0.028 H 
ATOM     13  H7  <0> d           2.584   0.977  -0.125  0.00  0.00     0.028 H 
ENDBRANCH   4  10
ENDBRANCH   1   4
BRANCH   3  14
ATOM     14  C5  <0> d          -2.433   0.639   0.201  0.00  0.00    -0.017 C 
ATOM     15  H8  <0> d          -2.625   0.490   1.264  0.00  0.00     0.056 H 
ATOM     16  H9  <0> d          -3.351   0.957  -0.293  0.00  0.00     0.056 H 
ATOM     17  H10 <0> d          -2.086  -0.295  -0.240  0.00  0.00     0.056 H 
ENDBRANCH   3  14
BRANCH   3  18
ATOM     18  C6  <0> d          -1.793   3.078  -0.091  0.00  0.00    -0.017 C 
ATOM     19  H11 <0> d          -0.898   3.700  -0.113  0.00  0.00     0.056 H 
ATOM     20  H12 <0> d          -2.358   3.220  -1.012  0.00  0.00     0.056 H 
ATOM     21  H13 <0> d          -2.410   3.360   0.762  0.00  0.00     0.056 H 
ENDBRANCH   3  18
TORSDOF 5
