REMARK  4 active torsions:
REMARK  status: ('A' for Active; 'I' for Inactive)
REMARK    1  A    between atoms: C1_1  and  C2_2 
REMARK    2  A    between atoms: C2_2  and  C7_8 
REMARK    3  A    between atoms: C4_4  and  C5_5 
REMARK    4  A    between atoms: C4_4  and  C6_6 
ROOT
ATOM      1  C2  <0> d          -0.019   1.526   0.010  0.00  0.00     0.063 A 
ATOM      2  C3  <0> d           1.317   0.779  -0.006  0.00  0.00    -0.030 A 
ATOM      3  C4  <0> d           0.002  -0.004   0.002  0.00  0.00     0.063 A 
ATOM      4  H4  <0> d           1.889   0.792  -0.934  0.00  0.00     0.036 H 
ATOM      5  H5  <0> d           1.906   0.782   0.910  0.00  0.00     0.036 H 
ENDROOT
BRANCH   1   6
ATOM      6  C1  <0> d          -0.448   2.233  -1.276  0.00  0.00    -0.058 C 
ATOM      7  H1  <0> d          -1.464   1.933  -1.534  0.00  0.00     0.029 H 
ATOM      8  H2  <0> d          -0.416   3.313  -1.125  0.00  0.00     0.029 H 
ATOM      9  H3  <0> d           0.228   1.959  -2.085  0.00  0.00     0.029 H 
ENDBRANCH   1   6
BRANCH   1  10
ATOM     10  C7  <0> d          -0.418   2.209   1.293  0.00  0.00     0.182 C 
ATOM     11  O2  <0> d          -0.706   1.551   2.264  0.00  0.00    -0.647 OA
ATOM     12  O4  <0> d          -0.453   3.550   1.356  0.00  0.00    -0.647 OA
ENDBRANCH   1  10
BRANCH   3  13
ATOM     13  C5  <0> d          -0.384  -0.723   1.296  0.00  0.00    -0.058 C 
ATOM     14  H6  <0> d          -1.402  -0.450   1.574  0.00  0.00     0.029 H 
ATOM     15  H7  <0> d          -0.325  -1.801   1.145  0.00  0.00     0.029 H 
ATOM     16  H8  <0> d           0.300  -0.430   2.092  0.00  0.00     0.029 H 
ENDBRANCH   3  13
BRANCH   3  17
ATOM     17  C6  <0> d          -0.402  -0.698  -1.273  0.00  0.00     0.182 C 
ATOM     18  O1  <0> d          -0.727  -0.048  -2.238  0.00  0.00    -0.647 OA
ATOM     19  O3  <0> d          -0.402  -2.039  -1.336  0.00  0.00    -0.647 OA
ENDBRANCH   3  17
TORSDOF 4
