REMARK  2 active torsions:
REMARK  status: ('A' for Active; 'I' for Inactive)
REMARK    1  A    between atoms: C2_2  and  N3_7 
REMARK    2  A    between atoms: C5_9  and  N5_12 
ROOT
ATOM      1  N3  <0> d          -3.388   2.093   0.029  0.00  0.00    -0.240 N 
ATOM      2  C4  <0> d          -2.473   1.085   0.020  0.00  0.00     0.031 A 
ATOM      3  C5  <0> d          -1.240   1.653   0.017  0.00  0.00     0.062 A 
ATOM      4  C6  <0> d          -1.407   3.045   0.031  0.00  0.00     0.049 A 
ATOM      5  N4  <0> d          -2.690   3.307   0.033  0.00  0.00    -0.178 NA
ATOM      6  H4  <0> d          -2.689   0.027   0.014  0.00  0.00     0.118 H 
ATOM      7  H5  <0> d          -0.612   3.777   0.037  0.00  0.00     0.121 H 
ENDROOT
BRANCH   1   8
ATOM      8  C2  <0> d          -4.788   1.942   0.036  0.00  0.00     0.094 A 
ATOM      9  C1  <0> d          -5.701   2.943  -0.045  0.00  0.00     0.025 A 
ATOM     10  N2  <0> d          -6.930   2.381  -0.010  0.00  0.00    -0.287 N 
ATOM     11  H2  <0> d          -5.485   3.998  -0.125  0.00  0.00     0.117 H 
ATOM     12  N1  <0> d          -6.769   0.994   0.105  0.00  0.00    -0.185 NA
ATOM     13  H1  <0> d          -7.827   3.015  -0.070  0.00  0.00     0.188 HD
ATOM     14  C3  <0> d          -5.488   0.730   0.132  0.00  0.00     0.051 A 
ATOM     15  H3  <0> d          -5.046  -0.252   0.215  0.00  0.00     0.121 H 
ENDBRANCH   1   8
BRANCH   3  16
ATOM     16  N5  <0> d          -0.011   0.966   0.007  0.00  0.00    -0.397 N 
ATOM     17  H6  <0> d           0.934   1.529   0.006  0.00  0.00     0.156 HD
ATOM     18  H7  <0> d           0.004  -0.134   0.001  0.00  0.00     0.156 HD
ENDBRANCH   3  16
TORSDOF 2
