REMARK  2 active torsions:
REMARK  status: ('A' for Active; 'I' for Inactive)
REMARK    1  A    between atoms: C1_1  and  O1_2 
REMARK    2  A    between atoms: O1_2  and  C2_3 
ROOT
ATOM      1  C2  <0> d           3.363  -1.564   1.248  0.00  0.00     0.046 C 
ATOM      2  C3  <0> d           4.064  -0.468   1.224  0.00  0.00    -0.069 C 
ATOM      3  C4  <0> d           3.494   0.909   1.066  0.00  0.00    -0.003 C 
ATOM      4  C5  <0> d           2.073   0.827   0.550  0.00  0.00     0.052 C 
ATOM      5  C6  <0> d           1.368  -0.291   0.585  0.00  0.00    -0.042 C 
ATOM      6  C7  <0> d           1.867  -1.606   1.117  0.00  0.00     0.002 C 
ATOM      7  C8  <0> d           0.002  -0.004   0.002  0.00  0.00    -0.021 C 
ATOM      8  C9  <0> d          -0.019   1.545   0.011  0.00  0.00     0.029 C 
ATOM      9  O2  <0> d           1.387   1.858  -0.001  0.00  0.00    -0.355 OA
ATOM     10  H4  <0> d           5.136  -0.557   1.327  0.00  0.00     0.081 H 
ATOM     11  H5  <0> d           3.499   1.416   2.030  0.00  0.00     0.049 H 
ATOM     12  H6  <0> d           4.101   1.472   0.357  0.00  0.00     0.049 H 
ATOM     13  H7  <0> d           1.423  -1.793   2.095  0.00  0.00     0.049 H 
ATOM     14  H8  <0> d           1.587  -2.405   0.431  0.00  0.00     0.049 H 
ATOM     15  H9  <0> d          -0.786  -0.409   0.636  0.00  0.00     0.043 H 
ATOM     16  H10 <0> d          -0.079  -0.390  -1.014  0.00  0.00     0.043 H 
ATOM     17  H11 <0> d          -0.512   1.933  -0.880  0.00  0.00     0.075 H 
ATOM     18  H12 <0> d          -0.495   1.924   0.915  0.00  0.00     0.075 H 
ENDROOT
BRANCH   1  19
ATOM     19  O1  <0> d           4.023  -2.739   1.401  0.00  0.00    -0.360 OA
BRANCH  19  20
ATOM     20  C1  <0> d           5.445  -2.674   1.524  0.00  0.00     0.010 C 
ATOM     21  H1  <0> d           5.707  -2.076   2.396  0.00  0.00     0.066 H 
ATOM     22  H2  <0> d           5.846  -3.681   1.639  0.00  0.00     0.066 H 
ATOM     23  H3  <0> d           5.866  -2.216   0.629  0.00  0.00     0.066 H 
ENDBRANCH  19  20
ENDBRANCH   1  19
TORSDOF 2
