REMARK  6 active torsions:
REMARK  status: ('A' for Active; 'I' for Inactive)
REMARK    1  A    between atoms: C1_1  and  C2_2 
REMARK    2  A    between atoms: C2_2  and  C3_3 
REMARK    3  A    between atoms: C2_2  and  C4_4 
REMARK       I    between atoms: C4_4  and  N1_6 
REMARK    4  A    between atoms: N1_6  and  C5_7 
REMARK    5  A    between atoms: C5_7  and  C6_8 
REMARK    6  A    between atoms: C5_7  and  C7_9 
ROOT
ATOM      1  C4  <0> d          -1.187   1.624   0.017  0.00  0.00     0.221 C 
ATOM      2  O1  <0> d          -1.204   2.837   0.023  0.00  0.00    -0.273 OA
ATOM      3  N1  <0> d          -0.011   0.966   0.007  0.00  0.00    -0.357 N 
ATOM      4  H8  <0> d           0.002  -0.004   0.002  0.00  0.00     0.162 HD
ENDROOT
BRANCH   1   5
ATOM      5  C2  <0> d          -2.482   0.853   0.018  0.00  0.00     0.017 C 
ATOM      6  H4  <0> d          -2.527   0.220   0.905  0.00  0.00     0.053 H 
BRANCH   5   7
ATOM      7  C1  <0> d          -3.658   1.831   0.029  0.00  0.00    -0.065 C 
ATOM      8  H1  <0> d          -3.613   2.463  -0.857  0.00  0.00     0.028 H 
ATOM      9  H2  <0> d          -4.595   1.273   0.031  0.00  0.00     0.028 H 
ATOM     10  H3  <0> d          -3.605   2.454   0.922  0.00  0.00     0.028 H 
ENDBRANCH   5   7
BRANCH   5  11
ATOM     11  C3  <0> d          -2.557  -0.021  -1.235  0.00  0.00    -0.065 C 
ATOM     12  H5  <0> d          -3.494  -0.579  -1.234  0.00  0.00     0.028 H 
ATOM     13  H6  <0> d          -2.512   0.611  -2.122  0.00  0.00     0.028 H 
ATOM     14  H7  <0> d          -1.719  -0.718  -1.243  0.00  0.00     0.028 H 
ENDBRANCH   5  11
ENDBRANCH   1   5
BRANCH   3  15
ATOM     15  C5  <0> d           1.248   1.716  -0.001  0.00  0.00     0.005 C 
ATOM     16  H9  <0> d           1.123   2.628  -0.584  0.00  0.00     0.071 H 
BRANCH  15  17
ATOM     17  C6  <0> d           1.635   2.077   1.435  0.00  0.00    -0.058 C 
ATOM     18  H10 <0> d           1.759   1.165   2.018  0.00  0.00     0.030 H 
ATOM     19  H11 <0> d           2.571   2.635   1.429  0.00  0.00     0.030 H 
ATOM     20  H12 <0> d           0.851   2.689   1.880  0.00  0.00     0.030 H 
ENDBRANCH  15  17
BRANCH  15  21
ATOM     21  C7  <0> d           2.349   0.857  -0.625  0.00  0.00    -0.058 C 
ATOM     22  H13 <0> d           2.073   0.599  -1.648  0.00  0.00     0.030 H 
ATOM     23  H14 <0> d           3.285   1.414  -0.631  0.00  0.00     0.030 H 
ATOM     24  H15 <0> d           2.473  -0.056  -0.042  0.00  0.00     0.030 H 
ENDBRANCH  15  21
ENDBRANCH   3  15
TORSDOF 6
