REMARK  1 active torsions:
REMARK  status: ('A' for Active; 'I' for Inactive)
REMARK    1  A    between atoms: C4_4  and  C7_7 
ROOT
ATOM      1  C1  <0> d          -0.017   1.379   0.010  0.00  0.00    -0.083 A 
ATOM      2  C2  <0> d           1.169   2.092   0.002  0.00  0.00    -0.082 A 
ATOM      3  C3  <0> d           2.377   1.426  -0.013  0.00  0.00    -0.071 A 
ATOM      4  C4  <0> d           2.402   0.033  -0.021  0.00  0.00    -0.005 A 
ATOM      5  C5  <0> d           1.205  -0.680  -0.013  0.00  0.00    -0.071 A 
ATOM      6  C6  <0> d           0.002  -0.004   0.002  0.00  0.00    -0.082 A 
ATOM      7  H1  <0> d          -0.960   1.904   0.026  0.00  0.00     0.083 H 
ATOM      8  H2  <0> d           1.148   3.172   0.008  0.00  0.00     0.083 H 
ATOM      9  H3  <0> d           3.302   1.984  -0.020  0.00  0.00     0.084 H 
ATOM     10  H4  <0> d           1.219  -1.760  -0.019  0.00  0.00     0.084 H 
ATOM     11  H5  <0> d          -0.926  -0.556   0.008  0.00  0.00     0.083 H 
ENDROOT
BRANCH   4  12
ATOM     12  C7  <0> d           3.699  -0.689  -0.038  0.00  0.00     0.091 A 
ATOM     13  N1  <0> d           4.928  -0.127  -0.049  0.00  0.00    -0.234 NA
ATOM     14  C9  <0> d           5.819  -1.075  -0.060  0.00  0.00     0.103 A 
ATOM     15  O1  <0> d           5.197  -2.261  -0.066  0.00  0.00    -0.314 OA
ATOM     16  H7  <0> d           6.889  -0.929  -0.067  0.00  0.00     0.155 H 
ATOM     17  C8  <0> d           3.869  -2.033  -0.053  0.00  0.00     0.049 A 
ATOM     18  H6  <0> d           3.089  -2.780  -0.053  0.00  0.00     0.127 H 
ENDBRANCH   4  12
TORSDOF 1
