REMARK  2 active torsions:
REMARK  status: ('A' for Active; 'I' for Inactive)
REMARK    1  A    between atoms: C2_2  and  C3_3 
REMARK    2  A    between atoms: C3_3  and  O3_13 
ROOT
ATOM      1  C3  <0> d           1.317  -0.740  -0.015  0.00  0.00     0.124 C 
ATOM      2  C4  <0> d           1.394  -1.626  -1.262  0.00  0.00    -0.026 C 
ATOM      3  C5  <0> d           0.375  -2.764  -1.138  0.00  0.00    -0.036 C 
ATOM      4  C6  <0> d           0.586  -3.464   0.214  0.00  0.00     0.062 C 
ATOM      5  H1  <0> d           0.006  -4.383   0.305  0.00  0.00     0.086 H 
ATOM      6  C7  <0> d           2.104  -3.696   0.393  0.00  0.00     0.047 C 
ATOM      7  O1  <0> d           2.584  -2.514   1.060  0.00  0.00    -0.355 OA
ATOM      8  C8  <0> d           1.425  -1.629   1.234  0.00  0.00     0.164 C 
ATOM      9  H2  <0> d           1.502  -1.032   2.142  0.00  0.00     0.134 H 
ATOM     10  O2  <0> d           0.272  -2.499   1.249  0.00  0.00    -0.350 OA
ATOM     11  H6  <0> d           1.168  -1.030  -2.147  0.00  0.00     0.038 H 
ATOM     12  H7  <0> d           2.397  -2.044  -1.350  0.00  0.00     0.038 H 
ATOM     13  H8  <0> d          -0.636  -2.358  -1.186  0.00  0.00     0.037 H 
ATOM     14  H9  <0> d           0.524  -3.479  -1.947  0.00  0.00     0.037 H 
ATOM     15  H10 <0> d           2.284  -4.577   1.008  0.00  0.00     0.078 H 
ATOM     16  H11 <0> d           2.588  -3.805  -0.578  0.00  0.00     0.078 H 
ENDROOT
BRANCH   1  17
ATOM     17  C2  <0> d           0.002  -0.004   0.002  0.00  0.00    -0.075 C 
ATOM     18  C1  <0> d          -0.016   1.306   0.009  0.00  0.00    -0.122 C 
ATOM     19  H3  <0> d           0.912   1.859   0.003  0.00  0.00     0.066 H 
ATOM     20  H4  <0> d          -0.958   1.833   0.017  0.00  0.00     0.066 H 
ATOM     21  H5  <0> d          -0.926  -0.557   0.008  0.00  0.00     0.080 H 
ENDBRANCH   1  17
BRANCH   1  22
ATOM     22  O3  <0> d           2.392   0.202  -0.026  0.00  0.00    -0.381 OA
ATOM     23  H12 <0> d           2.388   0.794  -0.790  0.00  0.00     0.211 HD
ENDBRANCH   1  22
TORSDOF 2
