REMARK  1 active torsions:
REMARK  status: ('A' for Active; 'I' for Inactive)
REMARK    1  A    between atoms: C4_4  and  C7_8 
REMARK       I    between atoms: C7_8  and  N1_10 
ROOT
ATOM      1  C1  <0> d          -0.017   1.379   0.010  0.00  0.00    -0.077 A 
ATOM      2  C2  <0> d           1.167   2.095   0.002  0.00  0.00    -0.044 A 
ATOM      3  C3  <0> d           2.380   1.432  -0.013  0.00  0.00     0.135 A 
ATOM      4  C4  <0> d           2.408   0.033  -0.021  0.00  0.00     0.108 A 
ATOM      5  C5  <0> d           1.206  -0.683  -0.013  0.00  0.00     0.135 A 
ATOM      6  C6  <0> d           0.002  -0.004   0.002  0.00  0.00    -0.044 A 
ATOM      7  F1  <0> d           1.222  -2.034  -0.021  0.00  0.00    -0.205 F 
ATOM      8  F2  <0> d           3.535   2.133  -0.021  0.00  0.00    -0.205 F 
ATOM      9  H1  <0> d          -0.961   1.903   0.026  0.00  0.00     0.083 H 
ATOM     10  H2  <0> d           1.143   3.174   0.008  0.00  0.00     0.088 H 
ATOM     11  H3  <0> d          -0.927  -0.555   0.008  0.00  0.00     0.088 H 
ENDROOT
BRANCH   4  12
ATOM     12  C7  <0> d           3.698  -0.683  -0.037  0.00  0.00     0.255 C 
ATOM     13  O1  <0> d           4.240  -0.983   1.009  0.00  0.00    -0.268 OA
ATOM     14  N1  <0> d           4.276  -1.004  -1.212  0.00  0.00    -0.366 N 
ATOM     15  H4  <0> d           3.843  -0.764  -2.046  0.00  0.00     0.159 HD
ATOM     16  H5  <0> d           5.124  -1.474  -1.223  0.00  0.00     0.159 HD
ENDBRANCH   4  12
TORSDOF 1
