REMARK  5 active torsions:
REMARK  status: ('A' for Active; 'I' for Inactive)
REMARK    1  A    between atoms: C1_1  and  C2_2 
REMARK    2  A    between atoms: C2_2  and  C3_3 
REMARK    3  A    between atoms: C4_4  and  N4_11 
REMARK    4  A    between atoms: C5_6  and  C7_10 
REMARK    5  A    between atoms: C6_8  and  N3_9 
ROOT
ATOM      1  C3  <0> d          -0.718   1.572   1.248  0.00  0.00     0.033 A 
ATOM      2  C4  <0> d          -0.372   2.784   1.837  0.00  0.00     0.133 A 
ATOM      3  N1  <0> d          -1.023   3.181   2.929  0.00  0.00    -0.216 NA
ATOM      4  C5  <0> d          -1.975   2.438   3.457  0.00  0.00     0.126 A 
ATOM      5  N2  <0> d          -2.327   1.282   2.932  0.00  0.00    -0.216 NA
ATOM      6  C6  <0> d          -1.728   0.818   1.836  0.00  0.00     0.133 A 
ENDROOT
BRANCH   1   7
ATOM      7  C2  <0> d          -0.013   1.086   0.008  0.00  0.00    -0.037 C 
ATOM      8  H4  <0> d           0.002  -0.014   0.002  0.00  0.00     0.040 H 
ATOM      9  H5  <0> d           1.019   1.466   0.000  0.00  0.00     0.040 H 
BRANCH   7  10
ATOM     10  C1  <0> d          -0.753   1.593  -1.232  0.00  0.00    -0.072 C 
ATOM     11  H1  <0> d          -0.238   1.238  -2.136  0.00  0.00     0.028 H 
ATOM     12  H2  <0> d          -0.768   2.693  -1.225  0.00  0.00     0.028 H 
ATOM     13  H3  <0> d          -1.785   1.212  -1.224  0.00  0.00     0.028 H 
ENDBRANCH   7  10
ENDBRANCH   1   7
BRANCH   6  14
ATOM     14  N3  <0> d          -2.106  -0.400   1.291  0.00  0.00    -0.383 N 
ATOM     15  H6  <0> d          -2.906  -0.990   1.763  0.00  0.00     0.157 HD
ATOM     16  H7  <0> d          -1.606  -0.776   0.387  0.00  0.00     0.157 HD
ENDBRANCH   6  14
BRANCH   2  17
ATOM     17  N4  <0> d           0.632   3.569   1.293  0.00  0.00    -0.383 N 
ATOM     18  H11 <0> d           0.899   4.526   1.766  0.00  0.00     0.157 HD
ATOM     19  H12 <0> d           1.162   3.236   0.389  0.00  0.00     0.157 HD
ENDBRANCH   2  17
BRANCH   4  20
ATOM     20  C7  <0> d          -2.680   2.924   4.696  0.00  0.00    -0.019 C 
ATOM     21  H8  <0> d          -3.439   2.187   4.999  0.00  0.00     0.037 H 
ATOM     22  H9  <0> d          -3.168   3.887   4.486  0.00  0.00     0.037 H 
ATOM     23  H10 <0> d          -1.949   3.052   5.508  0.00  0.00     0.037 H 
ENDBRANCH   4  20
TORSDOF 5
