REMARK  1 active torsions:
REMARK  status: ('A' for Active; 'I' for Inactive)
REMARK    1  A    between atoms: C4_6  and  C5_8 
ROOT
ATOM      1  C5  <0> d          -0.791   1.611  -1.200  0.00  0.00     0.033 C 
ATOM      2  C6  <0> d          -2.131   1.002  -1.223  0.00  0.00     0.061 C 
ATOM      3  N2  <0> d          -3.165   0.532  -1.241  0.00  0.00    -0.197 NA
ATOM      4  H7  <0> d          -0.886   2.704  -1.128  0.00  0.00     0.058 H 
ATOM      5  H8  <0> d          -0.254   1.349  -2.124  0.00  0.00     0.058 H 
ENDROOT
BRANCH   1   6
ATOM      6  C4  <0> d          -0.013   1.086   0.008  0.00  0.00     0.024 C 
ATOM      7  C1  <0> d           1.429   1.640  -0.003  0.00  0.00    -0.037 C 
ATOM      8  C2  <0> d           1.290   2.898   0.886  0.00  0.00     0.011 C 
ATOM      9  H2  <0> d           2.114   0.888   0.415  0.00  0.00     0.036 H 
ATOM     10  H3  <0> d           1.725   1.871  -1.037  0.00  0.00     0.036 H 
ATOM     11  C3  <0> d           0.096   2.600   1.766  0.00  0.00     0.217 C 
ATOM     12  H4  <0> d           2.211   3.035   1.473  0.00  0.00     0.047 H 
ATOM     13  H5  <0> d           1.125   3.780   0.250  0.00  0.00     0.047 H 
ATOM     14  O1  <0> d          -0.182   3.196   2.785  0.00  0.00    -0.274 OA
ATOM     15  N1  <0> d          -0.612   1.579   1.254  0.00  0.00    -0.356 N 
ATOM     16  H6  <0> d          -1.528   1.111   1.646  0.00  0.00     0.162 HD
ATOM     17  H1  <0> d          -0.058  -0.013  -0.011  0.00  0.00     0.073 H 
ENDBRANCH   1   6
TORSDOF 1
