REMARK  2 active torsions:
REMARK  status: ('A' for Active; 'I' for Inactive)
REMARK    1  A    between atoms: C1_1  and  C2_2 
REMARK    2  A    between atoms: C4_5  and  C7_10 
ROOT
ATOM      1  C2  <0> d           3.768   1.788   0.060  0.00  0.00     0.036 C 
ATOM      2  H1  <0> d           3.857   2.424  -0.821  0.00  0.00     0.082 H 
ATOM      3  C3  <0> d           2.459   0.997  -0.012  0.00  0.00    -0.029 C 
ATOM      4  C4  <0> d           1.280   1.975   0.000  0.00  0.00     0.035 C 
ATOM      5  H2  <0> d           1.322   2.608  -0.886  0.00  0.00     0.056 H 
ATOM      6  C5  <0> d           1.365   2.848   1.257  0.00  0.00    -0.033 C 
ATOM      7  C6  <0> d           2.718   3.565   1.280  0.00  0.00     0.021 C 
ATOM      8  O1  <0> d           3.770   2.599   1.236  0.00  0.00    -0.386 OA
ATOM      9  H6  <0> d           2.389   0.331   0.848  0.00  0.00     0.038 H 
ATOM     10  H7  <0> d           2.437   0.411  -0.930  0.00  0.00     0.038 H 
ATOM     11  H8  <0> d           0.561   3.583   1.244  0.00  0.00     0.037 H 
ATOM     12  H9  <0> d           1.272   2.220   2.143  0.00  0.00     0.037 H 
ATOM     13  H10 <0> d           2.802   4.152   2.194  0.00  0.00     0.074 H 
ATOM     14  H11 <0> d           2.793   4.224   0.415  0.00  0.00     0.074 H 
ENDROOT
BRANCH   1  15
ATOM     15  C1  <0> d           4.949   0.816   0.109  0.00  0.00    -0.052 C 
ATOM     16  H3  <0> d           4.947   0.196  -0.788  0.00  0.00     0.030 H 
ATOM     17  H4  <0> d           5.881   1.378   0.159  0.00  0.00     0.030 H 
ATOM     18  H5  <0> d           4.860   0.180   0.990  0.00  0.00     0.030 H 
ENDBRANCH   1  15
BRANCH   4  19
ATOM     19  C7  <0> d          -0.014   1.204   0.009  0.00  0.00     0.177 C 
ATOM     20  O2  <0> d           0.002  -0.004   0.002  0.00  0.00    -0.648 OA
ATOM     21  O3  <0> d          -1.186   1.859   0.018  0.00  0.00    -0.648 OA
ENDBRANCH   4  19
TORSDOF 2
