REMARK  2 active torsions:
REMARK  status: ('A' for Active; 'I' for Inactive)
REMARK    1  A    between atoms: C1_1  and  C2_2 
REMARK    2  A    between atoms: C5_5  and  N2_10 
ROOT
ATOM      1  C2  <0> d          -3.644   3.021   0.036  0.00  0.00    -0.041 A 
ATOM      2  C3  <0> d          -2.453   3.718   0.034  0.00  0.00    -0.074 A 
ATOM      3  C4  <0> d          -1.249   3.038   0.030  0.00  0.00    -0.057 A 
ATOM      4  C5  <0> d          -1.230   1.648   0.017  0.00  0.00     0.027 A 
ATOM      5  C6  <0> d          -2.421   0.939   0.019  0.00  0.00    -0.037 A 
ATOM      6  C7  <0> d          -3.636   1.625   0.028  0.00  0.00     0.052 A 
ATOM      7  C8  <0> d          -4.871   0.899   0.029  0.00  0.00     0.100 C 
ATOM      8  N1  <0> d          -5.851   0.324   0.031  0.00  0.00    -0.191 NA
ATOM      9  H4  <0> d          -2.461   4.798   0.040  0.00  0.00     0.084 H 
ATOM     10  H5  <0> d          -0.320   3.589   0.034  0.00  0.00     0.086 H 
ATOM     11  H6  <0> d          -2.409  -0.141   0.013  0.00  0.00     0.089 H 
ENDROOT
BRANCH   1  12
ATOM     12  C1  <0> d          -4.953   3.767   0.045  0.00  0.00    -0.050 C 
ATOM     13  H1  <0> d          -5.264   3.942   1.075  0.00  0.00     0.033 H 
ATOM     14  H2  <0> d          -4.830   4.723  -0.464  0.00  0.00     0.033 H 
ATOM     15  H3  <0> d          -5.712   3.177  -0.468  0.00  0.00     0.033 H 
ENDBRANCH   1  12
BRANCH   4  16
ATOM     16  N2  <0> d          -0.011   0.966   0.007  0.00  0.00    -0.399 N 
ATOM     17  H7  <0> d           0.002  -0.004   0.002  0.00  0.00     0.156 HD
ATOM     18  H8  <0> d           0.822   1.462   0.002  0.00  0.00     0.156 HD
ENDBRANCH   4  16
TORSDOF 2
