REMARK  0 active torsions:
REMARK  status: ('A' for Active; 'I' for Inactive)
ROOT
ATOM      1  C1  <0> d          -0.019   1.526   0.010  0.00  0.00    -0.065 C 
ATOM      2  C2  <0> d           1.417   2.055  -0.000  0.00  0.00    -0.062 C 
ATOM      3  C3  <0> d           2.133   1.562  -1.259  0.00  0.00    -0.036 C 
ATOM      4  C4  <0> d           2.154   0.032  -1.268  0.00  0.00     0.079 C 
ATOM      5  C5  <0> d           0.718  -0.497  -1.257  0.00  0.00    -0.036 C 
ATOM      6  C6  <0> d           0.002  -0.004   0.002  0.00  0.00    -0.062 C 
ATOM      7  F1  <0> d           2.808  -0.419  -2.419  0.00  0.00    -0.249 F 
ATOM      8  H1  <0> d          -0.529   1.877   0.907  0.00  0.00     0.033 H 
ATOM      9  H2  <0> d          -0.546   1.887  -0.873  0.00  0.00     0.033 H 
ATOM     10  H3  <0> d           1.402   3.145   0.006  0.00  0.00     0.033 H 
ATOM     11  H4  <0> d           1.944   1.694   0.883  0.00  0.00     0.033 H 
ATOM     12  H5  <0> d           1.606   1.923  -2.142  0.00  0.00     0.037 H 
ATOM     13  H6  <0> d           3.155   1.939  -1.267  0.00  0.00     0.037 H 
ATOM     14  H7  <0> d           2.681  -0.329  -0.385  0.00  0.00     0.091 H 
ATOM     15  H8  <0> d           0.191  -0.136  -2.140  0.00  0.00     0.037 H 
ATOM     16  H9  <0> d           0.733  -1.587  -1.263  0.00  0.00     0.037 H 
ATOM     17  H10 <0> d           0.529  -0.365   0.885  0.00  0.00     0.033 H 
ATOM     18  H11 <0> d          -1.020  -0.381   0.010  0.00  0.00     0.033 H 
ENDROOT
TORSDOF 0
