REMARK  2 active torsions:
REMARK  status: ('A' for Active; 'I' for Inactive)
REMARK    1  A    between atoms: C2_3  and  C3_5 
REMARK    2  A    between atoms: C2_3  and  N3_8 
REMARK       I    between atoms: C3_5  and  N2_7 
REMARK       I    between atoms: N3_8  and  C4_9 
REMARK       I    between atoms: C4_9  and  N4_11 
ROOT
ATOM      1  C1  <0> d          -1.665   2.034  -1.362  0.00  0.00     0.094 C 
ATOM      2  N1  <0> d          -1.955   2.306  -2.426  0.00  0.00    -0.195 NA
ATOM      3  C2  <0> d          -1.290   1.681   0.017  0.00  0.00     0.174 C 
ATOM      4  H1  <0> d          -1.193   2.590   0.611  0.00  0.00     0.111 H 
ENDROOT
BRANCH   3   5
ATOM      5  C3  <0> d          -2.354   0.799   0.618  0.00  0.00     0.252 C 
ATOM      6  O1  <0> d          -2.072  -0.317   1.000  0.00  0.00    -0.270 OA
ATOM      7  N2  <0> d          -3.619   1.251   0.731  0.00  0.00    -0.368 N 
ATOM      8  H2  <0> d          -3.844   2.143   0.425  0.00  0.00     0.159 HD
ATOM      9  H3  <0> d          -4.304   0.683   1.117  0.00  0.00     0.159 HD
ENDBRANCH   3   5
BRANCH   3  10
ATOM     10  N3  <0> d          -0.011   0.966   0.007  0.00  0.00    -0.318 N 
ATOM     11  C4  <0> d           1.147   1.655  -0.000  0.00  0.00     0.315 C 
ATOM     12  O2  <0> d           1.130   2.871   0.007  0.00  0.00    -0.248 OA
ATOM     13  N4  <0> d           2.323   0.998  -0.015  0.00  0.00    -0.352 N 
ATOM     14  H5  <0> d           2.336   0.028  -0.020  0.00  0.00     0.160 HD
ATOM     15  H6  <0> d           3.156   1.494  -0.020  0.00  0.00     0.160 HD
ATOM     16  H4  <0> d           0.002  -0.004   0.002  0.00  0.00     0.166 HD
ENDBRANCH   3  10
TORSDOF 2
