REMARK  0 active torsions:
REMARK  status: ('A' for Active; 'I' for Inactive)
ROOT
ATOM      1  C1  <0> d          -0.018   1.448   0.010  0.00  0.00    -0.053 A 
ATOM      2  C2  <0> d           1.274   1.835  -0.000  0.00  0.00    -0.022 A 
ATOM      3  N1  <0> d           2.078   0.727  -0.013  0.00  0.00    -0.368 N 
ATOM      4  H1  <0> d           3.048   0.747  -0.023  0.00  0.00     0.165 HD
ATOM      5  C3  <0> d           1.338  -0.386  -0.011  0.00  0.00     0.023 A 
ATOM      6  C4  <0> d           0.002  -0.004   0.002  0.00  0.00     0.034 A 
ATOM      7  C5  <0> d          -1.087  -0.987   0.002  0.00  0.00     0.161 C 
ATOM      8  O1  <0> d          -2.242  -0.679   0.213  0.00  0.00    -0.292 OA
ATOM      9  C6  <0> d          -0.662  -2.420  -0.281  0.00  0.00    -0.005 C 
ATOM     10  C7  <0> d           0.627  -2.705   0.496  0.00  0.00    -0.054 C 
ATOM     11  C8  <0> d           1.774  -1.829  -0.017  0.00  0.00    -0.025 C 
ATOM     12  H2  <0> d          -0.888   2.087   0.026  0.00  0.00     0.087 H 
ATOM     13  H3  <0> d           1.620   2.859   0.001  0.00  0.00     0.111 H 
ATOM     14  H4  <0> d          -1.444  -3.106   0.043  0.00  0.00     0.044 H 
ATOM     15  H5  <0> d          -0.482  -2.546  -1.349  0.00  0.00     0.044 H 
ATOM     16  H6  <0> d           0.462  -2.497   1.553  0.00  0.00     0.034 H 
ATOM     17  H7  <0> d           0.896  -3.754   0.375  0.00  0.00     0.034 H 
ATOM     18  H8  <0> d           2.034  -2.127  -1.033  0.00  0.00     0.042 H 
ATOM     19  H9  <0> d           2.642  -1.949   0.631  0.00  0.00     0.042 H 
ENDROOT
TORSDOF 0
