REMARK  8 active torsions:
REMARK  status: ('A' for Active; 'I' for Inactive)
REMARK    1  A    between atoms: C1_1  and  C2_2 
REMARK    2  A    between atoms: C2_2  and  C3_4 
REMARK    3  A    between atoms: C2_2  and  O4_11 
REMARK    4  A    between atoms: C3_4  and  O2_6 
REMARK    5  A    between atoms: O2_6  and  C4_7 
REMARK    6  A    between atoms: C4_7  and  C5_8 
REMARK    7  A    between atoms: C5_8  and  O3_9 
REMARK    8  A    between atoms: O3_9  and  C6_10 
ROOT
ATOM      1  O2  <0> d           1.139   1.891   0.001  0.00  0.00    -0.317 OA
ENDROOT
BRANCH   1   2
ATOM      2  C3  <0> d          -0.014   1.204   0.009  0.00  0.00     0.287 C 
ATOM      3  O1  <0> d           0.002  -0.004   0.002  0.00  0.00    -0.262 OA
BRANCH   2   4
ATOM      4  C2  <0> d          -1.329   1.940   0.019  0.00  0.00     0.115 C 
ATOM      5  H1  <0> d          -1.355   2.627   0.865  0.00  0.00     0.098 H 
BRANCH   4   6
ATOM      6  C1  <0> d          -1.483   2.728  -1.284  0.00  0.00    -0.044 C 
ATOM      7  H2  <0> d          -2.434   3.260  -1.276  0.00  0.00     0.031 H 
ATOM      8  H3  <0> d          -0.667   3.444  -1.373  0.00  0.00     0.031 H 
ATOM      9  H4  <0> d          -1.458   2.041  -2.129  0.00  0.00     0.031 H 
ENDBRANCH   4   6
BRANCH   4  10
ATOM     10  O4  <0> d          -2.400   1.000   0.136  0.00  0.00    -0.386 OA
ATOM     11  H12 <0> d          -3.278   1.405   0.149  0.00  0.00     0.210 HD
ENDBRANCH   4  10
ENDBRANCH   2   4
ENDBRANCH   1   2
BRANCH   1  12
ATOM     12  C4  <0> d           2.367   1.117  -0.015  0.00  0.00     0.048 C 
ATOM     13  H5  <0> d           2.409   0.484   0.872  0.00  0.00     0.078 H 
ATOM     14  H6  <0> d           2.392   0.493  -0.908  0.00  0.00     0.078 H 
BRANCH  12  15
ATOM     15  C5  <0> d           3.568   2.065  -0.021  0.00  0.00     0.039 C 
ATOM     16  H7  <0> d           4.487   1.488  -0.122  0.00  0.00     0.077 H 
ATOM     17  H8  <0> d           3.479   2.757  -0.858  0.00  0.00     0.077 H 
BRANCH  15  18
ATOM     18  O3  <0> d           3.600   2.801   1.204  0.00  0.00    -0.394 OA
BRANCH  18  19
ATOM     19  C6  <0> d           4.689   3.721   1.301  0.00  0.00     0.004 C 
ATOM     20  H9  <0> d           4.624   4.447   0.491  0.00  0.00     0.066 H 
ATOM     21  H10 <0> d           4.643   4.239   2.258  0.00  0.00     0.066 H 
ATOM     22  H11 <0> d           5.631   3.177   1.227  0.00  0.00     0.066 H 
ENDBRANCH  18  19
ENDBRANCH  15  18
ENDBRANCH  12  15
ENDBRANCH   1  12
TORSDOF 8
