REMARK  1 active torsions:
REMARK  status: ('A' for Active; 'I' for Inactive)
REMARK    1  A    between atoms: N1_9  and  C9_10 
ROOT
ATOM      1  C1  <0> d          -0.017   1.378   0.021  0.00  0.00    -0.082 A 
ATOM      2  C2  <0> d           1.174   2.082   0.015  0.00  0.00    -0.081 A 
ATOM      3  C3  <0> d           2.377   1.411  -0.004  0.00  0.00    -0.057 A 
ATOM      4  C4  <0> d           2.405   0.014  -0.017  0.00  0.00     0.036 A 
ATOM      5  C5  <0> d           1.206  -0.682  -0.010  0.00  0.00    -0.030 A 
ATOM      6  C6  <0> d           0.002  -0.004   0.009  0.00  0.00    -0.075 A 
ATOM      7  C7  <0> d           1.510  -2.163  -0.026  0.00  0.00    -0.024 A 
ATOM      8  C8  <0> d           3.046  -2.241  -0.043  0.00  0.00    -0.001 A 
ATOM      9  N1  <0> d           3.501  -0.849  -0.036  0.00  0.00    -0.375 N 
ATOM     10  H1  <0> d          -0.958   1.907   0.041  0.00  0.00     0.083 H 
ATOM     11  H2  <0> d           1.160   3.162   0.025  0.00  0.00     0.083 H 
ATOM     12  H3  <0> d           3.303   1.967  -0.010  0.00  0.00     0.086 H 
ATOM     13  H4  <0> d          -0.926  -0.555   0.014  0.00  0.00     0.084 H 
ATOM     14  H5  <0> d           1.115  -2.642   0.870  0.00  0.00     0.042 H 
ATOM     15  H6  <0> d           1.096  -2.627  -0.921  0.00  0.00     0.042 H 
ATOM     16  H7  <0> d           3.408  -2.762   0.844  0.00  0.00     0.064 H 
ATOM     17  H8  <0> d           3.389  -2.747  -0.946  0.00  0.00     0.064 H 
ENDROOT
BRANCH   9  18
ATOM     18  C9  <0> d           4.903  -0.424  -0.048  0.00  0.00     0.012 A 
ATOM     19  C11 <0> d           5.758  -0.774   1.172  0.00  0.00    -0.044 A 
ATOM     20  C10 <0> d           5.971  -1.515  -0.149  0.00  0.00    -0.044 A 
ATOM     21  H12 <0> d           6.520  -0.056   1.475  0.00  0.00     0.036 H 
ATOM     22  H13 <0> d           5.277  -1.319   1.983  0.00  0.00     0.036 H 
ATOM     23  H10 <0> d           5.630  -2.549  -0.207  0.00  0.00     0.036 H 
ATOM     24  H11 <0> d           6.874  -1.285  -0.716  0.00  0.00     0.036 H 
ATOM     25  H9  <0> d           5.103   0.524  -0.548  0.00  0.00     0.072 H 
ENDBRANCH   9  18
TORSDOF 1
