REMARK  3 active torsions:
REMARK  status: ('A' for Active; 'I' for Inactive)
REMARK    1  A    between atoms: C1_1  and  C2_2 
REMARK    2  A    between atoms: C4_4  and  C9_10 
REMARK    3  A    between atoms: C9_10  and  C10_12 
ROOT
ATOM      1  C2  <0> d           0.002  -0.004   0.002  0.00  0.00    -0.040 A 
ATOM      2  C3  <0> d           0.006  -0.686  -1.194  0.00  0.00    -0.062 A 
ATOM      3  C4  <0> d           0.025  -2.084  -1.202  0.00  0.00     0.010 A 
ATOM      4  C5  <0> d           0.041  -2.789   0.007  0.00  0.00    -0.068 A 
ATOM      5  C6  <0> d           0.037  -2.106   1.202  0.00  0.00    -0.061 A 
ATOM      6  C7  <0> d           0.023  -0.709   1.208  0.00  0.00     0.050 A 
ATOM      7  C8  <0> d           0.025   0.001   2.452  0.00  0.00     0.100 C 
ATOM      8  N1  <0> d           0.026   0.565   3.438  0.00  0.00    -0.191 NA
ATOM      9  H4  <0> d          -0.007  -0.141  -2.127  0.00  0.00     0.085 H 
ATOM     10  H5  <0> d           0.056  -3.869   0.002  0.00  0.00     0.085 H 
ATOM     11  H6  <0> d           0.049  -2.650   2.135  0.00  0.00     0.085 H 
ENDROOT
BRANCH   1  12
ATOM     12  C1  <0> d          -0.018   1.503   0.010  0.00  0.00    -0.050 C 
ATOM     13  H1  <0> d           1.004   1.880   0.003  0.00  0.00     0.033 H 
ATOM     14  H2  <0> d          -0.545   1.864  -0.873  0.00  0.00     0.033 H 
ATOM     15  H3  <0> d          -0.529   1.854   0.907  0.00  0.00     0.033 H 
ENDBRANCH   1  12
BRANCH   3  16
ATOM     16  C9  <0> d           0.029  -2.814  -2.480  0.00  0.00     0.155 C 
ATOM     17  O1  <0> d           0.015  -2.203  -3.527  0.00  0.00    -0.293 OA
BRANCH  16  18
ATOM     18  C10 <0> d           0.050  -4.321  -2.488  0.00  0.00    -0.017 C 
ATOM     19  H7  <0> d          -0.973  -4.699  -2.484  0.00  0.00     0.038 H 
ATOM     20  H8  <0> d           0.564  -4.673  -3.382  0.00  0.00     0.038 H 
ATOM     21  H9  <0> d           0.573  -4.681  -1.602  0.00  0.00     0.038 H 
ENDBRANCH  16  18
ENDBRANCH   3  16
TORSDOF 3
