REMARK  2 active torsions:
REMARK  status: ('A' for Active; 'I' for Inactive)
REMARK    1  A    between atoms: C3_3  and  C5_7 
REMARK    2  A    between atoms: C6_10  and  N3_12 
ROOT
ATOM      1  C1  <0> d          -0.013   1.086   0.008  0.00  0.00    -0.043 C 
ATOM      2  C2  <0> d          -0.811   1.623  -1.201  0.00  0.00    -0.032 C 
ATOM      3  C3  <0> d          -1.978   2.408  -0.561  0.00  0.00     0.104 C 
ATOM      4  H1  <0> d          -2.914   1.839  -0.467  0.00  0.00     0.096 H 
ATOM      5  O1  <0> d          -1.501   2.772   0.753  0.00  0.00    -0.378 OA
ATOM      6  C4  <0> d          -0.788   1.610   1.237  0.00  0.00     0.021 C 
ATOM      7  H2  <0> d           1.016   1.476   0.030  0.00  0.00     0.036 H 
ATOM      8  H3  <0> d           0.011  -0.014   0.031  0.00  0.00     0.036 H 
ATOM      9  H4  <0> d          -0.163   2.269  -1.811  0.00  0.00     0.037 H 
ATOM     10  H5  <0> d          -1.166   0.779  -1.810  0.00  0.00     0.037 H 
ATOM     11  H6  <0> d          -1.474   0.830   1.597  0.00  0.00     0.074 H 
ATOM     12  H7  <0> d          -0.077   1.870   2.035  0.00  0.00     0.074 H 
ENDROOT
BRANCH   3  13
ATOM     13  C5  <0> d          -2.284   3.643  -1.368  0.00  0.00     0.199 A 
ATOM     14  O2  <0> d          -3.336   3.816  -2.192  0.00  0.00    -0.257 OA
ATOM     15  C6  <0> d          -3.218   5.055  -2.702  0.00  0.00     0.265 A 
ATOM     16  N2  <0> d          -2.133   5.584  -2.191  0.00  0.00    -0.103 NA
ATOM     17  N1  <0> d          -1.583   4.739  -1.392  0.00  0.00    -0.122 NA
BRANCH  15  18
ATOM     18  N3  <0> d          -4.080   5.659  -3.599  0.00  0.00    -0.362 N 
ATOM     19  H8  <0> d          -4.965   5.115  -3.962  0.00  0.00     0.159 HD
ATOM     20  H9  <0> d          -3.881   6.682  -3.949  0.00  0.00     0.159 HD
ENDBRANCH  15  18
ENDBRANCH   3  13
TORSDOF 2
