REMARK  2 active torsions:
REMARK  status: ('A' for Active; 'I' for Inactive)
REMARK    1  A    between atoms: C6_6  and  C7_7 
REMARK    2  A    between atoms: C7_7  and  O1_8 
ROOT
ATOM      1  C1  <0> d           1.077   3.760  -1.184  0.00  0.00    -0.072 A 
ATOM      2  C2  <0> d           0.948   5.134  -1.181  0.00  0.00    -0.050 A 
ATOM      3  C3  <0> d           0.899   5.831   0.023  0.00  0.00     0.075 A 
ATOM      4  C4  <0> d           0.969   5.119   1.214  0.00  0.00    -0.022 A 
ATOM      5  C5  <0> d           1.094   3.747   1.209  0.00  0.00    -0.066 A 
ATOM      6  C6  <0> d           1.147   3.062   0.008  0.00  0.00    -0.034 A 
ATOM      7  C8  <0> d           0.875   6.128   2.342  0.00  0.00    -0.018 C 
ATOM      8  C9  <0> d           0.349   7.382   1.605  0.00  0.00     0.030 C 
ATOM      9  O2  <0> d           0.793   7.168   0.254  0.00  0.00    -0.350 OA
ATOM     10  H1  <0> d           1.120   3.226  -2.122  0.00  0.00     0.084 H 
ATOM     11  H2  <0> d           0.890   5.670  -2.116  0.00  0.00     0.087 H 
ATOM     12  H3  <0> d           1.151   3.207   2.142  0.00  0.00     0.085 H 
ATOM     13  H7  <0> d           0.168   5.798   3.103  0.00  0.00     0.043 H 
ATOM     14  H8  <0> d           1.856   6.316   2.779  0.00  0.00     0.043 H 
ATOM     15  H9  <0> d          -0.739   7.429   1.651  0.00  0.00     0.075 H 
ATOM     16  H10 <0> d           0.793   8.288   2.018  0.00  0.00     0.075 H 
ENDROOT
BRANCH   6  17
ATOM     17  C7  <0> d           1.286   1.562  -0.002  0.00  0.00     0.040 C 
ATOM     18  H4  <0> d           1.840   1.243   0.881  0.00  0.00     0.081 H 
ATOM     19  H5  <0> d           1.823   1.252  -0.899  0.00  0.00     0.081 H 
BRANCH  17  20
ATOM     20  O1  <0> d          -0.011   0.963   0.007  0.00  0.00    -0.396 OA
ATOM     21  H6  <0> d           0.002  -0.004   0.002  0.00  0.00     0.209 HD
ENDBRANCH  17  20
ENDBRANCH   6  17
TORSDOF 2
