REMARK  2 active torsions:
REMARK  status: ('A' for Active; 'I' for Inactive)
REMARK    1  A    between atoms: C2_2  and  C3_3 
REMARK    2  A    between atoms: C6_6  and  N1_10 
ROOT
ATOM      1  C1  <0> d           0.018  -1.178  -0.004  0.00  0.00    -0.149 C 
ATOM      2  C2  <0> d           0.002  -0.004   0.002  0.00  0.00    -0.071 C 
ATOM      3  H1  <0> d           0.032  -2.228  -0.010  0.00  0.00     0.166 H 
ENDROOT
BRANCH   2   4
ATOM      4  C3  <0> d          -0.017   1.428   0.010  0.00  0.00     0.094 A 
ATOM      5  C8  <0> d           1.183   2.145   0.002  0.00  0.00     0.140 A 
ATOM      6  C7  <0> d           1.159   3.525   0.004  0.00  0.00    -0.019 A 
ATOM      7  F1  <0> d           2.363   1.489  -0.012  0.00  0.00    -0.204 F 
ATOM      8  C6  <0> d          -0.055   4.202   0.025  0.00  0.00     0.031 A 
ATOM      9  H3  <0> d           2.086   4.080  -0.007  0.00  0.00     0.091 H 
ATOM     10  C5  <0> d          -1.250   3.493   0.038  0.00  0.00    -0.019 A 
ATOM     11  C4  <0> d          -1.236   2.112   0.031  0.00  0.00     0.140 A 
ATOM     12  H2  <0> d          -2.192   4.022   0.054  0.00  0.00     0.091 H 
ATOM     13  F2  <0> d          -2.399   1.424   0.044  0.00  0.00    -0.204 F 
BRANCH   8  14
ATOM     14  N1  <0> d          -0.074   5.597   0.032  0.00  0.00    -0.399 N 
ATOM     15  H4  <0> d          -0.920   6.071   0.047  0.00  0.00     0.156 HD
ATOM     16  H5  <0> d           0.759   6.093   0.023  0.00  0.00     0.156 HD
ENDBRANCH   8  14
ENDBRANCH   2   4
TORSDOF 2
