REMARK  2 active torsions:
REMARK  status: ('A' for Active; 'I' for Inactive)
REMARK    1  A    between atoms: C5_5  and  C8_8 
REMARK    2  A    between atoms: C8_8  and  O1_9 
ROOT
ATOM      1  C1  <0> d          -1.298   3.865   3.633  0.00  0.00    -0.065 C 
ATOM      2  C2  <0> d          -0.339   2.770   4.138  0.00  0.00    -0.065 C 
ATOM      3  C3  <0> d          -0.789   1.387   3.750  0.00  0.00    -0.065 C 
ATOM      4  C4  <0> d          -0.087   0.994   2.434  0.00  0.00    -0.060 C 
ATOM      5  C5  <0> d          -0.729   1.579   1.267  0.00  0.00    -0.034 C 
ATOM      6  C6  <0> d          -0.695   3.121   1.289  0.00  0.00    -0.060 C 
ATOM      7  C7  <0> d          -1.792   3.610   2.196  0.00  0.00    -0.065 C 
ATOM      8  H1  <0> d          -2.161   3.910   4.298  0.00  0.00     0.033 H 
ATOM      9  H2  <0> d          -0.783   4.824   3.663  0.00  0.00     0.033 H 
ATOM     10  H3  <0> d          -0.277   2.829   5.224  0.00  0.00     0.033 H 
ATOM     11  H4  <0> d           0.651   2.949   3.718  0.00  0.00     0.033 H 
ATOM     12  H5  <0> d          -1.869   1.380   3.605  0.00  0.00     0.033 H 
ATOM     13  H6  <0> d          -0.520   0.678   4.534  0.00  0.00     0.033 H 
ATOM     14  H7  <0> d          -0.100  -0.092   2.338  0.00  0.00     0.033 H 
ATOM     15  H8  <0> d           0.949   1.330   2.473  0.00  0.00     0.033 H 
ATOM     16  H9  <0> d          -1.768   1.250   1.233  0.00  0.00     0.043 H 
ATOM     17  H10 <0> d           0.270   3.461   1.664  0.00  0.00     0.033 H 
ATOM     18  H11 <0> d          -0.855   3.505   0.281  0.00  0.00     0.033 H 
ATOM     19  H12 <0> d          -2.587   2.865   2.222  0.00  0.00     0.033 H 
ATOM     20  H13 <0> d          -2.195   4.539   1.792  0.00  0.00     0.033 H 
ENDROOT
BRANCH   5  21
ATOM     21  C8  <0> d          -0.013   1.086   0.008  0.00  0.00     0.020 C 
ATOM     22  H14 <0> d           0.002  -0.004   0.002  0.00  0.00     0.074 H 
ATOM     23  H15 <0> d           1.010   1.463   0.000  0.00  0.00     0.074 H 
BRANCH  21  24
ATOM     24  O1  <0> d          -0.704   1.559  -1.150  0.00  0.00    -0.400 OA
ATOM     25  H16 <0> d          -0.304   1.284  -1.986  0.00  0.00     0.209 HD
ENDBRANCH  21  24
ENDBRANCH   5  21
TORSDOF 2
