REMARK  1 active torsions:
REMARK  status: ('A' for Active; 'I' for Inactive)
REMARK    1  A    between atoms: C1_1  and  C2_2 
ROOT
ATOM      1  C2  <0> d          -1.141  -0.703   0.367  0.00  0.00     0.042 A 
ATOM      2  C3  <0> d           0.002  -0.004   0.002  0.00  0.00     0.019 A 
ATOM      3  C4  <0> d           1.125  -0.720  -0.358  0.00  0.00     0.047 A 
ATOM      4  N1  <0> d           1.075  -2.046  -0.348  0.00  0.00    -0.246 NA
ATOM      5  C5  <0> d          -0.027  -2.677   0.002  0.00  0.00     0.087 A 
ATOM      6  N2  <0> d          -1.117  -2.026   0.355  0.00  0.00    -0.246 NA
ATOM      7  C6  <0> d           2.403  -0.035  -0.761  0.00  0.00     0.001 C 
ATOM      8  C7  <0> d           2.122   1.430  -1.101  0.00  0.00     0.117 C 
ATOM      9  N3  <0> d           1.350   2.028   0.000  0.00  0.00     0.088 N 
ATOM     10  C8  <0> d          -0.018   1.499   0.010  0.00  0.00     0.139 C 
ATOM     11  H4  <0> d          -0.037  -3.757   0.001  0.00  0.00     0.146 H 
ATOM     12  H5  <0> d           3.123  -0.083   0.070  0.00  0.00     0.044 H 
ATOM     13  H6  <0> d           2.827  -0.538  -1.642  0.00  0.00     0.044 H 
ATOM     14  H7  <0> d           3.074   1.967  -1.225  0.00  0.00     0.080 H 
ATOM     15  H8  <0> d           1.545   1.485  -2.036  0.00  0.00     0.080 H 
ATOM     16  H9  <0> d           1.834   1.790   0.959  0.00  0.00     0.316 HD
ATOM     17  H10 <0> d          -0.550   1.863  -0.881  0.00  0.00     0.087 H 
ATOM     18  H11 <0> d          -0.533   1.854   0.915  0.00  0.00     0.087 H 
ENDROOT
BRANCH   1  19
ATOM     19  C1  <0> d          -2.391   0.035   0.771  0.00  0.00    -0.035 C 
ATOM     20  H1  <0> d          -2.211   1.119   0.716  0.00  0.00     0.035 H 
ATOM     21  H2  <0> d          -2.662  -0.240   1.801  0.00  0.00     0.035 H 
ATOM     22  H3  <0> d          -3.212  -0.235   0.091  0.00  0.00     0.035 H 
ENDBRANCH   1  19
TORSDOF 1
