REMARK  2 active torsions:
REMARK  status: ('A' for Active; 'I' for Inactive)
REMARK    1  A    between atoms: C4_4  and  C6_7 
REMARK    2  A    between atoms: C6_7  and  O1_8 
ROOT
ATOM      1  C1  <0> d          -0.017   1.378   0.010  0.00  0.00    -0.065 A 
ATOM      2  C2  <0> d          -1.235   2.038   0.019  0.00  0.00    -0.044 A 
ATOM      3  C3  <0> d          -2.399   1.277   0.020  0.00  0.00     0.132 A 
ATOM      4  C4  <0> d          -2.299  -0.107   0.012  0.00  0.00     0.069 A 
ATOM      5  N1  <0> d          -1.120  -0.696   0.004  0.00  0.00    -0.365 N 
ATOM      6  C5  <0> d           0.002  -0.004   0.002  0.00  0.00    -0.023 A 
ATOM      7  O2  <0> d          -3.617   1.880   0.030  0.00  0.00    -0.190 OA
ATOM      8  H1  <0> d           0.907   1.937   0.004  0.00  0.00     0.085 H 
ATOM      9  H2  <0> d          -1.280   3.117   0.025  0.00  0.00     0.088 H 
ATOM     10  H3  <0> d           0.949  -0.524  -0.009  0.00  0.00     0.111 H 
ATOM     11  H7  <0> d          -1.077  -1.665  -0.001  0.00  0.00     0.165 HD
ENDROOT
BRANCH   4  12
ATOM     12  C6  <0> d          -3.552  -0.945   0.014  0.00  0.00     0.057 C 
ATOM     13  H4  <0> d          -4.135  -0.725   0.908  0.00  0.00     0.083 H 
ATOM     14  H5  <0> d          -4.144  -0.715  -0.872  0.00  0.00     0.083 H 
BRANCH  12  15
ATOM     15  O1  <0> d          -3.199  -2.330   0.005  0.00  0.00    -0.395 OA
ATOM     16  H6  <0> d          -3.957  -2.929   0.005  0.00  0.00     0.209 HD
ENDBRANCH  12  15
ENDBRANCH   4  12
TORSDOF 2
