REMARK  5 active torsions:
REMARK  status: ('A' for Active; 'I' for Inactive)
REMARK    1  A    between atoms: C1_1  and  C2_2 
REMARK    2  A    between atoms: C5_5  and  O2_10 
REMARK    3  A    between atoms: C7_7  and  O1_8 
REMARK    4  A    between atoms: O1_8  and  C8_9 
REMARK    5  A    between atoms: O2_10  and  C9_11 
ROOT
ATOM      1  C2  <0> d           1.175   1.782   0.000  0.00  0.00    -0.029 A 
ATOM      2  C3  <0> d          -0.013   1.076   0.008  0.00  0.00    -0.072 A 
ATOM      3  C4  <0> d          -1.219   1.749   0.017  0.00  0.00    -0.050 A 
ATOM      4  C5  <0> d          -1.240   3.137   0.031  0.00  0.00     0.070 A 
ATOM      5  C6  <0> d          -0.050   3.847   0.023  0.00  0.00    -0.018 A 
ATOM      6  C7  <0> d           1.159   3.169   0.008  0.00  0.00     0.076 A 
ATOM      7  H4  <0> d           0.002  -0.004   0.002  0.00  0.00     0.084 H 
ATOM      8  H5  <0> d          -2.146   1.195   0.019  0.00  0.00     0.087 H 
ATOM      9  H6  <0> d          -0.065   4.927   0.028  0.00  0.00     0.092 H 
ENDROOT
BRANCH   4  10
ATOM     10  O2  <0> d          -2.427   3.799   0.045  0.00  0.00    -0.356 OA
BRANCH  10  11
ATOM     11  C9  <0> d          -3.614   3.002   0.053  0.00  0.00     0.010 C 
ATOM     12  H10 <0> d          -3.621   2.369   0.940  0.00  0.00     0.066 H 
ATOM     13  H11 <0> d          -4.488   3.653   0.064  0.00  0.00     0.066 H 
ATOM     14  H12 <0> d          -3.638   2.377  -0.840  0.00  0.00     0.066 H 
ENDBRANCH  10  11
ENDBRANCH   4  10
BRANCH   6  15
ATOM     15  O1  <0> d           2.328   3.863   0.000  0.00  0.00    -0.355 OA
BRANCH  15  16
ATOM     16  C8  <0> d           2.236   5.289   0.008  0.00  0.00     0.010 C 
ATOM     17  H7  <0> d           1.691   5.623  -0.875  0.00  0.00     0.066 H 
ATOM     18  H8  <0> d           1.708   5.614   0.905  0.00  0.00     0.066 H 
ATOM     19  H9  <0> d           3.238   5.718   0.001  0.00  0.00     0.066 H 
ENDBRANCH  15  16
ENDBRANCH   6  15
BRANCH   1  20
ATOM     20  C1  <0> d           2.490   1.044  -0.016  0.00  0.00    -0.049 C 
ATOM     21  H1  <0> d           2.796   0.872  -1.048  0.00  0.00     0.033 H 
ATOM     22  H2  <0> d           3.247   1.640   0.494  0.00  0.00     0.033 H 
ATOM     23  H3  <0> d           2.376   0.088   0.494  0.00  0.00     0.033 H 
ENDBRANCH   1  20
TORSDOF 5
