REMARK  2 active torsions:
REMARK  status: ('A' for Active; 'I' for Inactive)
REMARK    1  A    between atoms: C1_1  and  C2_2 
REMARK    2  A    between atoms: C6_6  and  N1_8 
ROOT
ATOM      1  C2  <0> d          -1.243   3.133   0.030  0.00  0.00    -0.060 A 
ATOM      2  C3  <0> d          -1.220   1.750   0.017  0.00  0.00    -0.074 A 
ATOM      3  C4  <0> d          -0.013   1.076   0.008  0.00  0.00    -0.043 A 
ATOM      4  C5  <0> d           1.176   1.783   0.000  0.00  0.00     0.142 A 
ATOM      5  C6  <0> d           1.155   3.174   0.008  0.00  0.00     0.065 A 
ATOM      6  C7  <0> d          -0.060   3.846   0.022  0.00  0.00    -0.049 A 
ATOM      7  F1  <0> d           2.355   1.124  -0.014  0.00  0.00    -0.204 F 
ATOM      8  H4  <0> d          -2.147   1.196   0.019  0.00  0.00     0.084 H 
ATOM      9  H5  <0> d           0.002  -0.004   0.002  0.00  0.00     0.088 H 
ATOM     10  H6  <0> d          -0.080   4.926   0.028  0.00  0.00     0.087 H 
ENDROOT
BRANCH   1  11
ATOM     11  C1  <0> d          -2.561   3.863   0.045  0.00  0.00    -0.051 C 
ATOM     12  H1  <0> d          -2.888   4.044  -0.979  0.00  0.00     0.033 H 
ATOM     13  H2  <0> d          -3.305   3.258   0.563  0.00  0.00     0.033 H 
ATOM     14  H3  <0> d          -2.443   4.815   0.563  0.00  0.00     0.033 H 
ENDBRANCH   1  11
BRANCH   5  15
ATOM     15  N1  <0> d           2.354   3.893   0.001  0.00  0.00    -0.397 N 
ATOM     16  H7  <0> d           3.202   3.422  -0.009  0.00  0.00     0.156 HD
ATOM     17  H8  <0> d           2.338   4.862   0.005  0.00  0.00     0.156 HD
ENDBRANCH   5  15
TORSDOF 2
