REMARK  2 active torsions:
REMARK  status: ('A' for Active; 'I' for Inactive)
REMARK    1  A    between atoms: C1_1  and  O1_2 
REMARK    2  A    between atoms: O1_2  and  C2_3 
ROOT
ATOM      1  C2  <0> d          -0.196   1.209  -2.356  0.00  0.00     0.198 A 
ATOM      2  C3  <0> d          -0.808   1.635  -3.544  0.00  0.00     0.156 A 
ATOM      3  N1  <0> d          -1.895   2.389  -3.839  0.00  0.00    -0.236 NA
ATOM      4  C4  <0> d          -2.022   2.478  -5.131  0.00  0.00     0.066 A 
ATOM      5  N2  <0> d          -1.023   1.786  -5.747  0.00  0.00    -0.333 N 
ATOM      6  C5  <0> d          -0.235   1.240  -4.765  0.00  0.00     0.163 A 
ATOM      7  N3  <0> d           0.857   0.483  -4.751  0.00  0.00    -0.222 NA
ATOM      8  C6  <0> d           1.396   0.107  -3.611  0.00  0.00     0.091 A 
ATOM      9  N4  <0> d           0.896   0.459  -2.440  0.00  0.00    -0.216 NA
ATOM     10  H1  <0> d          -0.892   1.697  -6.704  0.00  0.00     0.168 HD
ATOM     11  H5  <0> d          -2.805   3.021  -5.640  0.00  0.00     0.143 H 
ATOM     12  H6  <0> d           2.283  -0.509  -3.633  0.00  0.00     0.146 H 
ENDROOT
BRANCH   1  13
ATOM     13  O1  <0> d          -0.704   1.559  -1.150  0.00  0.00    -0.338 OA
BRANCH  13  14
ATOM     14  C1  <0> d          -0.013   1.086   0.008  0.00  0.00     0.012 C 
ATOM     15  H2  <0> d           0.002  -0.004   0.002  0.00  0.00     0.067 H 
ATOM     16  H3  <0> d           1.010   1.463   0.000  0.00  0.00     0.067 H 
ATOM     17  H4  <0> d          -0.523   1.437   0.905  0.00  0.00     0.067 H 
ENDBRANCH  13  14
ENDBRANCH   1  13
TORSDOF 2
