REMARK  2 active torsions:
REMARK  status: ('A' for Active; 'I' for Inactive)
REMARK    1  A    between atoms: C1_1  and  C2_2 
REMARK    2  A    between atoms: C2_2  and  C3_4 
ROOT
ATOM      1  C3  <0> d          -2.170   1.797   1.227  0.00  0.00     0.010 A 
ATOM      2  C4  <0> d          -2.900   1.565   0.049  0.00  0.00    -0.067 A 
ATOM      3  C5  <0> d          -4.247   1.764   0.016  0.00  0.00    -0.056 A 
ATOM      4  C6  <0> d          -4.919   2.214   1.152  0.00  0.00     0.042 A 
ATOM      5  C7  <0> d          -4.198   2.456   2.339  0.00  0.00    -0.007 A 
ATOM      6  C8  <0> d          -2.823   2.247   2.374  0.00  0.00    -0.057 A 
ATOM      7  C9  <0> d          -5.184   2.910   3.325  0.00  0.00    -0.056 A 
ATOM      8  C10 <0> d          -6.376   2.916   2.711  0.00  0.00    -0.022 A 
ATOM      9  N1  <0> d          -6.236   2.502   1.413  0.00  0.00    -0.365 N 
ATOM     10  H1  <0> d          -6.960   2.425   0.772  0.00  0.00     0.165 HD
ATOM     11  H5  <0> d          -2.388   1.221  -0.838  0.00  0.00     0.085 H 
ATOM     12  H6  <0> d          -4.796   1.577  -0.895  0.00  0.00     0.087 H 
ATOM     13  H7  <0> d          -2.266   2.431   3.281  0.00  0.00     0.086 H 
ATOM     14  H8  <0> d          -4.987   3.187   4.350  0.00  0.00     0.086 H 
ATOM     15  H9  <0> d          -7.310   3.204   3.171  0.00  0.00     0.111 H 
ENDROOT
BRANCH   1  16
ATOM     16  C2  <0> d          -0.718   1.572   1.248  0.00  0.00     0.155 C 
ATOM     17  O1  <0> d          -0.087   1.777   2.263  0.00  0.00    -0.293 OA
BRANCH  16  18
ATOM     18  C1  <0> d          -0.013   1.086   0.008  0.00  0.00    -0.017 C 
ATOM     19  H2  <0> d           0.001   0.086   0.003  0.00  0.00     0.038 H 
ATOM     20  H3  <0> d           1.010   1.463   0.000  0.00  0.00     0.038 H 
ATOM     21  H4  <0> d          -0.540   1.447  -0.875  0.00  0.00     0.038 H 
ENDBRANCH  16  18
ENDBRANCH   1  16
TORSDOF 2
