REMARK  2 active torsions:
REMARK  status: ('A' for Active; 'I' for Inactive)
REMARK    1  A    between atoms: C4_4  and  N1_8 
REMARK    2  A    between atoms: C6_6  and  O1_7 
ROOT
ATOM      1  C1  <0> d           1.862   1.822   1.196  0.00  0.00    -0.049 A 
ATOM      2  C2  <0> d           3.120   2.396   1.189  0.00  0.00    -0.057 A 
ATOM      3  C3  <0> d           3.739   2.694  -0.010  0.00  0.00     0.060 A 
ATOM      4  C4  <0> d           3.101   2.411  -1.212  0.00  0.00     0.050 A 
ATOM      5  C5  <0> d           1.841   1.829  -1.206  0.00  0.00    -0.024 A 
ATOM      6  C6  <0> d           1.223   1.532  -0.001  0.00  0.00     0.068 A 
ATOM      7 Cl1  <0> d           5.316   3.421  -0.014  0.00  0.00    -0.082 Cl
ATOM      8  H1  <0> d           1.378   1.595   2.134  0.00  0.00     0.087 H 
ATOM      9  H2  <0> d           3.617   2.616   2.122  0.00  0.00     0.086 H 
ATOM     10  H3  <0> d           1.343   1.609  -2.139  0.00  0.00     0.091 H 
ENDROOT
BRANCH   4  11
ATOM     11  N1  <0> d           3.727   2.712  -2.425  0.00  0.00    -0.398 N 
ATOM     12  H5  <0> d           3.281   2.514  -3.263  0.00  0.00     0.156 HD
ATOM     13  H6  <0> d           4.608   3.118  -2.428  0.00  0.00     0.156 HD
ENDBRANCH   4  11
BRANCH   6  14
ATOM     14  O1  <0> d          -0.011   0.963   0.007  0.00  0.00    -0.361 OA
ATOM     15  H4  <0> d           0.002  -0.004   0.002  0.00  0.00     0.217 HD
ENDBRANCH   6  14
TORSDOF 2
