REMARK  0 active torsions:
REMARK  status: ('A' for Active; 'I' for Inactive)
ROOT
ATOM      1  C1  <0> d           1.163   2.606   0.005  0.00  0.00    -0.031 A 
ATOM      2  C2  <0> d           1.094   3.990   0.013  0.00  0.00     0.006 A 
ATOM      3  N1  <0> d          -0.093   4.576   0.028  0.00  0.00    -0.254 NA
ATOM      4  C3  <0> d          -1.200   3.860   0.034  0.00  0.00     0.087 A 
ATOM      5  N2  <0> d          -1.174   2.542   0.021  0.00  0.00    -0.235 NA
ATOM      6  C4  <0> d          -0.024   1.887   0.012  0.00  0.00     0.105 A 
ATOM      7 Br1  <0> d           0.002  -0.004   0.002  0.00  0.00    -0.029 Br
ATOM      8  H1  <0> d           2.116   2.100  -0.007  0.00  0.00     0.090 H 
ATOM      9  H2  <0> d           1.996   4.583   0.007  0.00  0.00     0.114 H 
ATOM     10  H3  <0> d          -2.153   4.367   0.046  0.00  0.00     0.146 H 
ENDROOT
TORSDOF 0
