REMARK  6 active torsions:
REMARK  status: ('A' for Active; 'I' for Inactive)
REMARK    1  A    between atoms: C1_1  and  C2_2 
REMARK    2  A    between atoms: C2_2  and  C3_3 
REMARK    3  A    between atoms: C2_2  and  C4_4 
REMARK    4  A    between atoms: C2_2  and  C5_5 
REMARK    5  A    between atoms: C7_7  and  N3_11 
REMARK    6  A    between atoms: N1_8  and  C8_10 
ROOT
ATOM      1  C5  <0> d           0.707  -0.490  -1.238  0.00  0.00     0.037 A 
ATOM      2  C6  <0> d           0.149  -1.294  -2.235  0.00  0.00    -0.016 A 
ATOM      3  C7  <0> d           1.105  -1.511  -3.180  0.00  0.00     0.117 A 
ATOM      4  N1  <0> d           2.224  -0.863  -2.784  0.00  0.00    -0.281 N 
ATOM      5  N2  <0> d           1.946  -0.227  -1.568  0.00  0.00    -0.301 N 
ATOM      6  H10 <0> d          -0.862  -1.676  -2.253  0.00  0.00     0.092 H 
ATOM      7  H16 <0> d           2.567   0.315  -1.055  0.00  0.00     0.187 HD
ENDROOT
BRANCH   1   8
ATOM      8  C2  <0> d           0.002  -0.004   0.002  0.00  0.00    -0.007 C 
BRANCH   8   9
ATOM      9  C1  <0> d          -0.019   1.526   0.010  0.00  0.00    -0.064 C 
ATOM     10  H1  <0> d           1.004   1.903   0.003  0.00  0.00     0.028 H 
ATOM     11  H2  <0> d          -0.546   1.887  -0.873  0.00  0.00     0.028 H 
ATOM     12  H3  <0> d          -0.529   1.877   0.907  0.00  0.00     0.028 H 
ENDBRANCH   8   9
BRANCH   8  13
ATOM     13  C3  <0> d           0.742  -0.511   1.242  0.00  0.00    -0.064 C 
ATOM     14  H4  <0> d           0.232  -0.159   2.138  0.00  0.00     0.028 H 
ATOM     15  H5  <0> d           0.757  -1.601   1.236  0.00  0.00     0.028 H 
ATOM     16  H6  <0> d           1.765  -0.134   1.234  0.00  0.00     0.028 H 
ENDBRANCH   8  13
BRANCH   8  17
ATOM     17  C4  <0> d          -1.433  -0.534   0.013  0.00  0.00    -0.064 C 
ATOM     18  H7  <0> d          -1.960  -0.173  -0.870  0.00  0.00     0.028 H 
ATOM     19  H8  <0> d          -1.419  -1.623   0.007  0.00  0.00     0.028 H 
ATOM     20  H9  <0> d          -1.944  -0.182   0.910  0.00  0.00     0.028 H 
ENDBRANCH   8  17
ENDBRANCH   1   8
BRANCH   4  21
ATOM     21  C8  <0> d           3.500  -0.827  -3.503  0.00  0.00     0.002 C 
ATOM     22  H11 <0> d           3.508   0.022  -4.187  0.00  0.00     0.059 H 
ATOM     23  H12 <0> d           4.317  -0.727  -2.789  0.00  0.00     0.059 H 
ATOM     24  H13 <0> d           3.623  -1.751  -4.069  0.00  0.00     0.059 H 
ENDBRANCH   4  21
BRANCH   3  25
ATOM     25  N3  <0> d           0.958  -2.264  -4.342  0.00  0.00    -0.384 N 
ATOM     26  H14 <0> d           0.110  -2.693  -4.538  0.00  0.00     0.157 HD
ATOM     27  H15 <0> d           1.703  -2.359  -4.955  0.00  0.00     0.157 HD
ENDBRANCH   3  25
TORSDOF 6
