REMARK  3 active torsions:
REMARK  status: ('A' for Active; 'I' for Inactive)
REMARK    1  A    between atoms: C1_1  and  O1_2 
REMARK    2  A    between atoms: O1_2  and  C2_3 
REMARK    3  A    between atoms: C4_5  and  C5_8 
REMARK       I    between atoms: C5_8  and  N2_10 
ROOT
ATOM      1  C2  <0> d          -0.017   1.414   0.010  0.00  0.00     0.193 A 
ATOM      2  C3  <0> d           0.002  -0.004   0.002  0.00  0.00     0.010 A 
ATOM      3  C4  <0> d           1.333  -0.312  -0.012  0.00  0.00     0.172 A 
ATOM      4  O2  <0> d           1.992   0.862  -0.012  0.00  0.00    -0.205 OA
ATOM      5  N1  <0> d           1.230   1.800  -0.000  0.00  0.00    -0.102 NA
ATOM      6  H4  <0> d          -0.839  -0.682   0.006  0.00  0.00     0.095 H 
ENDROOT
BRANCH   1   7
ATOM      7  O1  <0> d          -1.115   2.212   0.020  0.00  0.00    -0.338 OA
BRANCH   7   8
ATOM      8  C1  <0> d          -0.891   3.624   0.026  0.00  0.00     0.012 C 
ATOM      9  H1  <0> d          -1.858   4.148   0.034  0.00  0.00     0.067 H 
ATOM     10  H2  <0> d          -0.326   3.909  -0.873  0.00  0.00     0.067 H 
ATOM     11  H3  <0> d          -0.317   3.900   0.923  0.00  0.00     0.067 H 
ENDBRANCH   7   8
ENDBRANCH   1   7
BRANCH   3  12
ATOM     12  C5  <0> d           1.930  -1.662  -0.026  0.00  0.00     0.275 C 
ATOM     13  O3  <0> d           1.213  -2.643  -0.025  0.00  0.00    -0.266 OA
ATOM     14  N2  <0> d           3.270  -1.806  -0.039  0.00  0.00    -0.364 N 
ATOM     15  H5  <0> d           3.714  -2.812  -0.049  0.00  0.00     0.159 HD
ATOM     16  H6  <0> d           3.919  -0.918  -0.040  0.00  0.00     0.159 HD
ENDBRANCH   3  12
TORSDOF 3
