REMARK  1 active torsions:
REMARK  status: ('A' for Active; 'I' for Inactive)
REMARK    1  A    between atoms: C1_1  and  C2_2 
ROOT
ATOM      1  C2  <0> d           2.396   0.029  -0.021  0.00  0.00    -0.062 A 
ATOM      2  C3  <0> d           1.208  -0.679  -0.014  0.00  0.00    -0.077 A 
ATOM      3  C4  <0> d           0.002  -0.004   0.002  0.00  0.00    -0.083 A 
ATOM      4  C5  <0> d          -0.017   1.378   0.010  0.00  0.00    -0.083 A 
ATOM      5  C6  <0> d           1.171   2.086   0.002  0.00  0.00    -0.083 A 
ATOM      6  C7  <0> d           2.377   1.411  -0.014  0.00  0.00    -0.077 A 
ATOM      7  H4  <0> d           1.223  -1.759  -0.020  0.00  0.00     0.084 H 
ATOM      8  H5  <0> d          -0.926  -0.557   0.008  0.00  0.00     0.083 H 
ATOM      9  H6  <0> d          -0.959   1.905   0.017  0.00  0.00     0.083 H 
ATOM     10  H7  <0> d           1.156   3.165   0.008  0.00  0.00     0.083 H 
ATOM     11  H8  <0> d           3.305   1.963  -0.020  0.00  0.00     0.084 H 
ENDROOT
BRANCH   1  12
ATOM     12  C1  <0> d           3.711  -0.707  -0.038  0.00  0.00    -0.051 C 
ATOM     13  H1  <0> d           4.018  -0.879  -1.069  0.00  0.00     0.033 H 
ATOM     14  H2  <0> d           4.468  -0.111   0.472  0.00  0.00     0.033 H 
ATOM     15  H3  <0> d           3.599  -1.664   0.472  0.00  0.00     0.033 H 
ENDBRANCH   1  12
TORSDOF 1
