REMARK  5 active torsions:
REMARK  status: ('A' for Active; 'I' for Inactive)
REMARK    1  A    between atoms: C1_1  and  C2_2 
REMARK    2  A    between atoms: C2_2  and  C3_3 
REMARK    3  A    between atoms: C2_2  and  O1_4 
REMARK    4  A    between atoms: O1_4  and  C4_5 
REMARK    5  A    between atoms: C4_5  and  C5_6 
ROOT
ATOM      1  C4  <0> d           0.002  -0.004   0.002  0.00  0.00     0.044 C 
ATOM      2  H8  <0> d          -0.888  -0.377  -0.505  0.00  0.00     0.081 H 
ATOM      3  H9  <0> d           0.892  -0.352  -0.522  0.00  0.00     0.081 H 
ENDROOT
BRANCH   1   4
ATOM      4  O1  <0> d           0.021  -0.488   1.347  0.00  0.00    -0.382 OA
BRANCH   4   5
ATOM      5  C2  <0> d           0.042  -1.913   1.452  0.00  0.00     0.032 C 
ATOM      6  H4  <0> d           0.553  -2.333   0.586  0.00  0.00     0.082 H 
BRANCH   5   7
ATOM      7  C1  <0> d           0.781  -2.319   2.728  0.00  0.00    -0.052 C 
ATOM      8  H1  <0> d           0.269  -1.899   3.594  0.00  0.00     0.030 H 
ATOM      9  H2  <0> d           0.796  -3.406   2.808  0.00  0.00     0.030 H 
ATOM     10  H3  <0> d           1.803  -1.943   2.692  0.00  0.00     0.030 H 
ENDBRANCH   5   7
BRANCH   5  11
ATOM     11  C3  <0> d          -1.393  -2.441   1.503  0.00  0.00    -0.052 C 
ATOM     12  H5  <0> d          -1.378  -3.528   1.583  0.00  0.00     0.030 H 
ATOM     13  H6  <0> d          -1.905  -2.020   2.368  0.00  0.00     0.030 H 
ATOM     14  H7  <0> d          -1.920  -2.151   0.593  0.00  0.00     0.030 H 
ENDBRANCH   5  11
ENDBRANCH   4   5
ENDBRANCH   1   4
BRANCH   1  15
ATOM     15  C5  <0> d          -0.018   1.503   0.010  0.00  0.00    -0.035 A 
ATOM     16  C10 <0> d           1.169   2.210   0.003  0.00  0.00    -0.075 A 
ATOM     17  C9  <0> d           1.151   3.592   0.010  0.00  0.00    -0.082 A 
ATOM     18  H14 <0> d           2.112   1.683  -0.009  0.00  0.00     0.084 H 
ATOM     19  C8  <0> d          -0.056   4.267   0.025  0.00  0.00    -0.083 A 
ATOM     20  H13 <0> d           2.078   4.145   0.004  0.00  0.00     0.083 H 
ATOM     21  C7  <0> d          -1.244   3.560   0.032  0.00  0.00    -0.082 A 
ATOM     22  H12 <0> d          -0.070   5.347   0.031  0.00  0.00     0.083 H 
ATOM     23  C6  <0> d          -1.225   2.178   0.020  0.00  0.00    -0.075 A 
ATOM     24  H11 <0> d          -2.186   4.087   0.044  0.00  0.00     0.083 H 
ATOM     25  H10 <0> d          -2.153   1.625   0.021  0.00  0.00     0.084 H 
ENDBRANCH   1  15
TORSDOF 5
