REMARK  0 active torsions:
REMARK  status: ('A' for Active; 'I' for Inactive)
ROOT
ATOM      1  C1  <0> d          -0.017   1.384   0.010  0.00  0.00     0.001 A 
ATOM      2  C2  <0> d          -1.244   2.029   0.019  0.00  0.00     0.175 A 
ATOM      3  C3  <0> d          -2.408   1.269   0.020  0.00  0.00     0.241 A 
ATOM      4  N1  <0> d          -2.351  -0.053   0.013  0.00  0.00    -0.188 NA
ATOM      5  C4  <0> d          -1.198  -0.697   0.004  0.00  0.00     0.251 A 
ATOM      6  C5  <0> d           0.002  -0.004   0.002  0.00  0.00     0.177 A 
ATOM      7  F1  <0> d           1.177  -0.671  -0.013  0.00  0.00    -0.201 F 
ATOM      8  F2  <0> d          -1.188  -2.048  -0.002  0.00  0.00    -0.181 F 
ATOM      9  O1  <0> d          -3.615   1.889   0.029  0.00  0.00    -0.167 OA
ATOM     10  F3  <0> d          -1.309   3.378   0.027  0.00  0.00    -0.201 F 
ATOM     11  H1  <0> d           0.904   1.949   0.004  0.00  0.00     0.093 H 
ENDROOT
TORSDOF 0
