REMARK  7 active torsions:
REMARK  status: ('A' for Active; 'I' for Inactive)
REMARK    1  A    between atoms: C1_1  and  C2_2 
REMARK    2  A    between atoms: C2_2  and  C3_4 
REMARK    3  A    between atoms: C2_2  and  O2_9 
REMARK    4  A    between atoms: C3_4  and  C4_5 
REMARK    5  A    between atoms: C4_5  and  C5_6 
REMARK    6  A    between atoms: C5_6  and  O1_7 
REMARK    7  A    between atoms: O1_7  and  C6_8 
ROOT
ATOM      1  C3  <0> d          -0.754   3.448   1.277  0.00  0.00    -0.040 C 
ATOM      2  H5  <0> d           0.268   3.825   1.269  0.00  0.00     0.036 H 
ATOM      3  H6  <0> d          -1.281   3.809   0.394  0.00  0.00     0.036 H 
ENDROOT
BRANCH   1   4
ATOM      4  C2  <0> d          -1.470   3.942   2.536  0.00  0.00     0.032 C 
ATOM      5  H1  <0> d          -2.462   3.493   2.589  0.00  0.00     0.082 H 
BRANCH   4   6
ATOM      6  C1  <0> d          -1.601   5.465   2.484  0.00  0.00    -0.052 C 
ATOM      7  H2  <0> d          -2.177   5.750   1.603  0.00  0.00     0.030 H 
ATOM      8  H3  <0> d          -2.112   5.816   3.381  0.00  0.00     0.030 H 
ATOM      9  H4  <0> d          -0.609   5.913   2.431  0.00  0.00     0.030 H 
ENDBRANCH   4   6
BRANCH   4  10
ATOM     10  O2  <0> d          -0.716   3.567   3.691  0.00  0.00    -0.396 OA
ATOM     11  H14 <0> d           0.179   3.932   3.711  0.00  0.00     0.210 HD
ENDBRANCH   4  10
ENDBRANCH   1   4
BRANCH   1  12
ATOM     12  C4  <0> d          -0.733   1.918   1.269  0.00  0.00    -0.043 C 
ATOM     13  H7  <0> d          -1.756   1.541   1.276  0.00  0.00     0.036 H 
ATOM     14  H8  <0> d          -0.206   1.557   2.152  0.00  0.00     0.036 H 
BRANCH  12  15
ATOM     15  C5  <0> d          -0.017   1.425   0.010  0.00  0.00     0.019 C 
ATOM     16  H9  <0> d           1.005   1.802   0.002  0.00  0.00     0.074 H 
ATOM     17  H10 <0> d          -0.544   1.786  -0.873  0.00  0.00     0.074 H 
BRANCH  15  18
ATOM     18  O1  <0> d           0.002  -0.004   0.002  0.00  0.00    -0.396 OA
BRANCH  18  19
ATOM     19  C6  <0> d           0.652  -0.570  -1.138  0.00  0.00     0.004 C 
ATOM     20  H11 <0> d           1.688  -0.234  -1.169  0.00  0.00     0.066 H 
ATOM     21  H12 <0> d           0.624  -1.658  -1.069  0.00  0.00     0.066 H 
ATOM     22  H13 <0> d           0.139  -0.251  -2.045  0.00  0.00     0.066 H 
ENDBRANCH  18  19
ENDBRANCH  15  18
ENDBRANCH  12  15
ENDBRANCH   1  12
TORSDOF 7
