REMARK  4 active torsions:
REMARK  status: ('A' for Active; 'I' for Inactive)
REMARK    1  A    between atoms: C1_1  and  C2_2 
REMARK    2  A    between atoms: C2_2  and  O1_3 
REMARK    3  A    between atoms: O1_3  and  C3_4 
REMARK    4  A    between atoms: C3_4  and  C4_6 
ROOT
ATOM      1  C3  <0> d          -1.905   4.301   0.043  0.00  0.00     0.293 C 
ATOM      2  O2  <0> d          -3.062   3.928   0.051  0.00  0.00    -0.259 OA
ENDROOT
BRANCH   1   3
ATOM      3  O1  <0> d          -1.623   5.620   0.047  0.00  0.00    -0.318 OA
BRANCH   3   4
ATOM      4  C2  <0> d          -2.750   6.535   0.062  0.00  0.00     0.026 C 
ATOM      5  H4  <0> d          -3.364   6.370  -0.823  0.00  0.00     0.074 H 
ATOM      6  H5  <0> d          -3.348   6.360   0.957  0.00  0.00     0.074 H 
BRANCH   4   7
ATOM      7  C1  <0> d          -2.236   7.976   0.065  0.00  0.00    -0.056 C 
ATOM      8  H1  <0> d          -1.639   8.151  -0.829  0.00  0.00     0.030 H 
ATOM      9  H2  <0> d          -3.083   8.663   0.077  0.00  0.00     0.030 H 
ATOM     10  H3  <0> d          -1.622   8.141   0.951  0.00  0.00     0.030 H 
ENDBRANCH   4   7
ENDBRANCH   3   4
ENDBRANCH   1   3
BRANCH   1  11
ATOM     11  C4  <0> d          -0.814   3.316   0.028  0.00  0.00     0.046 A 
ATOM     12  C7  <0> d           0.510   3.706   0.017  0.00  0.00    -0.029 A 
ATOM     13  S1  <0> d           1.367   2.202   0.001  0.00  0.00    -0.113 SA
ATOM     14  H8  <0> d           0.914   4.708   0.018  0.00  0.00     0.096 H 
ATOM     15  C6  <0> d          -0.013   1.076   0.008  0.00  0.00    -0.044 A 
ATOM     16  C5  <0> d          -1.079   1.899   0.017  0.00  0.00    -0.060 A 
ATOM     17  H7  <0> d           0.002  -0.004   0.002  0.00  0.00     0.095 H 
ATOM     18  H6  <0> d          -2.088   1.514   0.018  0.00  0.00     0.085 H 
ENDBRANCH   1  11
TORSDOF 4
