REMARK  2 active torsions:
REMARK  status: ('A' for Active; 'I' for Inactive)
REMARK    1  A    between atoms: C1_1  and  C2_2 
REMARK    2  A    between atoms: C4_5  and  C7_10 
ROOT
ATOM      1  C2  <0> d          -1.527   3.539   0.131  0.00  0.00     0.036 C 
ATOM      2  H1  <0> d          -1.550   4.627   0.198  0.00  0.00     0.082 H 
ATOM      3  C3  <0> d          -0.838   3.123  -1.172  0.00  0.00    -0.029 C 
ATOM      4  C4  <0> d          -0.756   1.595  -1.231  0.00  0.00     0.035 C 
ATOM      5  H2  <0> d          -1.762   1.175  -1.251  0.00  0.00     0.056 H 
ATOM      6  C5  <0> d          -0.013   1.086   0.008  0.00  0.00    -0.033 C 
ATOM      7  C6  <0> d          -0.732   1.581   1.266  0.00  0.00     0.021 C 
ATOM      8  O1  <0> d          -0.802   3.008   1.242  0.00  0.00    -0.386 OA
ATOM      9  H6  <0> d           0.167   3.543  -1.203  0.00  0.00     0.038 H 
ATOM     10  H7  <0> d          -1.414   3.490  -2.022  0.00  0.00     0.038 H 
ATOM     11  H8  <0> d           0.002  -0.004   0.002  0.00  0.00     0.037 H 
ATOM     12  H9  <0> d           1.010   1.464   0.000  0.00  0.00     0.037 H 
ATOM     13  H10 <0> d          -1.740   1.169   1.294  0.00  0.00     0.074 H 
ATOM     14  H11 <0> d          -0.182   1.258   2.150  0.00  0.00     0.074 H 
ENDROOT
BRANCH   1  15
ATOM     15  C1  <0> d          -2.957   2.996   0.147  0.00  0.00    -0.052 C 
ATOM     16  H3  <0> d          -2.934   1.909   0.081  0.00  0.00     0.030 H 
ATOM     17  H4  <0> d          -3.447   3.293   1.075  0.00  0.00     0.030 H 
ATOM     18  H5  <0> d          -3.509   3.401  -0.701  0.00  0.00     0.030 H 
ENDBRANCH   1  15
BRANCH   4  19
ATOM     19  C7  <0> d          -0.011   1.177  -2.473  0.00  0.00     0.177 C 
ATOM     20  O2  <0> d           0.405   2.015  -3.238  0.00  0.00    -0.648 OA
ATOM     21  O3  <0> d           0.191  -0.125  -2.729  0.00  0.00    -0.648 OA
ENDBRANCH   4  19
TORSDOF 2
