REMARK  3 active torsions:
REMARK  status: ('A' for Active; 'I' for Inactive)
REMARK    1  A    between atoms: C1_1  and  C2_2 
REMARK    2  A    between atoms: C2_2  and  C3_4 
REMARK    3  A    between atoms: C6_7  and  O2_11 
ROOT
ATOM      1  C3  <0> d          -0.017   1.397   0.010  0.00  0.00     0.048 A 
ATOM      2  C4  <0> d           0.002  -0.004   0.002  0.00  0.00    -0.064 A 
ATOM      3  C5  <0> d           1.193  -0.671  -0.013  0.00  0.00    -0.050 A 
ATOM      4  C6  <0> d           2.393   0.034  -0.021  0.00  0.00     0.068 A 
ATOM      5  C7  <0> d           2.389   1.423  -0.013  0.00  0.00    -0.013 A 
ATOM      6  C8  <0> d           1.192   2.109   0.002  0.00  0.00     0.132 A 
ATOM      7  F1  <0> d           1.184   3.460   0.009  0.00  0.00    -0.205 F 
ATOM      8  H4  <0> d          -0.926  -0.556   0.008  0.00  0.00     0.085 H 
ATOM      9  H5  <0> d           1.204  -1.751  -0.020  0.00  0.00     0.087 H 
ATOM     10  H6  <0> d           3.323   1.966  -0.019  0.00  0.00     0.092 H 
ENDROOT
BRANCH   1  11
ATOM     11  C2  <0> d          -1.295   2.116   0.020  0.00  0.00     0.158 C 
ATOM     12  O1  <0> d          -1.309   3.329   0.026  0.00  0.00    -0.293 OA
BRANCH  11  13
ATOM     13  C1  <0> d          -2.592   1.348   0.022  0.00  0.00    -0.016 C 
ATOM     14  H1  <0> d          -2.635   0.768   0.835  0.00  0.00     0.038 H 
ATOM     15  H2  <0> d          -3.428   2.047   0.029  0.00  0.00     0.038 H 
ATOM     16  H3  <0> d          -2.647   0.726  -0.872  0.00  0.00     0.038 H 
ENDBRANCH  11  13
ENDBRANCH   1  11
BRANCH   4  17
ATOM     17  O2  <0> d           3.571  -0.638  -0.037  0.00  0.00    -0.361 OA
ATOM     18  H7  <0> d           3.904  -0.828  -0.925  0.00  0.00     0.217 HD
ENDBRANCH   4  17
TORSDOF 3
