REMARK  1 active torsions:
REMARK  status: ('A' for Active; 'I' for Inactive)
REMARK    1  A    between atoms: C4_4  and  O1_11 
ROOT
ATOM      1  C1  <0> d          -1.457  -0.520  -2.486  0.00  0.00    -0.065 C 
ATOM      2  C2  <0> d          -0.022   0.009  -2.496  0.00  0.00    -0.062 C 
ATOM      3  C3  <0> d           0.718  -0.497  -1.257  0.00  0.00    -0.036 C 
ATOM      4  C4  <0> d           0.002  -0.004   0.002  0.00  0.00     0.061 C 
ATOM      5  C5  <0> d           0.742  -0.511   1.242  0.00  0.00    -0.036 C 
ATOM      6  C6  <0> d           0.026  -0.018   2.500  0.00  0.00    -0.062 C 
ATOM      7  C7  <0> d          -1.409  -0.547   2.511  0.00  0.00    -0.065 C 
ATOM      8  C8  <0> d          -2.149  -0.040   1.272  0.00  0.00    -0.059 C 
ATOM      9  C9  <0> d          -1.433  -0.534   0.013  0.00  0.00    -0.024 C 
ATOM     10  C10 <0> d          -2.173  -0.027  -1.227  0.00  0.00    -0.059 C 
ATOM     11  H1  <0> d          -1.442  -1.610  -2.491  0.00  0.00     0.033 H 
ATOM     12  H2  <0> d          -1.984  -0.159  -3.369  0.00  0.00     0.033 H 
ATOM     13  H3  <0> d           0.488  -0.342  -3.393  0.00  0.00     0.033 H 
ATOM     14  H4  <0> d          -0.037   1.099  -2.490  0.00  0.00     0.033 H 
ATOM     15  H5  <0> d           1.741  -0.120  -1.264  0.00  0.00     0.037 H 
ATOM     16  H6  <0> d           0.733  -1.587  -1.263  0.00  0.00     0.037 H 
ATOM     17  H7  <0> d           0.757  -1.601   1.236  0.00  0.00     0.037 H 
ATOM     18  H8  <0> d           1.765  -0.134   1.234  0.00  0.00     0.037 H 
ATOM     19  H9  <0> d           0.011   1.072   2.506  0.00  0.00     0.033 H 
ATOM     20  H10 <0> d           0.553  -0.379   3.383  0.00  0.00     0.033 H 
ATOM     21  H11 <0> d          -1.920  -0.196   3.408  0.00  0.00     0.033 H 
ATOM     22  H12 <0> d          -1.395  -1.637   2.505  0.00  0.00     0.033 H 
ATOM     23  H13 <0> d          -2.164   1.050   1.278  0.00  0.00     0.033 H 
ATOM     24  H14 <0> d          -3.172  -0.417   1.279  0.00  0.00     0.033 H 
ATOM     25  H15 <0> d          -1.419  -1.623   0.007  0.00  0.00     0.044 H 
ATOM     26  H16 <0> d          -3.196  -0.404  -1.219  0.00  0.00     0.033 H 
ATOM     27  H17 <0> d          -2.188   1.063  -1.221  0.00  0.00     0.033 H 
ENDROOT
BRANCH   4  28
ATOM     28  O1  <0> d          -0.017   1.425   0.010  0.00  0.00    -0.389 OA
ATOM     29  H18 <0> d           0.861   1.830   0.004  0.00  0.00     0.210 HD
ENDBRANCH   4  28
TORSDOF 1
