REMARK  2 active torsions:
REMARK  status: ('A' for Active; 'I' for Inactive)
REMARK    1  A    between atoms: C1_1  and  S1_2 
REMARK    2  A    between atoms: S1_2  and  C2_3 
ROOT
ATOM      1  C2  <0> d          -0.856   3.282   0.026  0.00  0.00     0.007 A 
ATOM      2  C3  <0> d          -1.078   1.914   0.017  0.00  0.00    -0.060 A 
ATOM      3  C4  <0> d          -0.013   1.076   0.008  0.00  0.00    -0.044 A 
ATOM      4  S2  <0> d           1.360   2.217   0.001  0.00  0.00    -0.112 SA
ATOM      5  C5  <0> d           0.425   3.738   0.017  0.00  0.00    -0.029 A 
ATOM      6  H4  <0> d          -2.084   1.522   0.018  0.00  0.00     0.086 H 
ATOM      7  H5  <0> d           0.002  -0.004   0.002  0.00  0.00     0.095 H 
ATOM      8  H6  <0> d           0.784   4.757   0.019  0.00  0.00     0.097 H 
ENDROOT
BRANCH   1   9
ATOM      9  S1  <0> d          -2.209   4.410   0.044  0.00  0.00    -0.134 SA
BRANCH   9  10
ATOM     10  C1  <0> d          -1.419   6.043   0.044  0.00  0.00    -0.030 C 
ATOM     11  H1  <0> d          -2.186   6.818   0.055  0.00  0.00     0.042 H 
ATOM     12  H2  <0> d          -0.790   6.143   0.929  0.00  0.00     0.042 H 
ATOM     13  H3  <0> d          -0.807   6.151  -0.851  0.00  0.00     0.042 H 
ENDBRANCH   9  10
ENDBRANCH   1   9
TORSDOF 2
