REMARK  4 active torsions:
REMARK  status: ('A' for Active; 'I' for Inactive)
REMARK    1  A    between atoms: C2_2  and  C5_10 
REMARK    2  A    between atoms: C3_6  and  C4_7 
REMARK       I    between atoms: C4_7  and  N3_9 
REMARK    3  A    between atoms: C5_10  and  C6_11 
REMARK    4  A    between atoms: C6_11  and  O2_12 
ROOT
ATOM      1  C1  <0> d          -0.017   1.380   0.010  0.00  0.00    -0.025 A 
ATOM      2  C2  <0> d           1.325   1.768  -0.001  0.00  0.00     0.059 A 
ATOM      3  N1  <0> d           2.057   0.683  -0.014  0.00  0.00    -0.179 NA
ATOM      4  N2  <0> d           1.319  -0.368  -0.013  0.00  0.00    -0.273 N 
ATOM      5  H1  <0> d           1.646  -1.281  -0.021  0.00  0.00     0.189 HD
ATOM      6  C3  <0> d           0.002  -0.004   0.002  0.00  0.00     0.119 A 
ATOM      7  H2  <0> d          -0.884   2.023   0.025  0.00  0.00     0.090 H 
ENDROOT
BRANCH   2   8
ATOM      8  C5  <0> d           1.839   3.185   0.001  0.00  0.00    -0.004 C 
ATOM      9  H5  <0> d           2.362   3.383  -0.934  0.00  0.00     0.045 H 
ATOM     10  H6  <0> d           1.001   3.875   0.102  0.00  0.00     0.045 H 
BRANCH   8  11
ATOM     11  C6  <0> d           2.801   3.376   1.175  0.00  0.00     0.022 C 
ATOM     12  H7  <0> d           2.278   3.178   2.110  0.00  0.00     0.074 H 
ATOM     13  H8  <0> d           3.639   2.686   1.074  0.00  0.00     0.074 H 
BRANCH  11  14
ATOM     14  O2  <0> d           3.289   4.720   1.177  0.00  0.00    -0.400 OA
ATOM     15  H9  <0> d           3.906   4.913   1.896  0.00  0.00     0.209 HD
ENDBRANCH  11  14
ENDBRANCH   8  11
ENDBRANCH   2   8
BRANCH   6  16
ATOM     16  C4  <0> d          -1.163  -0.903   0.009  0.00  0.00     0.267 C 
ATOM     17  O1  <0> d          -2.288  -0.441   0.022  0.00  0.00    -0.266 OA
ATOM     18  N3  <0> d          -0.983  -2.239  -0.000  0.00  0.00    -0.365 N 
ATOM     19  H3  <0> d          -0.086  -2.608  -0.011  0.00  0.00     0.159 HD
ATOM     20  H4  <0> d          -1.751  -2.832   0.004  0.00  0.00     0.159 HD
ENDBRANCH   6  16
TORSDOF 4
