REMARK  1 active torsions:
REMARK  status: ('A' for Active; 'I' for Inactive)
REMARK    1  A    between atoms: C2_2  and  O3_13 
ROOT
ATOM      1  C1  <0> d           1.161   3.118   0.008  0.00  0.00    -0.035 C 
ATOM      2  C2  <0> d           1.286   1.562  -0.002  0.00  0.00     0.038 C 
ATOM      3  H1  <0> d           1.862   1.225   0.861  0.00  0.00     0.083 H 
ATOM      4  C3  <0> d           2.035   1.205  -1.323  0.00  0.00    -0.016 C 
ATOM      5  C4  <0> d           2.414   2.526  -1.896  0.00  0.00     0.054 C 
ATOM      6  H2  <0> d           3.245   2.885  -1.289  0.00  0.00     0.085 H 
ATOM      7  C5  <0> d           1.212   3.455  -1.476  0.00  0.00    -0.018 C 
ATOM      8  H3  <0> d           0.276   3.221  -1.984  0.00  0.00     0.044 H 
ATOM      9  C6  <0> d           1.816   4.766  -1.958  0.00  0.00     0.021 C 
ATOM     10  C7  <0> d           2.694   4.325  -3.135  0.00  0.00     0.259 C 
ATOM     11  O1  <0> d           3.308   5.060  -3.872  0.00  0.00    -0.265 OA
ATOM     12  O2  <0> d           2.666   2.952  -3.212  0.00  0.00    -0.316 OA
ATOM     13  H4  <0> d           0.212   3.429   0.444  0.00  0.00     0.037 H 
ATOM     14  H5  <0> d           1.998   3.571   0.540  0.00  0.00     0.037 H 
ATOM     15  H6  <0> d           2.924   0.612  -1.109  0.00  0.00     0.040 H 
ATOM     16  H7  <0> d           1.373   0.669  -2.003  0.00  0.00     0.040 H 
ATOM     17  H8  <0> d           1.037   5.450  -2.293  0.00  0.00     0.048 H 
ATOM     18  H9  <0> d           2.419   5.224  -1.174  0.00  0.00     0.048 H 
ENDROOT
BRANCH   2  19
ATOM     19  O3  <0> d          -0.011   0.963   0.007  0.00  0.00    -0.395 OA
ATOM     20  H10 <0> d           0.002  -0.004   0.002  0.00  0.00     0.210 HD
ENDBRANCH   2  19
TORSDOF 1
