REMARK  4 active torsions:
REMARK  status: ('A' for Active; 'I' for Inactive)
REMARK    1  A    between atoms: C1_1  and  C2_2 
REMARK    2  A    between atoms: C2_2  and  C3_4 
REMARK    3  A    between atoms: C2_2  and  C5_8 
REMARK    4  A    between atoms: C3_4  and  C4_5 
ROOT
ATOM      1  C2  <0> d          -2.479   0.930   0.019  0.00  0.00    -0.045 C 
ATOM      2  H1  <0> d          -2.357   0.236   0.864  0.00  0.00     0.040 H 
ENDROOT
BRANCH   1   3
ATOM      3  C1  <0> d          -2.466   0.142  -1.293  0.00  0.00    -0.072 C 
ATOM      4  H2  <0> d          -3.292  -0.584  -1.293  0.00  0.00     0.028 H 
ATOM      5  H3  <0> d          -1.509  -0.391  -1.391  0.00  0.00     0.028 H 
ATOM      6  H4  <0> d          -2.587   0.836  -2.138  0.00  0.00     0.028 H 
ENDBRANCH   1   3
BRANCH   1   7
ATOM      7  C3  <0> d          -1.329   1.940   0.019  0.00  0.00     0.019 C 
ATOM      8  H5  <0> d          -1.401   2.576  -0.875  0.00  0.00     0.049 H 
ATOM      9  H6  <0> d          -1.392   2.566   0.921  0.00  0.00     0.049 H 
BRANCH   7  10
ATOM     10  C4  <0> d          -0.014   1.204   0.009  0.00  0.00     0.172 C 
ATOM     11  O1  <0> d           0.002  -0.004   0.002  0.00  0.00    -0.648 OA
ATOM     12  O2  <0> d           1.139   1.891   0.001  0.00  0.00    -0.648 OA
ENDBRANCH   7  10
ENDBRANCH   1   7
BRANCH   1  13
ATOM     13  C5  <0> d          -3.810   1.672   0.155  0.00  0.00    -0.051 A 
ATOM     14  C7  <0> d          -5.088   0.832   0.175  0.00  0.00    -0.061 A 
ATOM     15  C6  <0> d          -4.588   1.494   1.460  0.00  0.00    -0.061 A 
ATOM     16  H10 <0> d          -5.825   1.268  -0.516  0.00  0.00     0.033 H 
ATOM     17  H11 <0> d          -4.856  -0.197  -0.138  0.00  0.00     0.033 H 
ATOM     18  H8  <0> d          -3.942   1.013   2.209  0.00  0.00     0.033 H 
ATOM     19  H9  <0> d          -4.910   2.478   1.832  0.00  0.00     0.033 H 
ATOM     20  H7  <0> d          -3.455   2.534  -0.428  0.00  0.00     0.040 H 
ENDBRANCH   1  13
TORSDOF 4
