REMARK  3 active torsions:
REMARK  status: ('A' for Active; 'I' for Inactive)
REMARK    1  A    between atoms: C1_1  and  C2_2 
REMARK    2  A    between atoms: C5_5  and  O1_9 
REMARK    3  A    between atoms: O1_9  and  C8_10 
ROOT
ATOM      1  C2  <0> d          -1.238   3.133   0.030  0.00  0.00    -0.060 A 
ATOM      2  C3  <0> d          -1.218   1.751   0.017  0.00  0.00    -0.074 A 
ATOM      3  C4  <0> d          -0.013   1.076   0.008  0.00  0.00    -0.049 A 
ATOM      4  C5  <0> d           1.179   1.786   0.000  0.00  0.00     0.089 A 
ATOM      5  C6  <0> d           1.157   3.174   0.008  0.00  0.00     0.067 A 
ATOM      6  C7  <0> d          -0.052   3.844   0.023  0.00  0.00    -0.053 A 
ATOM      7 Cl1  <0> d           2.645   4.067  -0.002  0.00  0.00    -0.081 Cl
ATOM      8  H4  <0> d          -2.146   1.198   0.018  0.00  0.00     0.084 H 
ATOM      9  H5  <0> d           0.002  -0.004   0.002  0.00  0.00     0.087 H 
ATOM     10  H6  <0> d          -0.071   4.924   0.029  0.00  0.00     0.087 H 
ENDROOT
BRANCH   4  11
ATOM     11  O1  <0> d           2.366   1.124  -0.015  0.00  0.00    -0.354 OA
BRANCH  11  12
ATOM     12  C8  <0> d           2.313  -0.304  -0.023  0.00  0.00     0.010 C 
ATOM     13  H7  <0> d           1.794  -0.653   0.870  0.00  0.00     0.066 H 
ATOM     14  H8  <0> d           1.777  -0.642  -0.909  0.00  0.00     0.066 H 
ATOM     15  H9  <0> d           3.326  -0.705  -0.035  0.00  0.00     0.066 H 
ENDBRANCH  11  12
ENDBRANCH   4  11
BRANCH   1  16
ATOM     16  C1  <0> d          -2.555   3.866   0.046  0.00  0.00    -0.051 C 
ATOM     17  H1  <0> d          -2.881   4.049  -0.977  0.00  0.00     0.033 H 
ATOM     18  H2  <0> d          -3.300   3.263   0.564  0.00  0.00     0.033 H 
ATOM     19  H3  <0> d          -2.434   4.818   0.564  0.00  0.00     0.033 H 
ENDBRANCH   1  16
TORSDOF 3
