REMARK  3 active torsions:
REMARK  status: ('A' for Active; 'I' for Inactive)
REMARK    1  A    between atoms: C1_1  and  C2_2 
REMARK    2  A    between atoms: C2_2  and  C8_12 
REMARK    3  A    between atoms: C3_3  and  C6_9 
ROOT
ATOM      1  C2  <0> d          -0.259   1.108  -2.596  0.00  0.00    -0.025 A 
ATOM      2  C3  <0> d          -0.753   1.593  -1.232  0.00  0.00    -0.018 A 
ATOM      3  H1  <0> d          -1.825   1.745  -1.109  0.00  0.00     0.044 H 
ATOM      4  C4  <0> d          -0.004   2.552  -2.159  0.00  0.00     0.042 A 
ATOM      5  H2  <0> d          -0.583   3.336  -2.646  0.00  0.00     0.064 H 
ATOM      6  C5  <0> d           1.374   2.917  -1.790  0.00  0.00     0.065 C 
ATOM      7  N1  <0> d           2.437   3.198  -1.505  0.00  0.00    -0.197 NA
ENDROOT
BRANCH   1   8
ATOM      8  C1  <0> d           0.937   0.154  -2.617  0.00  0.00    -0.068 C 
ATOM      9  H3  <0> d           0.689  -0.751  -2.063  0.00  0.00     0.028 H 
ATOM     10  H4  <0> d           1.177  -0.105  -3.648  0.00  0.00     0.028 H 
ATOM     11  H5  <0> d           1.797   0.639  -2.155  0.00  0.00     0.028 H 
ENDBRANCH   1   8
BRANCH   1  12
ATOM     12  C8  <0> d          -1.308   0.875  -3.685  0.00  0.00    -0.068 C 
ATOM     13  H8  <0> d          -1.838   1.806  -3.884  0.00  0.00     0.028 H 
ATOM     14  H9  <0> d          -0.817   0.534  -4.596  0.00  0.00     0.028 H 
ATOM     15  H10 <0> d          -2.017   0.118  -3.350  0.00  0.00     0.028 H 
ENDBRANCH   1  12
BRANCH   2  16
ATOM     16  C6  <0> d          -0.013   1.086   0.008  0.00  0.00     0.020 C 
ATOM     17  C7  <0> d          -0.702   1.560   1.219  0.00  0.00     0.059 C 
ATOM     18  N2  <0> d          -1.233   1.927   2.154  0.00  0.00    -0.197 NA
ATOM     19  H6  <0> d           0.002  -0.004   0.002  0.00  0.00     0.055 H 
ATOM     20  H7  <0> d           1.010   1.463   0.000  0.00  0.00     0.055 H 
ENDBRANCH   2  16
TORSDOF 3
