REMARK  0 active torsions:
REMARK  status: ('A' for Active; 'I' for Inactive)
ROOT
ATOM      1  C1  <0> d          -0.017   1.427   0.010  0.00  0.00     0.108 C 
ATOM      2  O1  <0> d           1.330   1.911  -0.000  0.00  0.00    -0.343 OA
ATOM      3  C2  <0> d           2.127   1.398   1.072  0.00  0.00     0.108 C 
ATOM      4  O2  <0> d           2.090  -0.033   1.036  0.00  0.00    -0.343 OA
ATOM      5  C3  <0> d           0.763  -0.569   1.075  0.00  0.00     0.108 C 
ATOM      6  O3  <0> d           0.002  -0.004   0.002  0.00  0.00    -0.343 OA
ATOM      7  H1  <0> d          -0.525   1.780   0.908  0.00  0.00     0.117 H 
ATOM      8  H2  <0> d          -0.542   1.790  -0.874  0.00  0.00     0.117 H 
ATOM      9  H3  <0> d           3.156   1.739   0.957  0.00  0.00     0.117 H 
ATOM     10  H4  <0> d           1.728   1.749   2.024  0.00  0.00     0.117 H 
ATOM     11  H5  <0> d           0.804  -1.652   0.962  0.00  0.00     0.117 H 
ATOM     12  H6  <0> d           0.295  -0.317   2.026  0.00  0.00     0.117 H 
ENDROOT
TORSDOF 0
