REMARK  2 active torsions:
REMARK  status: ('A' for Active; 'I' for Inactive)
REMARK    1  A    between atoms: C1_1  and  O1_2 
REMARK    2  A    between atoms: O1_2  and  C2_3 
ROOT
ATOM      1  C2  <0> d          -2.991   3.815   0.048  0.00  0.00     0.069 A 
ATOM      2  C3  <0> d          -3.411   2.486   0.045  0.00  0.00    -0.049 A 
ATOM      3  C4  <0> d          -2.503   1.466   0.032  0.00  0.00    -0.052 A 
ATOM      4  C5  <0> d          -1.139   1.747   0.016  0.00  0.00     0.062 A 
ATOM      5  C6  <0> d          -0.704   3.086   0.024  0.00  0.00     0.014 A 
ATOM      6  C7  <0> d          -1.647   4.121   0.037  0.00  0.00    -0.037 A 
ATOM      7  C8  <0> d           0.754   3.044   0.010  0.00  0.00     0.034 A 
ATOM      8  N1  <0> d           1.117   1.793   0.001  0.00  0.00    -0.186 NA
ATOM      9  N2  <0> d          -0.011   0.966   0.007  0.00  0.00    -0.278 N 
ATOM     10  H1  <0> d           0.003  -0.034   0.006  0.00  0.00     0.189 HD
ATOM     11  H5  <0> d          -4.467   2.260   0.053  0.00  0.00     0.087 H 
ATOM     12  H6  <0> d          -2.843   0.441   0.029  0.00  0.00     0.087 H 
ATOM     13  H7  <0> d          -1.323   5.151   0.040  0.00  0.00     0.089 H 
ATOM     14  H8  <0> d           1.415   3.898   0.008  0.00  0.00     0.118 H 
ENDROOT
BRANCH   1  15
ATOM     15  O1  <0> d          -3.912   4.815   0.060  0.00  0.00    -0.356 OA
BRANCH  15  16
ATOM     16  C1  <0> d          -5.288   4.430   0.071  0.00  0.00     0.010 C 
ATOM     17  H2  <0> d          -5.915   5.322   0.081  0.00  0.00     0.066 H 
ATOM     18  H3  <0> d          -5.507   3.842  -0.820  0.00  0.00     0.066 H 
ATOM     19  H4  <0> d          -5.491   3.833   0.960  0.00  0.00     0.066 H 
ENDBRANCH  15  16
ENDBRANCH   1  15
TORSDOF 2
