REMARK  1 active torsions:
REMARK  status: ('A' for Active; 'I' for Inactive)
REMARK    1  A    between atoms: C1_1  and  N1_2 
ROOT
ATOM      1  N1  <0> d           0.002  -0.004   0.002  0.00  0.00     0.106 N 
ATOM      2  C2  <0> d           0.607  -0.516  -1.236  0.00  0.00     0.134 C 
ATOM      3  C3  <0> d           0.553  -2.046  -1.230  0.00  0.00     0.044 C 
ATOM      4  O1  <0> d           1.216  -2.536  -0.061  0.00  0.00    -0.386 OA
ATOM      5  C4  <0> d           0.652  -2.058   1.164  0.00  0.00     0.061 C 
ATOM      6  C5  <0> d           0.707  -0.528   1.181  0.00  0.00     0.236 C 
ATOM      7  H1  <0> d           1.746  -0.201   1.159  0.00  0.00     0.115 H 
ATOM      8  C6  <0> d           0.058  -0.027   2.404  0.00  0.00     0.097 C 
ATOM      9  N2  <0> d          -0.442   0.360   3.348  0.00  0.00    -0.195 NA
ATOM     10  H5  <0> d           0.054  -0.136  -2.095  0.00  0.00     0.083 H 
ATOM     11  H6  <0> d           1.645  -0.188  -1.297  0.00  0.00     0.083 H 
ATOM     12  H7  <0> d          -0.486  -2.374  -1.223  0.00  0.00     0.077 H 
ATOM     13  H8  <0> d           1.052  -2.432  -2.119  0.00  0.00     0.077 H 
ATOM     14  H9  <0> d          -0.385  -2.386   1.240  0.00  0.00     0.079 H 
ATOM     15  H10 <0> d           1.222  -2.452   2.005  0.00  0.00     0.079 H 
ENDROOT
BRANCH   1  16
ATOM     16  C1  <0> d          -0.018   1.465   0.010  0.00  0.00     0.097 C 
ATOM     17  H2  <0> d           1.005   1.842   0.002  0.00  0.00     0.071 H 
ATOM     18  H3  <0> d          -0.545   1.826  -0.873  0.00  0.00     0.071 H 
ATOM     19  H4  <0> d          -0.528   1.816   0.907  0.00  0.00     0.071 H 
ENDBRANCH   1  16
TORSDOF 1
