REMARK  0 active torsions:
REMARK  status: ('A' for Active; 'I' for Inactive)
ROOT
ATOM      1  C1  <0> d          -0.017   1.379   0.010  0.00  0.00    -0.081 A 
ATOM      2  C2  <0> d           1.173   2.084   0.002  0.00  0.00    -0.074 A 
ATOM      3  C3  <0> d           2.377   1.411  -0.013  0.00  0.00    -0.029 A 
ATOM      4  C4  <0> d           2.407   0.022  -0.016  0.00  0.00     0.056 A 
ATOM      5  C5  <0> d           1.204  -0.683  -0.011  0.00  0.00     0.060 A 
ATOM      6  C6  <0> d           0.002  -0.004   0.002  0.00  0.00    -0.060 A 
ATOM      7 Cl1  <0> d           1.217  -2.419  -0.020  0.00  0.00    -0.082 Cl
ATOM      8  N1  <0> d           3.727  -0.450  -0.016  0.00  0.00    -0.388 N 
ATOM      9  C7  <0> d           4.604   0.655  -0.458  0.00  0.00    -0.004 C 
ATOM     10  C8  <0> d           3.808   1.910  -0.031  0.00  0.00    -0.024 C 
ATOM     11  H1  <0> d          -0.959   1.907   0.017  0.00  0.00     0.083 H 
ATOM     12  H2  <0> d           1.159   3.164   0.008  0.00  0.00     0.084 H 
ATOM     13  H3  <0> d          -0.927  -0.555   0.006  0.00  0.00     0.086 H 
ATOM     14  H4  <0> d           4.160  -1.428   0.240  0.00  0.00     0.159 HD
ATOM     15  H5  <0> d           5.577   0.576   0.049  0.00  0.00     0.064 H 
ATOM     16  H6  <0> d           4.751   0.594  -1.546  0.00  0.00     0.064 H 
ATOM     17  H7  <0> d           3.899   2.736  -0.752  0.00  0.00     0.042 H 
ATOM     18  H8  <0> d           4.084   2.267   0.972  0.00  0.00     0.042 H 
ENDROOT
TORSDOF 0
