REMARK  2 active torsions:
REMARK  status: ('A' for Active; 'I' for Inactive)
REMARK    1  A    between atoms: C1_1  and  C2_2 
REMARK    2  A    between atoms: C5_5  and  C8_8 
ROOT
ATOM      1  C2  <0> d           0.002  -0.004   0.002  0.00  0.00    -0.057 C 
ATOM      2  C3  <0> d          -1.433  -0.534   0.013  0.00  0.00    -0.062 C 
ATOM      3  C4  <0> d          -1.413  -2.063   0.004  0.00  0.00    -0.062 C 
ATOM      4  C5  <0> d          -0.673  -2.570   1.244  0.00  0.00    -0.057 C 
ATOM      5  C6  <0> d           0.763  -2.041   1.233  0.00  0.00    -0.062 C 
ATOM      6  C7  <0> d           0.742  -0.511   1.242  0.00  0.00    -0.062 C 
ATOM      7  H4  <0> d           0.512  -0.356  -0.895  0.00  0.00     0.039 H 
ATOM      8  H5  <0> d          -1.944  -0.182   0.910  0.00  0.00     0.033 H 
ATOM      9  H6  <0> d          -1.960  -0.173  -0.870  0.00  0.00     0.033 H 
ATOM     10  H7  <0> d          -2.435  -2.441   0.012  0.00  0.00     0.033 H 
ATOM     11  H8  <0> d          -0.902  -2.415  -0.892  0.00  0.00     0.033 H 
ATOM     12  H9  <0> d          -1.183  -2.219   2.141  0.00  0.00     0.039 H 
ATOM     13  H10 <0> d           1.290  -2.402   2.116  0.00  0.00     0.033 H 
ATOM     14  H11 <0> d           1.273  -2.392   0.336  0.00  0.00     0.033 H 
ATOM     15  H12 <0> d           1.765  -0.134   1.234  0.00  0.00     0.033 H 
ATOM     16  H13 <0> d           0.232  -0.159   2.138  0.00  0.00     0.033 H 
ENDROOT
BRANCH   1  17
ATOM     17  C1  <0> d          -0.019   1.526   0.010  0.00  0.00    -0.073 C 
ATOM     18  H1  <0> d           1.004   1.903   0.003  0.00  0.00     0.028 H 
ATOM     19  H2  <0> d          -0.546   1.887  -0.873  0.00  0.00     0.028 H 
ATOM     20  H3  <0> d          -0.529   1.877   0.907  0.00  0.00     0.028 H 
ENDBRANCH   1  17
BRANCH   4  21
ATOM     21  C8  <0> d          -0.652  -4.100   1.236  0.00  0.00    -0.073 C 
ATOM     22  H14 <0> d          -0.142  -4.452   0.339  0.00  0.00     0.028 H 
ATOM     23  H15 <0> d          -0.125  -4.461   2.119  0.00  0.00     0.028 H 
ATOM     24  H16 <0> d          -1.674  -4.477   1.243  0.00  0.00     0.028 H 
ENDBRANCH   4  21
TORSDOF 2
