REMARK  2 active torsions:
REMARK  status: ('A' for Active; 'I' for Inactive)
REMARK    1  A    between atoms: C6_6  and  O1_7 
REMARK    2  A    between atoms: O1_7  and  C7_8 
ROOT
ATOM      1  C1  <0> d          -0.013   1.380   0.050  0.00  0.00    -0.048 A 
ATOM      2  C2  <0> d           1.176   2.084   0.069  0.00  0.00    -0.043 A 
ATOM      3  C3  <0> d           2.383   1.406   0.066  0.00  0.00     0.116 A 
ATOM      4  C4  <0> d           2.400   0.022   0.044  0.00  0.00    -0.043 A 
ATOM      5  C5  <0> d           1.213  -0.684   0.025  0.00  0.00    -0.048 A 
ATOM      6  C6  <0> d           0.003  -0.006   0.028  0.00  0.00     0.069 A 
ATOM      7  F1  <0> d           3.544   2.096   0.085  0.00  0.00    -0.206 F 
ATOM      8  H1  <0> d          -0.954   1.910   0.056  0.00  0.00     0.087 H 
ATOM      9  H2  <0> d           1.163   3.164   0.085  0.00  0.00     0.088 H 
ATOM     10  H3  <0> d           3.343  -0.506   0.042  0.00  0.00     0.088 H 
ATOM     11  H4  <0> d           1.228  -1.764   0.007  0.00  0.00     0.087 H 
ENDROOT
BRANCH   6  12
ATOM     12  O1  <0> d          -1.165  -0.700   0.010  0.00  0.00    -0.346 OA
BRANCH  12  13
ATOM     13  C7  <0> d          -2.371   0.056   0.137  0.00  0.00     0.045 A 
ATOM     14  C9  <0> d          -3.655  -0.563  -0.419  0.00  0.00    -0.038 A 
ATOM     15  C8  <0> d          -3.441  -0.475   1.093  0.00  0.00    -0.038 A 
ATOM     16  H8  <0> d          -4.387   0.111  -0.863  0.00  0.00     0.036 H 
ATOM     17  H9  <0> d          -3.580  -1.547  -0.881  0.00  0.00     0.036 H 
ATOM     18  H6  <0> d          -3.225  -1.401   1.626  0.00  0.00     0.036 H 
ATOM     19  H7  <0> d          -4.032   0.257   1.644  0.00  0.00     0.036 H 
ATOM     20  H5  <0> d          -2.258   1.137   0.058  0.00  0.00     0.084 H 
ENDBRANCH  12  13
ENDBRANCH   6  12
TORSDOF 2
