REMARK  1 active torsions:
REMARK  status: ('A' for Active; 'I' for Inactive)
REMARK    1  A    between atoms: C3_4  and  C4_7 
ROOT
ATOM      1  C4  <0> d          -0.018   1.468   0.010  0.00  0.00     0.069 C 
ATOM      2  C5  <0> d           0.002  -0.004   0.002  0.00  0.00     0.066 C 
ATOM      3  N3  <0> d           0.018  -1.140  -0.004  0.00  0.00    -0.197 NA
ATOM      4  H4  <0> d          -0.545   1.829  -0.873  0.00  0.00     0.066 H 
ATOM      5  H5  <0> d          -0.528   1.819   0.907  0.00  0.00     0.066 H 
ENDROOT
BRANCH   1   6
ATOM      6  C3  <0> d           1.396   1.989  -0.001  0.00  0.00     0.116 A 
ATOM      7  N1  <0> d           2.327   1.682   0.861  0.00  0.00    -0.245 NA
ATOM      8  C2  <0> d           3.457   2.329   0.541  0.00  0.00     0.019 A 
ATOM      9  C1  <0> d           3.215   3.072  -0.556  0.00  0.00    -0.005 A 
ATOM     10  H3  <0> d           4.396   2.268   1.072  0.00  0.00     0.117 H 
ATOM     11  N2  <0> d           1.908   2.857  -0.900  0.00  0.00    -0.352 N 
ATOM     12  H2  <0> d           3.918   3.714  -1.066  0.00  0.00     0.113 H 
ATOM     13  H1  <0> d           1.423   3.266  -1.673  0.00  0.00     0.166 HD
ENDBRANCH   1   6
TORSDOF 1
