REMARK  3 active torsions:
REMARK  status: ('A' for Active; 'I' for Inactive)
REMARK    1  A    between atoms: C1_1  and  C2_2 
REMARK    2  A    between atoms: C2_2  and  O2_4 
REMARK    3  A    between atoms: O2_4  and  C3_5 
ROOT
ATOM      1  C3  <0> d           1.230   2.623   1.429  0.00  0.00     0.055 C 
ATOM      2  H1  <0> d           1.165   1.847   2.192  0.00  0.00     0.085 H 
ATOM      3  C4  <0> d          -0.038   3.511   1.446  0.00  0.00    -0.033 C 
ATOM      4  C5  <0> d          -0.654   3.302   0.026  0.00  0.00    -0.035 C 
ATOM      5  H2  <0> d          -1.392   4.038  -0.293  0.00  0.00     0.046 H 
ATOM      6  C6  <0> d           0.655   3.193  -0.839  0.00  0.00    -0.050 C 
ATOM      7  C7  <0> d           1.219   1.990   0.001  0.00  0.00    -0.012 C 
ATOM      8  H3  <0> d           2.153   1.539  -0.335  0.00  0.00     0.050 H 
ATOM      9  C8  <0> d          -0.013   1.076   0.008  0.00  0.00    -0.100 C 
ATOM     10  C9  <0> d          -1.092   1.832   0.017  0.00  0.00    -0.102 C 
ATOM     11  H7  <0> d          -0.730   3.175   2.218  0.00  0.00     0.037 H 
ATOM     12  H8  <0> d           0.229   4.557   1.597  0.00  0.00     0.037 H 
ATOM     13  H9  <0> d           1.279   4.083  -0.764  0.00  0.00     0.035 H 
ATOM     14  H10 <0> d           0.450   2.921  -1.874  0.00  0.00     0.035 H 
ATOM     15  H11 <0> d           0.002  -0.004   0.002  0.00  0.00     0.077 H 
ATOM     16  H12 <0> d          -2.112   1.477   0.018  0.00  0.00     0.076 H 
ENDROOT
BRANCH   1  17
ATOM     17  O2  <0> d           2.422   3.430   1.620  0.00  0.00    -0.316 OA
BRANCH  17  18
ATOM     18  C2  <0> d           2.902   3.523   2.870  0.00  0.00     0.255 C 
ATOM     19  O1  <0> d           2.344   2.948   3.775  0.00  0.00    -0.266 OA
BRANCH  18  20
ATOM     20  C1  <0> d           4.135   4.344   3.145  0.00  0.00     0.004 C 
ATOM     21  H4  <0> d           4.494   4.783   2.214  0.00  0.00     0.041 H 
ATOM     22  H5  <0> d           3.893   5.137   3.852  0.00  0.00     0.041 H 
ATOM     23  H6  <0> d           4.910   3.704   3.568  0.00  0.00     0.041 H 
ENDBRANCH  18  20
ENDBRANCH  17  18
ENDBRANCH   1  17
TORSDOF 3
