REMARK  4 active torsions:
REMARK  status: ('A' for Active; 'I' for Inactive)
REMARK    1  A    between atoms: C1_1  and  C2_2 
REMARK    2  A    between atoms: C2_2  and  C3_3 
REMARK    3  A    between atoms: C3_3  and  C4_5 
REMARK    4  A    between atoms: C3_3  and  C5_6 
ROOT
ATOM      1  C5  <0> d          -0.736   1.583   1.262  0.00  0.00     0.036 C 
ATOM      2  H2  <0> d          -0.632   2.673   1.361  0.00  0.00     0.076 H 
ATOM      3  C6  <0> d          -0.013   1.086   0.008  0.00  0.00     0.039 C 
ATOM      4  O1  <0> d          -0.712   1.563  -1.148  0.00  0.00    -0.380 OA
ATOM      5  C7  <0> d          -1.998   0.960  -1.311  0.00  0.00     0.093 C 
ATOM      6  C8  <0> d          -2.763   1.033  -0.019  0.00  0.00     0.241 C 
ATOM      7  O2  <0> d          -3.960   0.843  -0.036  0.00  0.00    -0.271 OA
ATOM      8  N1  <0> d          -2.169   1.301   1.151  0.00  0.00    -0.352 N 
ATOM      9  H11 <0> d           1.019   1.468   0.004  0.00  0.00     0.077 H 
ATOM     10  H12 <0> d           0.004  -0.014   0.006  0.00  0.00     0.077 H 
ATOM     11  H13 <0> d          -2.556   1.494  -2.095  0.00  0.00     0.089 H 
ATOM     12  H14 <0> d          -1.874  -0.093  -1.602  0.00  0.00     0.089 H 
ATOM     13  H15 <0> d          -2.801   1.305   2.050  0.00  0.00     0.163 HD
ENDROOT
BRANCH   1  14
ATOM     14  C3  <0> d          -0.167   0.872   2.491  0.00  0.00    -0.036 C 
ATOM     15  H1  <0> d           0.908   1.090   2.576  0.00  0.00     0.042 H 
BRANCH  14  16
ATOM     16  C2  <0> d          -0.888   1.367   3.746  0.00  0.00    -0.064 C 
ATOM     17  H6  <0> d          -1.946   1.070   3.702  0.00  0.00     0.033 H 
ATOM     18  H7  <0> d          -0.817   2.464   3.801  0.00  0.00     0.033 H 
BRANCH  16  19
ATOM     19  C1  <0> d          -0.237   0.751   4.986  0.00  0.00    -0.076 C 
ATOM     20  H3  <0> d          -0.755   1.107   5.888  0.00  0.00     0.027 H 
ATOM     21  H4  <0> d           0.822   1.048   5.030  0.00  0.00     0.027 H 
ATOM     22  H5  <0> d          -0.308  -0.345   4.931  0.00  0.00     0.027 H 
ENDBRANCH  16  19
ENDBRANCH  14  16
BRANCH  14  23
ATOM     23  C4  <0> d          -0.371  -0.638   2.348  0.00  0.00    -0.071 C 
ATOM     24  H8  <0> d           0.148  -0.994   1.446  0.00  0.00     0.028 H 
ATOM     25  H9  <0> d          -1.446  -0.856   2.263  0.00  0.00     0.028 H 
ATOM     26  H10 <0> d           0.038  -1.149   3.232  0.00  0.00     0.028 H 
ENDBRANCH  14  23
ENDBRANCH   1  14
TORSDOF 4
