REMARK  0 active torsions:
REMARK  status: ('A' for Active; 'I' for Inactive)
ROOT
ATOM      1  C1  <0> d          -0.018   1.456   0.010  0.00  0.00    -0.064 C 
ATOM      2  C2  <0> d           1.167   2.145   0.002  0.00  0.00    -0.054 C 
ATOM      3  C3  <0> d           2.311   1.329  -0.077  0.00  0.00     0.082 C 
ATOM      4  N1  <0> d           3.524   1.450   0.364  0.00  0.00    -0.243 NA
ATOM      5  C4  <0> d           4.180   0.281   0.314  0.00  0.00     0.084 C 
ATOM      6  N2  <0> d           3.508  -0.660  -0.287  0.00  0.00    -0.248 NA
ATOM      7  C5  <0> d           2.268  -0.039  -0.744  0.00  0.00     0.167 C 
ATOM      8  H1  <0> d           2.284   0.073  -1.828  0.00  0.00     0.124 H 
ATOM      9  N3  <0> d           1.048  -0.705  -0.313  0.00  0.00    -0.204 N 
ATOM     10  C6  <0> d           0.002  -0.004   0.002  0.00  0.00     0.008 C 
ATOM     11  O1  <0> d           1.002  -2.118  -0.238  0.00  0.00    -0.084 OA
ATOM     12  H2  <0> d          -0.957   1.989   0.026  0.00  0.00     0.085 H 
ATOM     13  H3  <0> d           1.219   3.223   0.053  0.00  0.00     0.086 H 
ATOM     14  H4  <0> d           5.166   0.134   0.730  0.00  0.00     0.146 H 
ATOM     15  H5  <0> d          -0.902  -0.529   0.273  0.00  0.00     0.115 H 
ENDROOT
TORSDOF 0
