REMARK  8 active torsions:
REMARK  status: ('A' for Active; 'I' for Inactive)
REMARK    1  A    between atoms: C1_1  and  C2_2 
REMARK    2  A    between atoms: C2_2  and  C3_3 
REMARK    3  A    between atoms: C3_3  and  C4_4 
REMARK    4  A    between atoms: C3_3  and  C6_6 
REMARK    5  A    between atoms: C3_3  and  O2_9 
REMARK    6  A    between atoms: C4_4  and  C5_5 
REMARK    7  A    between atoms: C6_6  and  C7_7 
REMARK    8  A    between atoms: C7_7  and  O1_8 
ROOT
ATOM      1  C3  <0> d           2.755   3.551  -0.150  0.00  0.00     0.059 C 
ENDROOT
BRANCH   1   2
ATOM      2  C2  <0> d           2.509   5.061  -0.175  0.00  0.00    -0.040 C 
ATOM      3  H4  <0> d           3.469   5.590  -0.079  0.00  0.00     0.036 H 
ATOM      4  H5  <0> d           1.852   5.339   0.662  0.00  0.00     0.036 H 
BRANCH   2   5
ATOM      5  C1  <0> d           1.843   5.447  -1.497  0.00  0.00    -0.074 C 
ATOM      6  H1  <0> d           1.666   6.532  -1.515  0.00  0.00     0.027 H 
ATOM      7  H2  <0> d           0.884   4.918  -1.593  0.00  0.00     0.027 H 
ATOM      8  H3  <0> d           2.501   5.169  -2.334  0.00  0.00     0.027 H 
ENDBRANCH   2   5
ENDBRANCH   1   2
BRANCH   1   9
ATOM      9  C4  <0> d           3.326   3.150   1.212  0.00  0.00    -0.040 C 
ATOM     10  H6  <0> d           2.610   3.416   2.003  0.00  0.00     0.036 H 
ATOM     11  H7  <0> d           3.505   2.064   1.229  0.00  0.00     0.036 H 
BRANCH   9  12
ATOM     12  C5  <0> d           4.645   3.887   1.449  0.00  0.00    -0.074 C 
ATOM     13  H8  <0> d           5.056   3.599   2.428  0.00  0.00     0.027 H 
ATOM     14  H9  <0> d           4.467   4.973   1.432  0.00  0.00     0.027 H 
ATOM     15  H10 <0> d           5.362   3.621   0.658  0.00  0.00     0.027 H 
ENDBRANCH   9  12
ENDBRANCH   1   9
BRANCH   1  16
ATOM     16  C6  <0> d           1.435   2.815  -0.386  0.00  0.00    -0.017 C 
ATOM     17  H11 <0> d           0.691   3.150   0.352  0.00  0.00     0.040 H 
ATOM     18  H12 <0> d           1.070   3.033  -1.401  0.00  0.00     0.040 H 
BRANCH  16  19
ATOM     19  C7  <0> d           1.657   1.308  -0.237  0.00  0.00     0.019 C 
ATOM     20  H13 <0> d           2.401   0.973  -0.975  0.00  0.00     0.074 H 
ATOM     21  H14 <0> d           2.022   1.090   0.777  0.00  0.00     0.074 H 
BRANCH  19  22
ATOM     22  O1  <0> d           0.424   0.621  -0.458  0.00  0.00    -0.401 OA
ATOM     23  H15 <0> d           0.386  -0.476  -0.393  0.00  0.00     0.209 HD
ENDBRANCH  19  22
ENDBRANCH  16  19
ENDBRANCH   1  16
BRANCH   1  24
ATOM     24  O2  <0> d           3.685   3.203  -1.177  0.00  0.00    -0.390 OA
ATOM     25  H16 <0> d           3.986   2.154  -1.314  0.00  0.00     0.210 HD
ENDBRANCH   1  24
TORSDOF 8
