REMARK  2 active torsions:
REMARK  status: ('A' for Active; 'I' for Inactive)
REMARK    1  A    between atoms: C1_1  and  C2_2 
REMARK    2  A    between atoms: C6_7  and  C7_9 
ROOT
ATOM      1  C2  <0> d          -0.042   0.192  -0.044  0.00  0.00    -0.045 C 
ATOM      2  H1  <0> d          -0.172  -0.221   0.956  0.00  0.00     0.040 H 
ATOM      3  C3  <0> d           0.065   1.729   0.029  0.00  0.00    -0.061 C 
ATOM      4  C4  <0> d           1.589   2.003   0.046  0.00  0.00    -0.064 C 
ATOM      5  C5  <0> d           2.140   0.936  -0.932  0.00  0.00    -0.052 C 
ATOM      6  C6  <0> d           1.277  -0.313  -0.655  0.00  0.00     0.034 C 
ATOM      7  H2  <0> d           1.787  -0.971   0.048  0.00  0.00     0.057 H 
ATOM      8  H6  <0> d          -0.395   2.185  -0.848  0.00  0.00     0.033 H 
ATOM      9  H7  <0> d          -0.400   2.101   0.942  0.00  0.00     0.033 H 
ATOM     10  H8  <0> d           1.806   3.008  -0.317  0.00  0.00     0.033 H 
ATOM     11  H9  <0> d           1.997   1.856   1.046  0.00  0.00     0.033 H 
ATOM     12  H10 <0> d           3.189   0.729  -0.721  0.00  0.00     0.034 H 
ATOM     13  H11 <0> d           2.015   1.264  -1.964  0.00  0.00     0.034 H 
ENDROOT
BRANCH   1  14
ATOM     14  C1  <0> d          -1.220  -0.210  -0.935  0.00  0.00    -0.072 C 
ATOM     15  H3  <0> d          -1.084   0.214  -1.929  0.00  0.00     0.028 H 
ATOM     16  H4  <0> d          -1.267  -1.297  -1.006  0.00  0.00     0.028 H 
ATOM     17  H5  <0> d          -2.147   0.166  -0.502  0.00  0.00     0.028 H 
ENDBRANCH   1  14
BRANCH   6  18
ATOM     18  C7  <0> d           1.002  -1.046  -1.942  0.00  0.00     0.177 C 
ATOM     19  O1  <0> d           0.937  -0.437  -2.983  0.00  0.00    -0.648 OA
ATOM     20  O2  <0> d           0.830  -2.378  -1.932  0.00  0.00    -0.648 OA
ENDBRANCH   6  18
TORSDOF 2
