REMARK  5 active torsions:
REMARK  status: ('A' for Active; 'I' for Inactive)
REMARK    1  A    between atoms: C2_2  and  C3_3 
REMARK    2  A    between atoms: C4_4  and  C5_5 
REMARK    3  A    between atoms: C5_5  and  C6_6 
REMARK    4  A    between atoms: C6_6  and  C7_7 
REMARK    5  A    between atoms: C7_7  and  O1_8 
ROOT
ATOM      1  C5  <0> d          -4.890   0.849   0.030  0.00  0.00    -0.048 C 
ATOM      2  H6  <0> d          -5.434   1.043  -0.906  0.00  0.00     0.038 H 
ATOM      3  H7  <0> d          -4.676  -0.227   0.114  0.00  0.00     0.038 H 
ENDROOT
BRANCH   1   4
ATOM      4  C4  <0> d          -3.596   1.620   0.028  0.00  0.00    -0.103 C 
ATOM      5  C3  <0> d          -2.436   0.972   0.019  0.00  0.00    -0.087 C 
ATOM      6  H4  <0> d          -2.421  -0.128   0.013  0.00  0.00     0.083 H 
ATOM      7  H5  <0> d          -3.611   2.720   0.034  0.00  0.00     0.076 H 
BRANCH   5   8
ATOM      8  C2  <0> d          -1.172   1.724   0.017  0.00  0.00    -0.092 C 
ATOM      9  C1  <0> d          -0.013   1.076   0.008  0.00  0.00    -0.121 C 
ATOM     10  H1  <0> d           0.932   1.639   0.007  0.00  0.00     0.066 H 
ATOM     11  H2  <0> d           0.002  -0.024   0.002  0.00  0.00     0.066 H 
ATOM     12  H3  <0> d          -1.187   2.824   0.023  0.00  0.00     0.082 H 
ENDBRANCH   5   8
ENDBRANCH   1   4
BRANCH   1  13
ATOM     13  C6  <0> d          -5.746   1.293   1.218  0.00  0.00    -0.043 C 
ATOM     14  H8  <0> d          -5.203   1.099   2.154  0.00  0.00     0.036 H 
ATOM     15  H9  <0> d          -5.960   2.368   1.134  0.00  0.00     0.036 H 
BRANCH  13  16
ATOM     16  C7  <0> d          -7.061   0.510   1.220  0.00  0.00     0.017 C 
ATOM     17  H10 <0> d          -7.605   0.704   0.284  0.00  0.00     0.073 H 
ATOM     18  H11 <0> d          -6.847  -0.566   1.304  0.00  0.00     0.073 H 
BRANCH  16  19
ATOM     19  O1  <0> d          -7.860   0.924   2.330  0.00  0.00    -0.401 OA
ATOM     20  H12 <0> d          -8.848   0.469   2.497  0.00  0.00     0.209 HD
ENDBRANCH  16  19
ENDBRANCH  13  16
ENDBRANCH   1  13
TORSDOF 5
