REMARK  1 active torsions:
REMARK  status: ('A' for Active; 'I' for Inactive)
REMARK    1  A    between atoms: C1_1  and  C2_2 
ROOT
ATOM      1  C2  <0> d           2.395   0.014  -0.021  0.00  0.00    -0.048 A 
ATOM      2  C3  <0> d           1.207  -0.684  -0.014  0.00  0.00    -0.076 A 
ATOM      3  C4  <0> d           0.002  -0.004   0.002  0.00  0.00    -0.082 A 
ATOM      4  C5  <0> d          -0.017   1.379   0.010  0.00  0.00    -0.076 A 
ATOM      5  C6  <0> d           1.166   2.093   0.002  0.00  0.00    -0.043 A 
ATOM      6  C7  <0> d           2.386   1.417  -0.013  0.00  0.00     0.022 A 
ATOM      7  C8  <0> d           3.508   2.371  -0.017  0.00  0.00     0.161 A 
ATOM      8  O1  <0> d           4.686   2.084  -0.030  0.00  0.00    -0.292 OA
ATOM      9  C9  <0> d           2.936   3.768  -0.007  0.00  0.00    -0.001 A 
ATOM     10  C10 <0> d           1.413   3.583   0.007  0.00  0.00    -0.034 A 
ATOM     11  H4  <0> d           1.217  -1.764  -0.020  0.00  0.00     0.084 H 
ATOM     12  H5  <0> d          -0.927  -0.555   0.008  0.00  0.00     0.083 H 
ATOM     13  H6  <0> d          -0.961   1.903   0.017  0.00  0.00     0.084 H 
ATOM     14  H7  <0> d           3.286   4.300   0.890  0.00  0.00     0.045 H 
ATOM     15  H8  <0> d           3.269   4.307  -0.906  0.00  0.00     0.045 H 
ATOM     16  H9  <0> d           0.952   4.033  -0.884  0.00  0.00     0.040 H 
ATOM     17  H10 <0> d           0.970   4.024   0.912  0.00  0.00     0.040 H 
ENDROOT
BRANCH   1  18
ATOM     18  C1  <0> d           3.705  -0.731  -0.038  0.00  0.00    -0.050 C 
ATOM     19  H1  <0> d           3.511  -1.814  -0.043  0.00  0.00     0.033 H 
ATOM     20  H2  <0> d           4.289  -0.467   0.856  0.00  0.00     0.033 H 
ATOM     21  H3  <0> d           4.272  -0.456  -0.940  0.00  0.00     0.033 H 
ENDBRANCH   1  18
TORSDOF 1
