REMARK  4 active torsions:
REMARK  status: ('A' for Active; 'I' for Inactive)
REMARK    1  A    between atoms: C1_1  and  C2_2 
REMARK    2  A    between atoms: C2_2  and  O1_3 
REMARK    3  A    between atoms: O1_3  and  C3_4 
REMARK    4  A    between atoms: C3_4  and  C4_5 
ROOT
ATOM      1  C4  <0> d          -0.018   1.468   0.010  0.00  0.00     0.034 C 
ATOM      2  C5  <0> d           0.002  -0.004   0.002  0.00  0.00     0.061 C 
ATOM      3  N1  <0> d           0.018  -1.140  -0.004  0.00  0.00    -0.197 NA
ATOM      4  H8  <0> d           1.005   1.845   0.002  0.00  0.00     0.058 H 
ATOM      5  H9  <0> d          -0.545   1.829  -0.873  0.00  0.00     0.058 H 
ENDROOT
BRANCH   1   6
ATOM      6  C3  <0> d          -0.734   1.961   1.269  0.00  0.00     0.031 C 
ATOM      7  H6  <0> d          -1.757   1.584   1.277  0.00  0.00     0.075 H 
ATOM      8  H7  <0> d          -0.207   1.600   2.152  0.00  0.00     0.075 H 
BRANCH   6   9
ATOM      9  O1  <0> d          -0.753   3.390   1.277  0.00  0.00    -0.391 OA
BRANCH   9  10
ATOM     10  C2  <0> d          -1.403   3.956   2.417  0.00  0.00     0.016 C 
ATOM     11  H4  <0> d          -2.440   3.620   2.448  0.00  0.00     0.073 H 
ATOM     12  H5  <0> d          -0.890   3.637   3.324  0.00  0.00     0.073 H 
BRANCH  10  13
ATOM     13  C1  <0> d          -1.364   5.483   2.320  0.00  0.00    -0.056 C 
ATOM     14  H1  <0> d          -0.328   5.819   2.288  0.00  0.00     0.030 H 
ATOM     15  H2  <0> d          -1.878   5.802   1.413  0.00  0.00     0.030 H 
ATOM     16  H3  <0> d          -1.860   5.915   3.189  0.00  0.00     0.030 H 
ENDBRANCH  10  13
ENDBRANCH   9  10
ENDBRANCH   6   9
ENDBRANCH   1   6
TORSDOF 4
