REMARK  3 active torsions:
REMARK  status: ('A' for Active; 'I' for Inactive)
REMARK    1  A    between atoms: C1_1  and  C2_2 
REMARK    2  A    between atoms: C2_2  and  N1_3 
REMARK    3  A    between atoms: C3_4  and  C7_10 
ROOT
ATOM      1  N1  <0> d           0.651   3.454   0.014  0.00  0.00    -0.274 N 
ATOM      2  C3  <0> d          -0.698   3.525   0.026  0.00  0.00     0.029 A 
ATOM      3  C4  <0> d          -1.166   2.255   0.019  0.00  0.00    -0.020 A 
ATOM      4  C5  <0> d          -0.017   1.428   0.010  0.00  0.00     0.158 A 
ATOM      5  N2  <0> d           1.031   2.227   0.004  0.00  0.00    -0.161 NA
ATOM      6  C6  <0> d           0.002  -0.004   0.002  0.00  0.00     0.121 C 
ATOM      7  N3  <0> d           0.018  -1.140  -0.004  0.00  0.00    -0.190 NA
ATOM      8  H6  <0> d          -2.199   1.939   0.022  0.00  0.00     0.091 H 
ENDROOT
BRANCH   2   9
ATOM      9  C7  <0> d          -1.526   4.783   0.041  0.00  0.00    -0.036 C 
ATOM     10  H7  <0> d          -1.736   5.092  -0.983  0.00  0.00     0.035 H 
ATOM     11  H8  <0> d          -2.465   4.594   0.562  0.00  0.00     0.035 H 
ATOM     12  H9  <0> d          -0.978   5.573   0.554  0.00  0.00     0.035 H 
ENDBRANCH   2   9
BRANCH   1  13
ATOM     13  C2  <0> d           1.551   4.610   0.011  0.00  0.00     0.014 C 
ATOM     14  H4  <0> d           1.076   5.440   0.534  0.00  0.00     0.066 H 
ATOM     15  H5  <0> d           2.481   4.347   0.515  0.00  0.00     0.066 H 
BRANCH  13  16
ATOM     16  C1  <0> d           1.851   5.020  -1.432  0.00  0.00    -0.059 C 
ATOM     17  H1  <0> d           2.520   5.880  -1.433  0.00  0.00     0.029 H 
ATOM     18  H2  <0> d           2.325   4.189  -1.954  0.00  0.00     0.029 H 
ATOM     19  H3  <0> d           0.920   5.282  -1.936  0.00  0.00     0.029 H 
ENDBRANCH  13  16
ENDBRANCH   1  13
TORSDOF 3
