REMARK  1 active torsions:
REMARK  status: ('A' for Active; 'I' for Inactive)
REMARK    1  A    between atoms: C8_8  and  C9_10 
ROOT
ATOM      1  C1  <0> d          -2.759  -2.407  -3.543  0.00  0.00    -0.082 A 
ATOM      2  C2  <0> d          -2.932  -1.036  -3.534  0.00  0.00    -0.082 A 
ATOM      3  C3  <0> d          -2.514  -0.295  -2.445  0.00  0.00    -0.075 A 
ATOM      4  C4  <0> d          -1.922  -0.919  -1.362  0.00  0.00    -0.037 A 
ATOM      5  C5  <0> d          -1.748  -2.298  -1.371  0.00  0.00    -0.050 A 
ATOM      6  C6  <0> d          -2.169  -3.035  -2.463  0.00  0.00    -0.076 A 
ATOM      7  C7  <0> d          -1.101  -2.298   0.000  0.00  0.00    -0.024 A 
ATOM      8  C8  <0> d          -1.293  -0.775   0.010  0.00  0.00     0.060 A 
ATOM      9  H1  <0> d          -1.987  -0.428   0.776  0.00  0.00     0.064 H 
ATOM     10  H2  <0> d          -3.085  -2.987  -4.393  0.00  0.00     0.083 H 
ATOM     11  H3  <0> d          -3.393  -0.544  -4.377  0.00  0.00     0.083 H 
ATOM     12  H4  <0> d          -2.651   0.776  -2.440  0.00  0.00     0.084 H 
ATOM     13  H5  <0> d          -2.034  -4.106  -2.473  0.00  0.00     0.084 H 
ATOM     14  H6  <0> d          -0.055  -2.606  -0.011  0.00  0.00     0.042 H 
ATOM     15  H7  <0> d          -1.685  -2.817   0.760  0.00  0.00     0.042 H 
ENDROOT
BRANCH   8  16
ATOM     16  C9  <0> d           0.002  -0.004   0.002  0.00  0.00     0.181 C 
ATOM     17  O1  <0> d           1.056  -0.594  -0.011  0.00  0.00    -0.647 OA
ATOM     18  O2  <0> d          -0.016   1.338   0.009  0.00  0.00    -0.647 OA
ENDBRANCH   8  16
TORSDOF 1
