REMARK  3 active torsions:
REMARK  status: ('A' for Active; 'I' for Inactive)
REMARK    1  A    between atoms: C1_1  and  C2_2 
REMARK       I    between atoms: C2_2  and  N1_4 
REMARK    2  A    between atoms: N1_4  and  C3_5 
REMARK    3  A    between atoms: C6_8  and  O2_11 
ROOT
ATOM      1  C3  <0> d          -2.188   1.063  -1.221  0.00  0.00     0.012 C 
ATOM      2  C4  <0> d          -0.753   1.593  -1.232  0.00  0.00    -0.044 C 
ATOM      3  C5  <0> d          -0.013   1.086   0.008  0.00  0.00    -0.039 C 
ATOM      4  C6  <0> d          -0.729   1.579   1.267  0.00  0.00     0.035 C 
ATOM      5  C7  <0> d          -2.164   1.050   1.278  0.00  0.00    -0.039 C 
ATOM      6  C8  <0> d          -2.904   1.556   0.038  0.00  0.00    -0.044 C 
ATOM      7  H5  <0> d          -2.196  -0.036  -1.265  0.00  0.00     0.072 H 
ATOM      8  H6  <0> d          -0.238   1.238  -2.136  0.00  0.00     0.036 H 
ATOM      9  H7  <0> d          -0.768   2.693  -1.225  0.00  0.00     0.036 H 
ATOM     10  H8  <0> d           0.002  -0.014   0.002  0.00  0.00     0.036 H 
ATOM     11  H9  <0> d           1.019   1.466   0.000  0.00  0.00     0.036 H 
ATOM     12  H10 <0> d          -0.187   1.281   2.176  0.00  0.00     0.082 H 
ATOM     13  H11 <0> d          -2.149  -0.050   1.272  0.00  0.00     0.036 H 
ATOM     14  H12 <0> d          -2.679   1.405   2.183  0.00  0.00     0.036 H 
ATOM     15  H13 <0> d          -2.919   2.656   0.044  0.00  0.00     0.036 H 
ATOM     16  H14 <0> d          -3.936   1.176   0.046  0.00  0.00     0.036 H 
ENDROOT
BRANCH   1  17
ATOM     17  N1  <0> d          -2.897   1.548  -2.408  0.00  0.00    -0.357 N 
ATOM     18  C2  <0> d          -3.949   0.860  -2.893  0.00  0.00     0.213 C 
ATOM     19  O1  <0> d          -4.309  -0.161  -2.347  0.00  0.00    -0.274 OA
ATOM     20  H4  <0> d          -2.570   2.475  -2.903  0.00  0.00     0.162 HD
BRANCH  18  21
ATOM     21  C1  <0> d          -4.678   1.359  -4.114  0.00  0.00    -0.003 C 
ATOM     22  H1  <0> d          -4.210   2.291  -4.465  0.00  0.00     0.040 H 
ATOM     23  H2  <0> d          -5.731   1.551  -3.859  0.00  0.00     0.040 H 
ATOM     24  H3  <0> d          -4.625   0.600  -4.908  0.00  0.00     0.040 H 
ENDBRANCH  18  21
ENDBRANCH   1  17
BRANCH   4  25
ATOM     25  O2  <0> d          -0.748   3.008   1.275  0.00  0.00    -0.396 OA
ATOM     26  H15 <0> d          -1.224   3.547   2.107  0.00  0.00     0.210 HD
ENDBRANCH   4  25
TORSDOF 3
