REMARK  5 active torsions:
REMARK  status: ('A' for Active; 'I' for Inactive)
REMARK    1  A    between atoms: C1_1  and  C2_2 
REMARK       I    between atoms: C2_2  and  N1_4 
REMARK    2  A    between atoms: N1_4  and  C3_5 
REMARK    3  A    between atoms: C3_5  and  C4_7 
REMARK    4  A    between atoms: C3_5  and  C7_10 
REMARK    5  A    between atoms: C4_7  and  C5_8 
ROOT
ATOM      1  C5  <0> d          -2.646   3.620   1.225  0.00  0.00    -0.115 C 
ATOM      2  C6  <0> d          -3.626   4.265   1.186  0.00  0.00    -0.154 C 
ATOM      3  H8  <0> d          -4.502   4.842   1.151  0.00  0.00     0.166 H 
ENDROOT
BRANCH   1   4
ATOM      4  C4  <0> d          -1.417   2.811   1.273  0.00  0.00     0.018 C 
ATOM      5  H6  <0> d          -1.435   2.175   2.158  0.00  0.00     0.055 H 
ATOM      6  H7  <0> d          -0.549   3.470   1.319  0.00  0.00     0.055 H 
BRANCH   4   7
ATOM      7  C3  <0> d          -1.329   1.940   0.019  0.00  0.00     0.106 C 
ATOM      8  H1  <0> d          -1.400   2.570  -0.867  0.00  0.00     0.091 H 
BRANCH   7   9
ATOM      9  N1  <0> d          -2.430   0.973   0.019  0.00  0.00    -0.346 N 
ATOM     10  C2  <0> d          -2.875   0.458  -1.145  0.00  0.00     0.214 C 
ATOM     11  O1  <0> d          -2.364   0.795  -2.192  0.00  0.00    -0.274 OA
ATOM     12  H5  <0> d          -2.839   0.703   0.856  0.00  0.00     0.163 HD
BRANCH  10  13
ATOM     13  C1  <0> d          -4.007  -0.537  -1.145  0.00  0.00    -0.003 C 
ATOM     14  H2  <0> d          -4.334  -0.715  -0.120  0.00  0.00     0.040 H 
ATOM     15  H3  <0> d          -4.838  -0.141  -1.728  0.00  0.00     0.040 H 
ATOM     16  H4  <0> d          -3.667  -1.474  -1.586  0.00  0.00     0.040 H 
ENDBRANCH  10  13
ENDBRANCH   7   9
BRANCH   7  17
ATOM     17  C7  <0> d          -0.014   1.204   0.009  0.00  0.00     0.197 C 
ATOM     18  O2  <0> d           0.002  -0.004   0.002  0.00  0.00    -0.646 OA
ATOM     19  O3  <0> d           1.139   1.891   0.001  0.00  0.00    -0.646 OA
ENDBRANCH   7  17
ENDBRANCH   4   7
ENDBRANCH   1   4
TORSDOF 5
