REMARK  2 active torsions:
REMARK  status: ('A' for Active; 'I' for Inactive)
REMARK    1  A    between atoms: C1_1  and  N1_2 
REMARK    2  A    between atoms: C2_3  and  N3_9 
ROOT
ATOM      1  N1  <0> d          -1.196   1.860   0.018  0.00  0.00    -0.288 N 
ATOM      2  C2  <0> d          -1.228   3.225   0.031  0.00  0.00     0.105 A 
ATOM      3  C3  <0> d          -0.028   3.922   0.023  0.00  0.00    -0.024 A 
ATOM      4  C4  <0> d           1.161   3.207   0.008  0.00  0.00     0.011 A 
ATOM      5  N2  <0> d           1.137   1.885   0.001  0.00  0.00    -0.206 NA
ATOM      6  C5  <0> d          -0.015   1.216   0.009  0.00  0.00     0.349 A 
ATOM      7  O1  <0> d           0.002  -0.004   0.002  0.00  0.00    -0.244 OA
ATOM      8  H4  <0> d          -0.019   5.002   0.029  0.00  0.00     0.091 H 
ATOM      9  H5  <0> d           2.106   3.730   0.002  0.00  0.00     0.115 H 
ENDROOT
BRANCH   1  10
ATOM     10  C1  <0> d          -2.447   1.098   0.020  0.00  0.00    -0.008 C 
ATOM     11  H1  <0> d          -2.223   0.032   0.013  0.00  0.00     0.057 H 
ATOM     12  H2  <0> d          -3.021   1.343   0.914  0.00  0.00     0.057 H 
ATOM     13  H3  <0> d          -3.029   1.353  -0.866  0.00  0.00     0.057 H 
ENDBRANCH   1  10
BRANCH   2  14
ATOM     14  N3  <0> d          -2.423   3.896   0.047  0.00  0.00    -0.385 N 
ATOM     15  H6  <0> d          -2.436   4.866   0.052  0.00  0.00     0.157 HD
ATOM     16  H7  <0> d          -3.257   3.400   0.052  0.00  0.00     0.157 HD
ENDBRANCH   2  14
TORSDOF 2
