REMARK  3 active torsions:
REMARK  status: ('A' for Active; 'I' for Inactive)
REMARK    1  A    between atoms: C1_1  and  C2_2 
REMARK    2  A    between atoms: C2_2  and  C10_14 
REMARK    3  A    between atoms: C8_10  and  O1_13 
ROOT
ATOM      1  C2  <0> d          -1.836   3.730  -1.303  0.00  0.00    -0.036 C 
ATOM      2  C3  <0> d          -3.193   3.299  -0.730  0.00  0.00    -0.044 C 
ATOM      3  H1  <0> d          -4.034   3.926  -1.036  0.00  0.00     0.041 H 
ATOM      4  C4  <0> d          -2.606   3.662   0.649  0.00  0.00    -0.053 C 
ATOM      5  C5  <0> d          -1.251   3.241   0.043  0.00  0.00    -0.023 C 
ATOM      6  H2  <0> d          -0.367   3.758   0.414  0.00  0.00     0.048 H 
ATOM      7  C6  <0> d          -1.158   1.716   0.017  0.00  0.00    -0.056 C 
ATOM      8  C7  <0> d          -0.013   1.076   0.008  0.00  0.00    -0.116 C 
ATOM      9  C8  <0> d          -2.497   0.996   0.019  0.00  0.00     0.057 C 
ATOM     10  H3  <0> d          -2.874   0.923   1.042  0.00  0.00     0.090 H 
ATOM     11  C9  <0> d          -3.481   1.800  -0.840  0.00  0.00    -0.033 C 
ATOM     12  H7  <0> d          -2.680   4.714   0.909  0.00  0.00     0.034 H 
ATOM     13  H8  <0> d          -2.947   3.007   1.453  0.00  0.00     0.034 H 
ATOM     14  H9  <0> d           0.002  -0.004   0.002  0.00  0.00     0.067 H 
ATOM     15  H10 <0> d           0.915   1.629   0.002  0.00  0.00     0.067 H 
ATOM     16  H11 <0> d          -3.435   1.470  -1.874  0.00  0.00     0.037 H 
ATOM     17  H12 <0> d          -4.499   1.612  -0.472  0.00  0.00     0.037 H 
ENDROOT
BRANCH   1  18
ATOM     18  C1  <0> d          -1.369   2.935  -2.522  0.00  0.00    -0.068 C 
ATOM     19  H4  <0> d          -2.096   3.043  -3.327  0.00  0.00     0.028 H 
ATOM     20  H5  <0> d          -0.401   3.313  -2.854  0.00  0.00     0.028 H 
ATOM     21  H6  <0> d          -1.275   1.882  -2.256  0.00  0.00     0.028 H 
ENDBRANCH   1  18
BRANCH   1  22
ATOM     22  C10 <0> d          -1.707   5.243  -1.518  0.00  0.00    -0.068 C 
ATOM     23  H14 <0> d          -1.834   5.758  -0.566  0.00  0.00     0.028 H 
ATOM     24  H15 <0> d          -0.721   5.470  -1.925  0.00  0.00     0.028 H 
ATOM     25  H16 <0> d          -2.473   5.578  -2.217  0.00  0.00     0.028 H 
ENDBRANCH   1  22
BRANCH   9  26
ATOM     26  O1  <0> d          -2.341  -0.319  -0.523  0.00  0.00    -0.391 OA
ATOM     27  H13 <0> d          -1.720  -0.875  -0.033  0.00  0.00     0.210 HD
ENDBRANCH   9  26
TORSDOF 3
