REMARK  3 active torsions:
REMARK  status: ('A' for Active; 'I' for Inactive)
REMARK    1  A    between atoms: C3_3  and  C4_4 
REMARK    2  A    between atoms: C4_4  and  C5_5 
REMARK    3  A    between atoms: C5_5  and  C6_6 
ROOT
ATOM      1  C4  <0> d          -0.735   1.996   1.269  0.00  0.00    -0.053 C 
ATOM      2  H6  <0> d          -1.757   1.619   1.277  0.00  0.00     0.034 H 
ATOM      3  H7  <0> d          -0.207   1.635   2.152  0.00  0.00     0.034 H 
ENDROOT
BRANCH   1   4
ATOM      4  C3  <0> d          -0.755   3.526   1.278  0.00  0.00    -0.054 A 
ATOM      5  C1  <0> d          -0.000   4.237   2.403  0.00  0.00    -0.061 A 
ATOM      6  C2  <0> d          -1.531   4.216   2.402  0.00  0.00    -0.061 A 
ATOM      7  H1  <0> d           0.511   3.614   3.137  0.00  0.00     0.033 H 
ATOM      8  H2  <0> d           0.490   5.180   2.162  0.00  0.00     0.033 H 
ATOM      9  H3  <0> d          -2.046   5.145   2.160  0.00  0.00     0.033 H 
ATOM     10  H4  <0> d          -2.027   3.580   3.135  0.00  0.00     0.033 H 
ATOM     11  H5  <0> d          -0.761   4.002   0.297  0.00  0.00     0.040 H 
ENDBRANCH   1   4
BRANCH   1  12
ATOM     12  C5  <0> d          -0.018   1.503   0.010  0.00  0.00     0.016 C 
ATOM     13  H8  <0> d           1.004   1.880   0.003  0.00  0.00     0.049 H 
ATOM     14  H9  <0> d          -0.545   1.864  -0.873  0.00  0.00     0.049 H 
BRANCH  12  15
ATOM     15  C6  <0> d           0.002  -0.004   0.002  0.00  0.00     0.172 C 
ATOM     16  O1  <0> d          -0.504  -0.620   0.910  0.00  0.00    -0.648 OA
ATOM     17  O2  <0> d           0.583  -0.662  -1.014  0.00  0.00    -0.648 OA
ENDBRANCH  12  15
ENDBRANCH   1  12
TORSDOF 3
