REMARK  0 active torsions:
REMARK  status: ('A' for Active; 'I' for Inactive)
ROOT
ATOM      1  C1  <0> d          -0.018   1.512   0.010  0.00  0.00     0.009 C 
ATOM      2  C2  <0> d           1.408   1.998  -0.001  0.00  0.00    -0.075 C 
ATOM      3  C3  <0> d           2.422   1.204   0.206  0.00  0.00     0.009 C 
ATOM      4  O1  <0> d           2.337  -0.123   0.429  0.00  0.00    -0.356 OA
ATOM      5  C4  <0> d           1.079  -0.665   0.844  0.00  0.00     0.080 C 
ATOM      6  C5  <0> d           0.002  -0.004   0.002  0.00  0.00     0.154 C 
ATOM      7  O2  <0> d          -0.793  -0.649  -0.638  0.00  0.00    -0.295 OA
ATOM      8  H1  <0> d          -0.522   1.869   0.909  0.00  0.00     0.050 H 
ATOM      9  H2  <0> d          -0.539   1.878  -0.875  0.00  0.00     0.050 H 
ATOM     10  H3  <0> d           1.599   3.045  -0.187  0.00  0.00     0.080 H 
ATOM     11  H4  <0> d           3.408   1.644   0.198  0.00  0.00     0.122 H 
ATOM     12  H5  <0> d           1.068  -1.743   0.680  0.00  0.00     0.086 H 
ATOM     13  H6  <0> d           0.911  -0.448   1.899  0.00  0.00     0.086 H 
ENDROOT
TORSDOF 0
