REMARK  0 active torsions:
REMARK  status: ('A' for Active; 'I' for Inactive)
ROOT
ATOM      1  C1  <0> d          -0.017   1.363   0.009  0.00  0.00    -0.014 A 
ATOM      2  C2  <0> d          -1.252   2.021   0.019  0.00  0.00     0.091 A 
ATOM      3  C3  <0> d          -2.423   1.238   0.020  0.00  0.00     0.104 A 
ATOM      4  C4  <0> d          -2.308  -0.143   0.012  0.00  0.00     0.034 A 
ATOM      5  N1  <0> d          -1.117  -0.710   0.003  0.00  0.00    -0.246 NA
ATOM      6  C5  <0> d           0.002  -0.004   0.002  0.00  0.00     0.128 A 
ATOM      7 Cl1  <0> d           1.528  -0.832  -0.017  0.00  0.00    -0.062 Cl
ATOM      8  N2  <0> d          -3.474   2.131   0.031  0.00  0.00    -0.238 NA
ATOM      9  C6  <0> d          -2.943   3.382   0.035  0.00  0.00     0.088 A 
ATOM     10  N3  <0> d          -1.641   3.316   0.028  0.00  0.00    -0.240 NA
ATOM     11  H1  <0> d           0.906   1.925   0.004  0.00  0.00     0.092 H 
ATOM     12  H2  <0> d          -3.196  -0.757   0.013  0.00  0.00     0.118 H 
ATOM     13  H3  <0> d          -3.516   4.297   0.043  0.00  0.00     0.146 H 
ENDROOT
TORSDOF 0
