REMARK  2 active torsions:
REMARK  status: ('A' for Active; 'I' for Inactive)
REMARK    1  A    between atoms: C2_2  and  N4_10 
REMARK    2  A    between atoms: C4_5  and  C5_7 
REMARK       I    between atoms: C5_7  and  N3_9 
ROOT
ATOM      1  C1  <0> d          -0.016   1.315   0.009  0.00  0.00     0.031 A 
ATOM      2  C2  <0> d           1.196   2.010   0.001  0.00  0.00     0.061 A 
ATOM      3  C3  <0> d           2.382   1.273  -0.014  0.00  0.00     0.031 A 
ATOM      4  N1  <0> d           2.319  -0.044  -0.020  0.00  0.00    -0.234 NA
ATOM      5  C4  <0> d           1.149  -0.668  -0.013  0.00  0.00     0.217 A 
ATOM      6  N2  <0> d           0.002  -0.004   0.002  0.00  0.00    -0.234 NA
ATOM      7  H1  <0> d          -0.954   1.850   0.026  0.00  0.00     0.118 H 
ATOM      8  H2  <0> d           3.339   1.775  -0.021  0.00  0.00     0.118 H 
ENDROOT
BRANCH   5   9
ATOM      9  C5  <0> d           1.123  -2.150  -0.020  0.00  0.00     0.287 C 
ATOM     10  O1  <0> d           2.165  -2.776  -0.034  0.00  0.00    -0.264 OA
ATOM     11  N3  <0> d          -0.055  -2.804  -0.013  0.00  0.00    -0.363 N 
ATOM     12  H3  <0> d          -0.887  -2.304  -0.002  0.00  0.00     0.159 HD
ATOM     13  H4  <0> d          -0.072  -3.774  -0.018  0.00  0.00     0.159 HD
ENDBRANCH   5   9
BRANCH   2  14
ATOM     14  N4  <0> d           1.220   3.400   0.008  0.00  0.00    -0.397 N 
ATOM     15  H5  <0> d           0.388   3.900   0.018  0.00  0.00     0.156 HD
ATOM     16  H6  <0> d           2.068   3.871   0.003  0.00  0.00     0.156 HD
ENDBRANCH   2  14
TORSDOF 2
