REMARK  4 active torsions:
REMARK  status: ('A' for Active; 'I' for Inactive)
REMARK    1  A    between atoms: C1_1  and  C2_2 
REMARK    2  A    between atoms: C2_2  and  C3_3 
REMARK    3  A    between atoms: C2_2  and  C4_4 
REMARK    4  A    between atoms: C5_5  and  C6_6 
ROOT
ATOM      1  C4  <0> d           1.121   2.152   0.003  0.00  0.00    -0.098 C 
ATOM      2  C5  <0> d          -0.018   1.473   0.010  0.00  0.00    -0.059 C 
ATOM      3  H8  <0> d           2.064   1.625  -0.009  0.00  0.00     0.077 H 
ATOM      4  H9  <0> d          -0.961   2.001   0.018  0.00  0.00     0.086 H 
ENDROOT
BRANCH   1   5
ATOM      5  C2  <0> d           1.101   3.659   0.011  0.00  0.00    -0.045 C 
ATOM      6  H4  <0> d           0.068   4.008   0.023  0.00  0.00     0.044 H 
BRANCH   5   7
ATOM      7  C1  <0> d           1.827   4.172   1.256  0.00  0.00    -0.070 C 
ATOM      8  H1  <0> d           2.859   3.822   1.245  0.00  0.00     0.028 H 
ATOM      9  H2  <0> d           1.812   5.262   1.262  0.00  0.00     0.028 H 
ATOM     10  H3  <0> d           1.327   3.797   2.149  0.00  0.00     0.028 H 
ENDBRANCH   5   7
BRANCH   5  11
ATOM     11  C3  <0> d           1.803   4.185  -1.242  0.00  0.00    -0.070 C 
ATOM     12  H5  <0> d           1.286   3.820  -2.129  0.00  0.00     0.028 H 
ATOM     13  H6  <0> d           1.788   5.275  -1.236  0.00  0.00     0.028 H 
ATOM     14  H7  <0> d           2.836   3.836  -1.254  0.00  0.00     0.028 H 
ENDBRANCH   5  11
ENDBRANCH   1   5
BRANCH   2  15
ATOM     15  C6  <0> d           0.002  -0.004   0.002  0.00  0.00     0.056 A 
ATOM     16  N1  <0> d           1.164  -0.647  -0.013  0.00  0.00    -0.261 NA
ATOM     17  C10 <0> d           1.224  -1.963  -0.020  0.00  0.00     0.003 A 
ATOM     18  C9  <0> d           0.072  -2.727  -0.012  0.00  0.00    -0.066 A 
ATOM     19  H13 <0> d           2.187  -2.452  -0.032  0.00  0.00     0.114 H 
ATOM     20  C8  <0> d          -1.164  -2.096   0.003  0.00  0.00    -0.079 A 
ATOM     21  H12 <0> d           0.133  -3.805  -0.019  0.00  0.00     0.085 H 
ATOM     22  C7  <0> d          -1.200  -0.713   0.015  0.00  0.00    -0.055 A 
ATOM     23  H11 <0> d          -2.078  -2.671   0.009  0.00  0.00     0.083 H 
ATOM     24  H10 <0> d          -2.144  -0.189   0.032  0.00  0.00     0.087 H 
ENDBRANCH   2  15
TORSDOF 4
