REMARK  5 active torsions:
REMARK  status: ('A' for Active; 'I' for Inactive)
REMARK    1  A    between atoms: C1_1  and  C2_2 
REMARK    2  A    between atoms: C2_2  and  C3_3 
REMARK    3  A    between atoms: C2_2  and  C4_4 
REMARK    4  A    between atoms: C4_4  and  N1_5 
REMARK    5  A    between atoms: C7_8  and  N3_10 
ROOT
ATOM      1  C4  <0> d           1.472   4.362   0.011  0.00  0.00     0.019 C 
ATOM      2  H8  <0> d           1.334   4.904   0.947  0.00  0.00     0.067 H 
ATOM      3  H9  <0> d           2.518   4.073  -0.090  0.00  0.00     0.067 H 
ENDROOT
BRANCH   1   4
ATOM      4  C2  <0> d           1.076   5.261  -1.162  0.00  0.00    -0.044 C 
ATOM      5  H4  <0> d           1.128   4.692  -2.090  0.00  0.00     0.041 H 
BRANCH   4   6
ATOM      6  C1  <0> d          -0.353   5.769  -0.956  0.00  0.00    -0.072 C 
ATOM      7  H1  <0> d          -0.635   6.409  -1.791  0.00  0.00     0.028 H 
ATOM      8  H2  <0> d          -1.035   4.921  -0.901  0.00  0.00     0.028 H 
ATOM      9  H3  <0> d          -0.406   6.338  -0.028  0.00  0.00     0.028 H 
ENDBRANCH   4   6
BRANCH   4  10
ATOM     10  C3  <0> d           2.034   6.452  -1.239  0.00  0.00    -0.072 C 
ATOM     11  H5  <0> d           3.052   6.090  -1.386  0.00  0.00     0.028 H 
ATOM     12  H6  <0> d           1.752   7.092  -2.075  0.00  0.00     0.028 H 
ATOM     13  H7  <0> d           1.981   7.021  -0.311  0.00  0.00     0.028 H 
ENDBRANCH   4  10
ENDBRANCH   1   4
BRANCH   1  14
ATOM     14  N1  <0> d           0.631   3.163   0.013  0.00  0.00    -0.279 N 
ATOM     15  N2  <0> d          -0.770   3.140   0.026  0.00  0.00    -0.155 NA
ATOM     16  C7  <0> d          -1.159   1.887   0.017  0.00  0.00     0.142 A 
ATOM     17  C6  <0> d          -0.013   1.076   0.008  0.00  0.00    -0.021 A 
ATOM     18  C5  <0> d           1.070   1.887   0.002  0.00  0.00     0.002 A 
ATOM     19  H11 <0> d           0.002  -0.004   0.002  0.00  0.00     0.091 H 
ATOM     20  H10 <0> d           2.102   1.570  -0.010  0.00  0.00     0.114 H 
BRANCH  16  21
ATOM     21  N3  <0> d          -2.485   1.438   0.019  0.00  0.00    -0.383 N 
ATOM     22  H12 <0> d          -2.674   0.486   0.015  0.00  0.00     0.157 HD
ATOM     23  H13 <0> d          -3.213   2.077   0.026  0.00  0.00     0.157 HD
ENDBRANCH  16  21
ENDBRANCH   1  14
TORSDOF 5
