REMARK  1 active torsions:
REMARK  status: ('A' for Active; 'I' for Inactive)
REMARK    1  A    between atoms: C4_6  and  O2_8 
ROOT
ATOM      1  C1  <0> d          -0.639   1.626  -1.298  0.00  0.00    -0.018 C 
ATOM      2  C2  <0> d           0.611   1.854  -2.177  0.00  0.00    -0.002 C 
ATOM      3  N1  <0> d           1.718   2.062  -1.236  0.00  0.00    -0.359 N 
ATOM      4  C3  <0> d           1.397   1.635  -0.003  0.00  0.00     0.246 C 
ATOM      5  O1  <0> d           2.131   1.683   0.962  0.00  0.00    -0.271 OA
ATOM      6  C4  <0> d          -0.013   1.086   0.008  0.00  0.00     0.113 C 
ATOM      7  H1  <0> d           0.002  -0.004   0.002  0.00  0.00     0.098 H 
ATOM      8  H2  <0> d          -1.302   0.886  -1.748  0.00  0.00     0.040 H 
ATOM      9  H3  <0> d          -1.167   2.563  -1.120  0.00  0.00     0.040 H 
ATOM     10  H4  <0> d           0.476   2.736  -2.802  0.00  0.00     0.064 H 
ATOM     11  H5  <0> d           0.802   0.978  -2.797  0.00  0.00     0.064 H 
ATOM     12  H6  <0> d           2.571   2.457  -1.474  0.00  0.00     0.162 HD
ENDROOT
BRANCH   6  13
ATOM     13  O2  <0> d          -0.729   1.569   1.146  0.00  0.00    -0.386 OA
ATOM     14  H7  <0> d          -0.360   1.284   1.993  0.00  0.00     0.210 HD
ENDBRANCH   6  13
TORSDOF 1
