REMARK  3 active torsions:
REMARK  status: ('A' for Active; 'I' for Inactive)
REMARK    1  A    between atoms: C1_1  and  C2_2 
REMARK    2  A    between atoms: C2_2  and  C3_3 
REMARK    3  A    between atoms: C2_2  and  C4_4 
ROOT
ATOM      1  C2  <0> d           0.002  -0.004   0.002  0.00  0.00    -0.010 C 
ATOM      2  H4  <0> d           0.512  -0.356  -0.895  0.00  0.00     0.049 H 
ENDROOT
BRANCH   1   3
ATOM      3  C1  <0> d          -0.019   1.526   0.010  0.00  0.00    -0.067 C 
ATOM      4  H1  <0> d           1.004   1.903   0.003  0.00  0.00     0.028 H 
ATOM      5  H2  <0> d          -0.546   1.887  -0.873  0.00  0.00     0.028 H 
ATOM      6  H3  <0> d          -0.529   1.877   0.907  0.00  0.00     0.028 H 
ENDBRANCH   1   3
BRANCH   1   7
ATOM      7  C3  <0> d           0.742  -0.511   1.242  0.00  0.00    -0.067 C 
ATOM      8  H5  <0> d           0.232  -0.159   2.138  0.00  0.00     0.028 H 
ATOM      9  H6  <0> d           0.757  -1.601   1.236  0.00  0.00     0.028 H 
ATOM     10  H7  <0> d           1.765  -0.134   1.234  0.00  0.00     0.028 H 
ENDBRANCH   1   7
BRANCH   1  11
ATOM     11  C4  <0> d          -1.412  -0.526   0.013  0.00  0.00     0.104 A 
ATOM     12  S1  <0> d          -2.261  -1.559  -1.172  0.00  0.00    -0.023 SA
ATOM     13  C5  <0> d          -3.739  -1.625  -0.363  0.00  0.00     0.264 A 
ATOM     14  N2  <0> d          -3.498  -0.885   0.699  0.00  0.00    -0.113 NA
ATOM     15  O1  <0> d          -4.880  -2.268  -0.717  0.00  0.00    -0.160 OA
ATOM     16  N1  <0> d          -2.373  -0.344   0.895  0.00  0.00    -0.144 NA
ENDBRANCH   1  11
TORSDOF 3
