REMARK  2 active torsions:
REMARK  status: ('A' for Active; 'I' for Inactive)
REMARK    1  A    between atoms: C1_1  and  C2_2 
REMARK       I    between atoms: C2_2  and  N1_4 
REMARK    2  A    between atoms: C6_8  and  O2_11 
ROOT
ATOM      1  C2  <0> d          -0.668  -0.705   0.938  0.00  0.00     0.215 C 
ATOM      2  O1  <0> d          -1.222  -0.126   1.849  0.00  0.00    -0.274 OA
ATOM      3  N1  <0> d           0.004  -0.004   0.003  0.00  0.00    -0.350 N 
ATOM      4  C3  <0> d           0.781  -0.695  -1.035  0.00  0.00    -0.002 C 
ATOM      5  C4  <0> d           2.212  -0.147  -1.026  0.00  0.00    -0.048 C 
ATOM      6  C5  <0> d           2.172   1.375  -1.179  0.00  0.00    -0.038 C 
ATOM      7  C6  <0> d           1.413   1.988   0.001  0.00  0.00     0.051 C 
ATOM      8  H1  <0> d           1.919   1.778   0.954  0.00  0.00     0.085 H 
ATOM      9  C7  <0> d          -0.026   1.465   0.003  0.00  0.00     0.021 C 
ATOM     10  H5  <0> d           0.794  -1.775  -0.827  0.00  0.00     0.064 H 
ATOM     11  H6  <0> d           0.320  -0.516  -2.018  0.00  0.00     0.064 H 
ATOM     12  H7  <0> d           2.699  -0.410  -0.076  0.00  0.00     0.035 H 
ATOM     13  H8  <0> d           2.777  -0.586  -1.861  0.00  0.00     0.035 H 
ATOM     14  H9  <0> d           3.199   1.768  -1.197  0.00  0.00     0.036 H 
ATOM     15  H10 <0> d           1.662   1.637  -2.118  0.00  0.00     0.036 H 
ATOM     16  H11 <0> d          -0.554   1.820  -0.894  0.00  0.00     0.068 H 
ATOM     17  H12 <0> d          -0.551   1.821   0.903  0.00  0.00     0.068 H 
ENDROOT
BRANCH   1  18
ATOM     18  C1  <0> d          -0.732  -2.208   0.852  0.00  0.00    -0.003 C 
ATOM     19  H2  <0> d          -0.175  -2.549  -0.034  0.00  0.00     0.040 H 
ATOM     20  H3  <0> d          -1.781  -2.527   0.770  0.00  0.00     0.040 H 
ATOM     21  H4  <0> d          -0.285  -2.647   1.756  0.00  0.00     0.040 H 
ENDBRANCH   1  18
BRANCH   7  22
ATOM     22  O2  <0> d           1.403   3.411  -0.127  0.00  0.00    -0.394 OA
ATOM     23  H13 <0> d           0.901   4.028   0.633  0.00  0.00     0.210 HD
ENDBRANCH   7  22
TORSDOF 2
