REMARK  2 active torsions:
REMARK  status: ('A' for Active; 'I' for Inactive)
REMARK    1  A    between atoms: C1_1  and  N5_9 
REMARK    2  A    between atoms: C2_3  and  N4_8 
ROOT
ATOM      1  C1  <0> d          -0.016   1.327   0.009  0.00  0.00     0.738 A 
ATOM      2  N1  <0> d           1.126   2.005   0.002  0.00  0.00     0.130 NA
ATOM      3  C2  <0> d           2.284   1.352  -0.013  0.00  0.00     0.738 A 
ATOM      4  N2  <0> d           2.295   0.021  -0.020  0.00  0.00    -0.030 NA
ATOM      5  C3  <0> d           1.156  -0.651  -0.013  0.00  0.00     0.259 A 
ATOM      6  N3  <0> d           0.002  -0.004   0.002  0.00  0.00    -0.030 NA
ATOM      7 Cl1  <0> d           1.175  -2.387  -0.023  0.00  0.00    -0.040 Cl
ENDROOT
BRANCH   1   8
ATOM      8  N5  <0> d          -1.220   2.001   0.030  0.00  0.00    -0.230 N 
ATOM      9  H3  <0> d          -2.053   1.505   0.040  0.00  0.00     0.174 HD
ATOM     10  H4  <0> d          -1.232   2.971   0.035  0.00  0.00     0.174 HD
ENDBRANCH   1   8
BRANCH   3  11
ATOM     11  N4  <0> d           3.472   2.053  -0.021  0.00  0.00    -0.230 N 
ATOM     12  H1  <0> d           3.463   3.023  -0.016  0.00  0.00     0.174 HD
ATOM     13  H2  <0> d           4.317   1.576  -0.031  0.00  0.00     0.174 HD
ENDBRANCH   3  11
TORSDOF 2
