REMARK  9 active torsions:
REMARK  status: ('A' for Active; 'I' for Inactive)
REMARK    1  A    between atoms: C1_1  and  C2_2 
REMARK    2  A    between atoms: C2_2  and  C3_3 
REMARK    3  A    between atoms: C3_3  and  C4_4 
REMARK    4  A    between atoms: C4_4  and  C5_6 
REMARK    5  A    between atoms: C4_4  and  C6_7 
REMARK    6  A    between atoms: C6_7  and  C7_9 
REMARK    7  A    between atoms: C7_9  and  C8_11 
REMARK    8  A    between atoms: C7_9  and  C9_12 
REMARK    9  A    between atoms: C9_12  and  C10_13 
ROOT
ATOM      1  C4  <0> d          -1.329   1.939   0.019  0.00  0.00     0.001 C 
ATOM      2  H1  <0> d          -1.246   2.779  -0.518  0.00  0.00     0.051 H 
ENDROOT
BRANCH   1   3
ATOM      3  C3  <0> d          -2.416   1.050  -0.590  0.00  0.00    -0.056 C 
ATOM      4  H8  <0> d          -2.106   0.728  -1.584  0.00  0.00     0.034 H 
ATOM      5  H9  <0> d          -2.569   0.177   0.044  0.00  0.00     0.034 H 
BRANCH   3   6
ATOM      6  C2  <0> d          -3.722   1.840  -0.695  0.00  0.00    -0.068 C 
ATOM      7  H6  <0> d          -4.032   2.163   0.299  0.00  0.00     0.032 H 
ATOM      8  H7  <0> d          -3.569   2.714  -1.329  0.00  0.00     0.032 H 
BRANCH   6   9
ATOM      9  C1  <0> d          -4.808   0.952  -1.304  0.00  0.00    -0.076 C 
ATOM     10  H3  <0> d          -5.739   1.514  -1.378  0.00  0.00     0.027 H 
ATOM     11  H4  <0> d          -4.498   0.629  -2.298  0.00  0.00     0.027 H 
ATOM     12  H5  <0> d          -4.961   0.079  -0.670  0.00  0.00     0.027 H 
ENDBRANCH   6   9
ENDBRANCH   3   6
ENDBRANCH   1   3
BRANCH   1  13
ATOM     13  C5  <0> d          -1.706   2.290   1.460  0.00  0.00    -0.066 C 
ATOM     14  H10 <0> d          -0.932   2.923   1.894  0.00  0.00     0.028 H 
ATOM     15  H11 <0> d          -2.658   2.822   1.467  0.00  0.00     0.028 H 
ATOM     16  H12 <0> d          -1.798   1.375   2.045  0.00  0.00     0.028 H 
ENDBRANCH   1  13
BRANCH   1  17
ATOM     17  C6  <0> d          -0.014   1.203   0.009  0.00  0.00     0.134 C 
ATOM     18  O1  <0> d           0.002  -0.004   0.002  0.00  0.00    -0.297 OA
BRANCH  17  19
ATOM     19  C7  <0> d           1.280   1.975   0.000  0.00  0.00     0.000 C 
ATOM     20  H2  <0> d           1.177   2.806   0.547  0.00  0.00     0.051 H 
BRANCH  19  21
ATOM     21  C8  <0> d           1.641   2.351  -1.438  0.00  0.00    -0.066 C 
ATOM     22  H13 <0> d           1.754   1.445  -2.034  0.00  0.00     0.028 H 
ATOM     23  H14 <0> d           0.848   2.968  -1.861  0.00  0.00     0.028 H 
ATOM     24  H15 <0> d           2.577   2.909  -1.444  0.00  0.00     0.028 H 
ENDBRANCH  19  21
BRANCH  19  25
ATOM     25  C9  <0> d           2.393   1.109   0.595  0.00  0.00    -0.059 C 
ATOM     26  H16 <0> d           2.097   0.767   1.587  0.00  0.00     0.033 H 
ATOM     27  H17 <0> d           2.567   0.247  -0.050  0.00  0.00     0.033 H 
BRANCH  25  28
ATOM     28  C10 <0> d           3.678   1.933   0.702  0.00  0.00    -0.076 C 
ATOM     29  H18 <0> d           4.471   1.317   1.125  0.00  0.00     0.027 H 
ATOM     30  H19 <0> d           3.974   2.275  -0.290  0.00  0.00     0.027 H 
ATOM     31  H20 <0> d           3.505   2.795   1.346  0.00  0.00     0.027 H 
ENDBRANCH  25  28
ENDBRANCH  19  25
ENDBRANCH  17  19
ENDBRANCH   1  17
TORSDOF 9
