REMARK  1 active torsions:
REMARK  status: ('A' for Active; 'I' for Inactive)
REMARK    1  A    between atoms: C1_1  and  C2_2 
ROOT
ATOM      1  C2  <0> d          -0.018   1.456   0.010  0.00  0.00     0.009 C 
ATOM      2  H1  <0> d          -0.508   1.779  -0.936  0.00  0.00     0.071 H 
ATOM      3  C3  <0> d           1.389   2.032  -0.000  0.00  0.00    -0.046 C 
ATOM      4  C4  <0> d           2.106   1.954   1.327  0.00  0.00    -0.063 C 
ATOM      5  C5  <0> d           2.488   0.549   1.755  0.00  0.00    -0.057 C 
ATOM      6  C6  <0> d           1.234  -0.240   2.154  0.00  0.00     0.009 C 
ATOM      7  C7  <0> d           0.613  -0.788   0.884  0.00  0.00     0.217 C 
ATOM      8  O1  <0> d           0.677  -1.985   0.668  0.00  0.00    -0.274 OA
ATOM      9  N1  <0> d           0.002  -0.004   0.002  0.00  0.00    -0.357 N 
ATOM     10  H5  <0> d           1.985   1.500  -0.753  0.00  0.00     0.035 H 
ATOM     11  H6  <0> d           1.339   3.083  -0.311  0.00  0.00     0.035 H 
ATOM     12  H7  <0> d           1.515   2.418   2.111  0.00  0.00     0.033 H 
ATOM     13  H8  <0> d           3.035   2.535   1.242  0.00  0.00     0.033 H 
ATOM     14  H9  <0> d           3.163   0.602   2.608  0.00  0.00     0.033 H 
ATOM     15  H10 <0> d           2.983   0.041   0.929  0.00  0.00     0.033 H 
ATOM     16  H11 <0> d           0.540   0.393   2.688  0.00  0.00     0.047 H 
ATOM     17  H12 <0> d           1.531  -1.076   2.795  0.00  0.00     0.047 H 
ATOM     18  H13 <0> d          -0.483  -0.461  -0.727  0.00  0.00     0.162 HD
ENDROOT
BRANCH   1  19
ATOM     19  C1  <0> d          -0.861   2.010   1.152  0.00  0.00    -0.057 C 
ATOM     20  H2  <0> d          -0.452   1.670   2.104  0.00  0.00     0.030 H 
ATOM     21  H3  <0> d          -0.847   3.099   1.119  0.00  0.00     0.030 H 
ATOM     22  H4  <0> d          -1.887   1.656   1.051  0.00  0.00     0.030 H 
ENDBRANCH   1  19
TORSDOF 1
