REMARK  8 active torsions:
REMARK  status: ('A' for Active; 'I' for Inactive)
REMARK    1  A    between atoms: C1_1  and  C2_2 
REMARK    2  A    between atoms: C2_2  and  C3_3 
REMARK    3  A    between atoms: C3_3  and  C4_4 
REMARK    4  A    between atoms: C4_4  and  C5_5 
REMARK    5  A    between atoms: C5_5  and  C6_6 
REMARK    6  A    between atoms: C6_6  and  C7_8 
REMARK    7  A    between atoms: C6_6  and  O2_11 
REMARK    8  A    between atoms: C7_8  and  C8_9 
ROOT
ATOM      1  C4  <0> d           0.002  -0.004   0.002  0.00  0.00    -0.063 C 
ATOM      2  H9  <0> d           0.529  -0.365   0.885  0.00  0.00     0.033 H 
ATOM      3  H10 <0> d          -1.020  -0.381   0.010  0.00  0.00     0.033 H 
ENDROOT
BRANCH   1   4
ATOM      4  C3  <0> d          -0.019   1.526   0.010  0.00  0.00    -0.065 C 
ATOM      5  H7  <0> d           1.004   1.903   0.003  0.00  0.00     0.033 H 
ATOM      6  H8  <0> d          -0.546   1.887  -0.873  0.00  0.00     0.033 H 
BRANCH   4   7
ATOM      7  C2  <0> d          -0.735   2.019   1.269  0.00  0.00    -0.069 C 
ATOM      8  H5  <0> d          -1.757   1.642   1.277  0.00  0.00     0.032 H 
ATOM      9  H6  <0> d          -0.208   1.658   2.152  0.00  0.00     0.032 H 
BRANCH   7  10
ATOM     10  C1  <0> d          -0.756   3.549   1.278  0.00  0.00    -0.077 C 
ATOM     11  H2  <0> d           0.267   3.926   1.270  0.00  0.00     0.027 H 
ATOM     12  H3  <0> d          -1.283   3.910   0.395  0.00  0.00     0.027 H 
ATOM     13  H4  <0> d          -1.266   3.901   2.174  0.00  0.00     0.027 H 
ENDBRANCH   7  10
ENDBRANCH   4   7
ENDBRANCH   1   4
BRANCH   1  14
ATOM     14  C5  <0> d           0.718  -0.497  -1.257  0.00  0.00    -0.041 C 
ATOM     15  H11 <0> d           0.191  -0.136  -2.140  0.00  0.00     0.036 H 
ATOM     16  H12 <0> d           1.741  -0.120  -1.264  0.00  0.00     0.036 H 
BRANCH  14  17
ATOM     17  C6  <0> d           0.739  -2.027  -1.265  0.00  0.00     0.044 C 
ATOM     18  H1  <0> d           1.187  -2.390  -0.340  0.00  0.00     0.083 H 
BRANCH  17  19
ATOM     19  C7  <0> d           1.562  -2.520  -2.457  0.00  0.00     0.039 C 
ATOM     20  H13 <0> d           1.066  -2.233  -3.385  0.00  0.00     0.052 H 
ATOM     21  H14 <0> d           2.555  -2.072  -2.423  0.00  0.00     0.052 H 
BRANCH  19  22
ATOM     22  C8  <0> d           1.685  -4.020  -2.397  0.00  0.00     0.175 C 
ATOM     23  O1  <0> d           1.168  -4.633  -1.493  0.00  0.00    -0.648 OA
ATOM     24  O3  <0> d           2.370  -4.676  -3.347  0.00  0.00    -0.648 OA
ENDBRANCH  19  22
ENDBRANCH  17  19
BRANCH  17  25
ATOM     25  O2  <0> d          -0.598  -2.521  -1.373  0.00  0.00    -0.395 OA
ATOM     26  H15 <0> d          -1.059  -2.238  -2.174  0.00  0.00     0.210 HD
ENDBRANCH  17  25
ENDBRANCH  14  17
ENDBRANCH   1  14
TORSDOF 8
