REMARK  2 active torsions:
REMARK  status: ('A' for Active; 'I' for Inactive)
REMARK    1  A    between atoms: C1_1  and  C2_2 
REMARK    2  A    between atoms: C4_5  and  C5_7 
ROOT
ATOM      1  C2  <0> d           1.728  -0.205  -0.015  0.00  0.00    -0.002 A 
ATOM      2  C3  <0> d           2.151   1.092  -0.013  0.00  0.00     0.016 A 
ATOM      3  N1  <0> d           1.276   2.061   0.001  0.00  0.00    -0.246 NA
ATOM      4  C4  <0> d          -0.022   1.782   0.012  0.00  0.00     0.174 A 
ATOM      5  S1  <0> d           0.002  -0.004   0.002  0.00  0.00    -0.067 SA
ATOM      6  H4  <0> d           3.208   1.317  -0.021  0.00  0.00     0.116 H 
ENDROOT
BRANCH   1   7
ATOM      7  C1  <0> d           2.540  -1.474  -0.030  0.00  0.00    -0.044 C 
ATOM      8  H1  <0> d           3.611  -1.223  -0.039  0.00  0.00     0.034 H 
ATOM      9  H2  <0> d           2.293  -2.058  -0.928  0.00  0.00     0.034 H 
ATOM     10  H3  <0> d           2.310  -2.067   0.868  0.00  0.00     0.034 H 
ENDBRANCH   1   7
BRANCH   4  11
ATOM     11  C5  <0> d          -1.172   2.699   0.023  0.00  0.00     0.236 C 
ATOM     12  O1  <0> d          -2.304   2.255   0.026  0.00  0.00    -0.642 OA
ATOM     13  O2  <0> d          -0.972   4.032   0.029  0.00  0.00    -0.642 OA
ENDBRANCH   4  11
TORSDOF 2
