REMARK  1 active torsions:
REMARK  status: ('A' for Active; 'I' for Inactive)
REMARK    1  A    between atoms: C4_6  and  C5_8 
REMARK       I    between atoms: C5_8  and  N2_10 
ROOT
ATOM      1  C1  <0> d           1.465   1.896  -0.002  0.00  0.00    -0.030 C 
ATOM      2  C2  <0> d           2.144   0.675  -0.664  0.00  0.00     0.011 C 
ATOM      3  C3  <0> d           1.203  -0.474  -0.379  0.00  0.00     0.218 C 
ATOM      4  O1  <0> d           1.489  -1.648  -0.478  0.00  0.00    -0.274 OA
ATOM      5  N1  <0> d           0.002  -0.004   0.002  0.00  0.00    -0.348 N 
ATOM      6  C4  <0> d          -0.018   1.463   0.010  0.00  0.00     0.089 C 
ATOM      7  H1  <0> d          -0.510   1.829   0.911  0.00  0.00     0.087 H 
ATOM      8  H2  <0> d           1.605   2.794  -0.603  0.00  0.00     0.037 H 
ATOM      9  H3  <0> d           1.836   2.046   1.012  0.00  0.00     0.037 H 
ATOM     10  H4  <0> d           3.120   0.490  -0.214  0.00  0.00     0.047 H 
ATOM     11  H5  <0> d           2.244   0.828  -1.739  0.00  0.00     0.047 H 
ATOM     12  H6  <0> d          -0.754  -0.563   0.240  0.00  0.00     0.163 HD
ENDROOT
BRANCH   6  13
ATOM     13  C5  <0> d          -0.722   1.982  -1.217  0.00  0.00     0.238 C 
ATOM     14  O2  <0> d          -0.872   1.261  -2.180  0.00  0.00    -0.271 OA
ATOM     15  N2  <0> d          -1.185   3.248  -1.244  0.00  0.00    -0.368 N 
ATOM     16  H7  <0> d          -1.065   3.824  -0.473  0.00  0.00     0.159 HD
ATOM     17  H8  <0> d          -1.639   3.582  -2.034  0.00  0.00     0.159 HD
ENDBRANCH   6  13
TORSDOF 1
