REMARK  2 active torsions:
REMARK  status: ('A' for Active; 'I' for Inactive)
REMARK    1  A    between atoms: C8_8  and  C9_11 
REMARK    2  A    between atoms: C9_11  and  O2_12 
ROOT
ATOM      1  C1  <0> d           1.167   2.090   0.002  0.00  0.00    -0.082 A 
ATOM      2  C2  <0> d          -0.017   1.375   0.010  0.00  0.00    -0.080 A 
ATOM      3  C3  <0> d           0.002  -0.004   0.002  0.00  0.00    -0.050 A 
ATOM      4  C4  <0> d           1.215  -0.689  -0.012  0.00  0.00     0.075 A 
ATOM      5  C5  <0> d           2.397   0.040  -0.014  0.00  0.00    -0.022 A 
ATOM      6  C6  <0> d           2.376   1.417  -0.010  0.00  0.00    -0.074 A 
ATOM      7  C7  <0> d           3.536  -0.961  -0.016  0.00  0.00    -0.012 C 
ATOM      8  C8  <0> d           2.814  -2.268   0.390  0.00  0.00     0.069 C 
ATOM      9  H1  <0> d           2.862  -2.416   1.469  0.00  0.00     0.087 H 
ATOM     10  O1  <0> d           1.461  -2.028  -0.032  0.00  0.00    -0.343 OA
ATOM     11  H2  <0> d           1.148   3.170   0.005  0.00  0.00     0.083 H 
ATOM     12  H3  <0> d          -0.961   1.899   0.017  0.00  0.00     0.083 H 
ATOM     13  H4  <0> d          -0.927  -0.555   0.006  0.00  0.00     0.087 H 
ATOM     14  H5  <0> d           3.303   1.972  -0.017  0.00  0.00     0.084 H 
ATOM     15  H6  <0> d           4.294  -0.690   0.720  0.00  0.00     0.044 H 
ATOM     16  H7  <0> d           3.975  -1.051  -1.010  0.00  0.00     0.044 H 
ENDROOT
BRANCH   8  17
ATOM     17  C9  <0> d           3.407  -3.470  -0.347  0.00  0.00     0.041 C 
ATOM     18  H8  <0> d           3.298  -3.328  -1.422  0.00  0.00     0.077 H 
ATOM     19  H9  <0> d           4.464  -3.564  -0.098  0.00  0.00     0.077 H 
BRANCH  17  20
ATOM     20  O2  <0> d           2.718  -4.658   0.048  0.00  0.00    -0.398 OA
ATOM     21  H10 <0> d           3.042  -5.462  -0.381  0.00  0.00     0.209 HD
ENDBRANCH  17  20
ENDBRANCH   8  17
TORSDOF 2
