REMARK  5 active torsions:
REMARK  status: ('A' for Active; 'I' for Inactive)
REMARK    1  A    between atoms: C1_1  and  C2_2 
REMARK    2  A    between atoms: N2_5  and  C5_8 
REMARK    3  A    between atoms: C4_6  and  N3_7 
REMARK    4  A    between atoms: C5_8  and  C6_9 
REMARK    5  A    between atoms: C5_8  and  C7_10 
ROOT
ATOM      1  C2  <0> d          -2.465   1.079   0.020  0.00  0.00     0.002 A 
ATOM      2  C3  <0> d          -3.406   2.112   0.031  0.00  0.00     0.031 A 
ATOM      3  N1  <0> d          -2.766   3.253   0.034  0.00  0.00    -0.182 NA
ATOM      4  N2  <0> d          -1.391   2.988   0.030  0.00  0.00    -0.250 N 
ATOM      5  C4  <0> d          -1.226   1.645   0.017  0.00  0.00     0.125 A 
ATOM      6  H4  <0> d          -4.479   1.989   0.035  0.00  0.00     0.118 H 
ENDROOT
BRANCH   4   7
ATOM      7  C5  <0> d          -0.320   3.988   0.037  0.00  0.00     0.029 C 
ATOM      8  H7  <0> d           0.634   3.441   0.029  0.00  0.00     0.074 H 
BRANCH   7   9
ATOM      9  C6  <0> d          -0.443   4.875  -1.203  0.00  0.00    -0.056 C 
ATOM     10  H8  <0> d           0.361   5.626  -1.198  0.00  0.00     0.030 H 
ATOM     11  H9  <0> d          -1.419   5.383  -1.196  0.00  0.00     0.030 H 
ATOM     12  H10 <0> d          -0.360   4.254  -2.108  0.00  0.00     0.030 H 
ENDBRANCH   7   9
BRANCH   7  13
ATOM     13  C7  <0> d          -0.436   4.851   1.295  0.00  0.00    -0.056 C 
ATOM     14  H11 <0> d           0.368   5.601   1.300  0.00  0.00     0.030 H 
ATOM     15  H12 <0> d          -0.347   4.213   2.187  0.00  0.00     0.030 H 
ATOM     16  H13 <0> d          -1.412   5.358   1.303  0.00  0.00     0.030 H 
ENDBRANCH   7  13
ENDBRANCH   4   7
BRANCH   5  17
ATOM     17  N3  <0> d          -0.011   0.966   0.007  0.00  0.00    -0.384 N 
ATOM     18  H5  <0> d           0.934   1.529   0.005  0.00  0.00     0.157 HD
ATOM     19  H6  <0> d           0.004  -0.134   0.002  0.00  0.00     0.157 HD
ENDBRANCH   5  17
BRANCH   1  20
ATOM     20  C1  <0> d          -2.766  -0.397   0.013  0.00  0.00    -0.046 C 
ATOM     21  H1  <0> d          -3.855  -0.549   0.018  0.00  0.00     0.033 H 
ATOM     22  H2  <0> d          -2.326  -0.865   0.906  0.00  0.00     0.033 H 
ATOM     23  H3  <0> d          -2.336  -0.855  -0.890  0.00  0.00     0.033 H 
ENDBRANCH   1  20
TORSDOF 5
