REMARK  8 active torsions:
REMARK  status: ('A' for Active; 'I' for Inactive)
REMARK    1  A    between atoms: C1_1  and  C2_2 
REMARK    2  A    between atoms: C2_2  and  C3_3 
REMARK    3  A    between atoms: C3_3  and  C4_4 
REMARK    4  A    between atoms: C4_4  and  C5_6 
REMARK    5  A    between atoms: C4_4  and  O2_11 
REMARK    6  A    between atoms: C5_6  and  C6_8 
REMARK    7  A    between atoms: C6_8  and  C7_9 
REMARK    8  A    between atoms: C7_9  and  C8_10 
ROOT
ATOM      1  C4  <0> d          -1.329   1.939   0.019  0.00  0.00     0.092 C 
ATOM      2  H1  <0> d          -1.265   2.729   0.629  0.00  0.00     0.095 H 
ENDROOT
BRANCH   1   3
ATOM      3  C3  <0> d          -1.659   2.414  -1.398  0.00  0.00    -0.035 C 
ATOM      4  H7  <0> d          -0.831   3.010  -1.783  0.00  0.00     0.037 H 
ATOM      5  H8  <0> d          -1.817   1.550  -2.043  0.00  0.00     0.037 H 
BRANCH   3   6
ATOM      6  C2  <0> d          -2.929   3.267  -1.367  0.00  0.00    -0.066 C 
ATOM      7  H5  <0> d          -3.757   2.672  -0.982  0.00  0.00     0.032 H 
ATOM      8  H6  <0> d          -2.771   4.131  -0.721  0.00  0.00     0.032 H 
BRANCH   6   9
ATOM      9  C1  <0> d          -3.259   3.742  -2.783  0.00  0.00    -0.076 C 
ATOM     10  H2  <0> d          -2.431   4.337  -3.169  0.00  0.00     0.027 H 
ATOM     11  H3  <0> d          -3.417   2.878  -3.429  0.00  0.00     0.027 H 
ATOM     12  H4  <0> d          -4.163   4.350  -2.761  0.00  0.00     0.027 H 
ENDBRANCH   6   9
ENDBRANCH   3   6
ENDBRANCH   1   3
BRANCH   1  13
ATOM     13  C5  <0> d          -0.014   1.203   0.009  0.00  0.00     0.155 C 
ATOM     14  O1  <0> d           0.002  -0.004   0.002  0.00  0.00    -0.295 OA
BRANCH  13  15
ATOM     15  C6  <0> d           1.280   1.975   0.000  0.00  0.00    -0.007 C 
ATOM     16  H9  <0> d           1.318   2.554  -0.813  0.00  0.00     0.044 H 
ATOM     17  H10 <0> d           1.338   2.597   0.893  0.00  0.00     0.044 H 
BRANCH  15  18
ATOM     18  C7  <0> d           2.457   0.996  -0.016  0.00  0.00    -0.062 C 
ATOM     19  H11 <0> d           2.416   0.364   0.871  0.00  0.00     0.033 H 
ATOM     20  H12 <0> d           2.399   0.374  -0.909  0.00  0.00     0.033 H 
BRANCH  18  21
ATOM     21  C8  <0> d           3.771   1.779  -0.024  0.00  0.00    -0.076 C 
ATOM     22  H13 <0> d           3.812   2.411  -0.911  0.00  0.00     0.027 H 
ATOM     23  H14 <0> d           3.829   2.402   0.868  0.00  0.00     0.027 H 
ATOM     24  H15 <0> d           4.609   1.082  -0.036  0.00  0.00     0.027 H 
ENDBRANCH  18  21
ENDBRANCH  15  18
ENDBRANCH  13  15
ENDBRANCH   1  13
BRANCH   1  25
ATOM     25  O2  <0> d          -2.361   1.064   0.480  0.00  0.00    -0.388 OA
ATOM     26  H16 <0> d          -2.480   0.275  -0.066  0.00  0.00     0.210 HD
ENDBRANCH   1  25
TORSDOF 8
