REMARK  2 active torsions:
REMARK  status: ('A' for Active; 'I' for Inactive)
REMARK    1  A    between atoms: C1_1  and  C2_2 
REMARK    2  A    between atoms: C2_2  and  C3_3 
ROOT
ATOM      1  C3  <0> d           0.002  -0.004   0.002  0.00  0.00    -0.048 C 
ATOM      2  H1  <0> d           0.149  -0.380  -1.011  0.00  0.00     0.040 H 
ATOM      3  C4  <0> d          -0.019   1.546   0.011  0.00  0.00    -0.055 C 
ATOM      4  C5  <0> d           1.490   1.897  -0.002  0.00  0.00    -0.009 C 
ATOM      5  C6  <0> d           2.131   0.844   0.884  0.00  0.00     0.127 C 
ATOM      6  O1  <0> d           3.180   0.947   1.473  0.00  0.00    -0.298 OA
ATOM      7  C7  <0> d           1.211  -0.359   0.892  0.00  0.00    -0.006 C 
ATOM      8  H7  <0> d          -0.514   1.931  -0.880  0.00  0.00     0.034 H 
ATOM      9  H8  <0> d          -0.497   1.922   0.915  0.00  0.00     0.034 H 
ATOM     10  H9  <0> d           1.831   1.866  -0.941  0.00  0.00     0.044 H 
ATOM     11  H10 <0> d           1.652   2.892   0.411  0.00  0.00     0.044 H 
ATOM     12  H11 <0> d           0.894  -0.563   1.819  0.00  0.00     0.044 H 
ATOM     13  H12 <0> d           1.730  -1.228   0.487  0.00  0.00     0.044 H 
ENDROOT
BRANCH   1  14
ATOM     14  C2  <0> d          -1.290  -0.562   0.602  0.00  0.00    -0.065 C 
ATOM     15  H5  <0> d          -1.349  -0.290   1.656  0.00  0.00     0.033 H 
ATOM     16  H6  <0> d          -2.146  -0.147   0.071  0.00  0.00     0.033 H 
BRANCH  14  17
ATOM     17  C1  <0> d          -1.297  -2.087   0.468  0.00  0.00    -0.076 C 
ATOM     18  H2  <0> d          -1.239  -2.359  -0.586  0.00  0.00     0.027 H 
ATOM     19  H3  <0> d          -0.441  -2.502   0.999  0.00  0.00     0.027 H 
ATOM     20  H4  <0> d          -2.218  -2.485   0.895  0.00  0.00     0.027 H 
ENDBRANCH  14  17
ENDBRANCH   1  14
TORSDOF 2
