REMARK  3 active torsions:
REMARK  status: ('A' for Active; 'I' for Inactive)
REMARK    1  A    between atoms: C1_1  and  C4_8 
REMARK    2  A    between atoms: C1_1  and  C2_2 
REMARK    3  A    between atoms: C3_4  and  N4_7 
ROOT
ATOM      1  C2  <0> d          -0.747   2.002  -1.211  0.00  0.00     0.152 A 
ATOM      2  N1  <0> d          -1.817   2.853  -1.224  0.00  0.00    -0.174 N 
ATOM      3  C3  <0> d          -2.139   3.022  -2.539  0.00  0.00     0.718 A 
ATOM      4  N2  <0> d          -1.293   2.302  -3.238  0.00  0.00     0.043 NA
ATOM      5  N3  <0> d          -0.471   1.707  -2.449  0.00  0.00    -0.119 NA
ATOM      6  H5  <0> d          -2.256   3.254  -0.458  0.00  0.00     0.185 HD
ENDROOT
BRANCH   1   7
ATOM      7  C1  <0> d          -0.018   1.503   0.010  0.00  0.00     0.072 C 
ATOM      8  H1  <0> d           1.004   1.880   0.003  0.00  0.00     0.061 H 
ATOM      9  H2  <0> d          -0.529   1.854   0.907  0.00  0.00     0.061 H 
BRANCH   7  10
ATOM     10  C4  <0> d           0.002  -0.004   0.002  0.00  0.00     0.179 C 
ATOM     11  O1  <0> d          -0.526  -0.616  -0.911  0.00  0.00    -0.648 OA
ATOM     12  O2  <0> d           0.547  -0.611   0.908  0.00  0.00    -0.648 OA
ENDBRANCH   7  10
ENDBRANCH   1   7
BRANCH   3  13
ATOM     13  N4  <0> d          -3.165   3.806  -3.042  0.00  0.00    -0.231 N 
ATOM     14  H3  <0> d          -3.738   4.302  -2.437  0.00  0.00     0.174 HD
ATOM     15  H4  <0> d          -3.311   3.858  -4.000  0.00  0.00     0.174 HD
ENDBRANCH   3  13
TORSDOF 3
