REMARK  1 active torsions:
REMARK  status: ('A' for Active; 'I' for Inactive)
REMARK    1  A    between atoms: C4_4  and  C7_7 
ROOT
ATOM      1  C1  <0> d           1.208  -0.682  -0.014  0.00  0.00    -0.083 A 
ATOM      2  C2  <0> d           0.002  -0.004   0.002  0.00  0.00    -0.082 A 
ATOM      3  C3  <0> d          -0.017   1.376   0.010  0.00  0.00    -0.071 A 
ATOM      4  C4  <0> d           1.182   2.086   0.002  0.00  0.00    -0.006 A 
ATOM      5  C5  <0> d           2.394   1.398  -0.013  0.00  0.00    -0.071 A 
ATOM      6  C6  <0> d           2.401   0.018  -0.021  0.00  0.00    -0.082 A 
ATOM      7  H1  <0> d           1.218  -1.762  -0.019  0.00  0.00     0.083 H 
ATOM      8  H2  <0> d          -0.926  -0.556   0.008  0.00  0.00     0.083 H 
ATOM      9  H3  <0> d          -0.959   1.904   0.017  0.00  0.00     0.084 H 
ATOM     10  H4  <0> d           3.326   1.944  -0.019  0.00  0.00     0.084 H 
ATOM     11  H5  <0> d           3.339  -0.516  -0.033  0.00  0.00     0.083 H 
ENDROOT
BRANCH   4  12
ATOM     12  C7  <0> d           1.168   3.570   0.010  0.00  0.00     0.089 A 
ATOM     13  N2  <0> d           0.015   4.226   0.025  0.00  0.00    -0.150 NA
ATOM     14  N1  <0> d          -0.038   5.509   0.032  0.00  0.00    -0.162 NA
ATOM     15  C10 <0> d           1.047   6.260   0.026  0.00  0.00     0.024 A 
ATOM     16  C9  <0> d           2.301   5.668   0.010  0.00  0.00    -0.062 A 
ATOM     17  H8  <0> d           0.958   7.336   0.032  0.00  0.00     0.117 H 
ATOM     18  C8  <0> d           2.370   4.283   0.008  0.00  0.00    -0.051 A 
ATOM     19  H7  <0> d           3.199   6.269   0.005  0.00  0.00     0.085 H 
ATOM     20  H6  <0> d           3.321   3.772   0.001  0.00  0.00     0.087 H 
ENDBRANCH   4  12
TORSDOF 1
