REMARK  1 active torsions:
REMARK  status: ('A' for Active; 'I' for Inactive)
REMARK    1  A    between atoms: C2_2  and  C3_3 
ROOT
ATOM      1  C3  <0> d           1.292  -0.726  -0.014  0.00  0.00    -0.037 A 
ATOM      2  C4  <0> d           2.492  -0.014  -0.016  0.00  0.00    -0.070 A 
ATOM      3  C5  <0> d           3.693  -0.692  -0.031  0.00  0.00    -0.045 A 
ATOM      4  C6  <0> d           3.709  -2.078  -0.045  0.00  0.00     0.116 A 
ATOM      5  C7  <0> d           2.520  -2.789  -0.043  0.00  0.00    -0.045 A 
ATOM      6  C8  <0> d           1.314  -2.121  -0.022  0.00  0.00    -0.070 A 
ATOM      7  F1  <0> d           4.888  -2.737  -0.061  0.00  0.00    -0.206 F 
ATOM      8  H4  <0> d           2.481   1.066  -0.006  0.00  0.00     0.084 H 
ATOM      9  H5  <0> d           4.623  -0.142  -0.033  0.00  0.00     0.088 H 
ATOM     10  H6  <0> d           2.538  -3.869  -0.054  0.00  0.00     0.088 H 
ATOM     11  H7  <0> d           0.388  -2.676  -0.016  0.00  0.00     0.084 H 
ENDROOT
BRANCH   1  12
ATOM     12  C2  <0> d           0.002  -0.004   0.002  0.00  0.00    -0.082 C 
ATOM     13  C1  <0> d          -0.016   1.322   0.009  0.00  0.00    -0.120 C 
ATOM     14  H1  <0> d           0.912   1.874   0.003  0.00  0.00     0.066 H 
ATOM     15  H2  <0> d          -0.958   1.849   0.017  0.00  0.00     0.066 H 
ATOM     16  H3  <0> d          -0.926  -0.557   0.008  0.00  0.00     0.083 H 
ENDBRANCH   1  12
TORSDOF 1
