REMARK  1 active torsions:
REMARK  status: ('A' for Active; 'I' for Inactive)
REMARK    1  A    between atoms: C3_4  and  C5_7 
ROOT
ATOM      1  C1  <0> d          -0.017   1.382   0.010  0.00  0.00    -0.049 A 
ATOM      2  C2  <0> d           1.193   2.058   0.002  0.00  0.00     0.006 A 
ATOM      3  N1  <0> d           2.319   1.362  -0.013  0.00  0.00    -0.237 NA
ATOM      4  C3  <0> d           2.298   0.044  -0.020  0.00  0.00     0.233 A 
ATOM      5  N2  <0> d           1.167  -0.632  -0.013  0.00  0.00    -0.237 NA
ATOM      6  C4  <0> d           0.002  -0.004   0.002  0.00  0.00     0.006 A 
ATOM      7  H1  <0> d          -0.952   1.922   0.017  0.00  0.00     0.087 H 
ATOM      8  H2  <0> d           1.217   3.137   0.007  0.00  0.00     0.114 H 
ATOM      9  H3  <0> d          -0.921  -0.564   0.007  0.00  0.00     0.114 H 
ENDROOT
BRANCH   4  10
ATOM     10  C5  <0> d           3.603  -0.710  -0.037  0.00  0.00     0.453 C 
ATOM     11  F1  <0> d           4.165  -0.640  -1.316  0.00  0.00    -0.163 F 
ATOM     12  F2  <0> d           4.482  -0.141   0.891  0.00  0.00    -0.163 F 
ATOM     13  F3  <0> d           3.373  -2.048   0.299  0.00  0.00    -0.163 F 
ENDBRANCH   4  10
TORSDOF 1
