REMARK  0 active torsions:
REMARK  status: ('A' for Active; 'I' for Inactive)
ROOT
ATOM      1  C1  <0> d          -0.017   1.388   0.010  0.00  0.00     0.057 C 
ATOM      2  N1  <0> d           1.189   1.903   0.001  0.00  0.00    -0.255 NA
ATOM      3  C2  <0> d           2.123   0.801   0.016  0.00  0.00     0.147 C 
ATOM      4  H1  <0> d           2.303   0.508   1.050  0.00  0.00     0.117 H 
ATOM      5  C3  <0> d           1.263  -0.310  -0.673  0.00  0.00     0.128 C 
ATOM      6  H2  <0> d           1.186  -0.154  -1.749  0.00  0.00     0.093 H 
ATOM      7  N2  <0> d           0.002  -0.004   0.002  0.00  0.00    -0.368 N 
ATOM      8  C4  <0> d           1.985  -1.581  -0.358  0.00  0.00     0.249 C 
ATOM      9  O1  <0> d           1.413  -2.604  -0.045  0.00  0.00    -0.271 OA
ATOM     10  N3  <0> d           3.346  -1.490  -0.455  0.00  0.00    -0.320 N 
ATOM     11  C5  <0> d           3.937  -0.324  -0.903  0.00  0.00     0.063 C 
ATOM     12  N4  <0> d           3.379   0.824  -0.685  0.00  0.00    -0.255 NA
ATOM     13  H3  <0> d          -0.922   1.977   0.026  0.00  0.00     0.142 H 
ATOM     14  H4  <0> d          -0.658  -0.620   0.357  0.00  0.00     0.161 HD
ATOM     15  H5  <0> d           3.900  -2.247  -0.207  0.00  0.00     0.169 HD
ATOM     16  H6  <0> d           4.873  -0.373  -1.440  0.00  0.00     0.143 H 
ENDROOT
TORSDOF 0
