REMARK  0 active torsions:
REMARK  status: ('A' for Active; 'I' for Inactive)
ROOT
ATOM      1  C1  <0> d          -0.017   1.384   0.010  0.00  0.00    -0.058 A 
ATOM      2  C2  <0> d           1.191   2.061   0.002  0.00  0.00    -0.043 A 
ATOM      3  C3  <0> d           2.378   1.329  -0.013  0.00  0.00     0.136 A 
ATOM      4  N1  <0> d           2.353   0.001  -0.020  0.00  0.00    -0.248 NA
ATOM      5  C4  <0> d           1.220  -0.667  -0.013  0.00  0.00     0.025 A 
ATOM      6  C5  <0> d           0.002  -0.004   0.002  0.00  0.00     0.051 A 
ATOM      7 Cl1  <0> d          -1.484  -0.901   0.012  0.00  0.00    -0.083 Cl
ATOM      8  C6  <0> d           3.635   2.015  -0.022  0.00  0.00     0.119 C 
ATOM      9  N2  <0> d           4.632   2.559  -0.029  0.00  0.00    -0.190 NA
ATOM     10  H1  <0> d          -0.952   1.923   0.017  0.00  0.00     0.086 H 
ATOM     11  H2  <0> d           1.214   3.141   0.007  0.00  0.00     0.088 H 
ATOM     12  H3  <0> d           1.238  -1.747  -0.019  0.00  0.00     0.117 H 
ENDROOT
TORSDOF 0
