REMARK  3 active torsions:
REMARK  status: ('A' for Active; 'I' for Inactive)
REMARK    1  A    between atoms: C1_1  and  C2_2 
REMARK    2  A    between atoms: C4_4  and  N3_8 
REMARK    3  A    between atoms: N1_5  and  C5_7 
ROOT
ATOM      1  C2  <0> d           2.099   0.756  -0.014  0.00  0.00     0.076 A 
ATOM      2  C3  <0> d           1.307  -0.395  -0.013  0.00  0.00     0.104 A 
ATOM      3  C4  <0> d           0.002  -0.004   0.002  0.00  0.00     0.141 A 
ATOM      4  N1  <0> d          -0.016   1.354   0.009  0.00  0.00    -0.257 N 
ATOM      5  N2  <0> d           1.311   1.801  -0.001  0.00  0.00    -0.174 NA
ATOM      6 Cl1  <0> d           1.883  -2.033  -0.026  0.00  0.00    -0.078 Cl
ENDROOT
BRANCH   1   7
ATOM      7  C1  <0> d           3.606   0.789  -0.029  0.00  0.00    -0.032 C 
ATOM      8  H1  <0> d           3.995  -0.240  -0.038  0.00  0.00     0.035 H 
ATOM      9  H2  <0> d           3.970   1.311   0.869  0.00  0.00     0.035 H 
ATOM     10  H3  <0> d           3.952   1.320  -0.927  0.00  0.00     0.035 H 
ENDBRANCH   1   7
BRANCH   4  11
ATOM     11  C5  <0> d          -1.212   2.201   0.020  0.00  0.00     0.004 C 
ATOM     12  H4  <0> d          -0.911   3.259   0.024  0.00  0.00     0.059 H 
ATOM     13  H5  <0> d          -1.806   1.985   0.920  0.00  0.00     0.059 H 
ATOM     14  H6  <0> d          -1.815   1.995  -0.876  0.00  0.00     0.059 H 
ENDBRANCH   4  11
BRANCH   3  15
ATOM     15  N3  <0> d          -1.110  -0.843   0.009  0.00  0.00    -0.383 N 
ATOM     16  H7  <0> d          -2.123  -0.414   0.021  0.00  0.00     0.157 HD
ATOM     17  H8  <0> d          -0.975  -1.935   0.002  0.00  0.00     0.157 HD
ENDBRANCH   3  15
TORSDOF 3
