REMARK  1 active torsions:
REMARK  status: ('A' for Active; 'I' for Inactive)
REMARK    1  A    between atoms: C5_6  and  N2_7 
ROOT
ATOM      1  C1  <0> d          -2.785   0.101   0.007  0.00  0.00    -0.040 A 
ATOM      2  C2  <0> d          -4.115  -0.268   0.014  0.00  0.00     0.004 A 
ATOM      3  N1  <0> d          -5.069   0.643   0.023  0.00  0.00    -0.273 NA
ATOM      4  C3  <0> d          -4.800   1.934   0.031  0.00  0.00     0.004 A 
ATOM      5  C4  <0> d          -3.495   2.384   0.029  0.00  0.00    -0.040 A 
ATOM      6  C5  <0> d          -2.458   1.454   0.019  0.00  0.00     0.044 A 
ATOM      7  H1  <0> d          -2.009  -0.650  -0.005  0.00  0.00     0.089 H 
ATOM      8  H2  <0> d          -4.378  -1.316   0.008  0.00  0.00     0.114 H 
ATOM      9  H3  <0> d          -5.610   2.648   0.038  0.00  0.00     0.114 H 
ATOM     10  H4  <0> d          -3.281   3.443   0.035  0.00  0.00     0.089 H 
ENDROOT
BRANCH   6  11
ATOM     11  N2  <0> d          -1.121   1.870   0.017  0.00  0.00    -0.297 N 
ATOM     12  C7  <0> d          -0.658   3.152   0.025  0.00  0.00     0.093 A 
ATOM     13  N4  <0> d           0.646   3.092   0.013  0.00  0.00    -0.144 NA
ATOM     14  H6  <0> d          -1.258   4.050   0.036  0.00  0.00     0.147 H 
ATOM     15  N3  <0> d           1.027   1.865   0.002  0.00  0.00    -0.144 NA
ATOM     16  C6  <0> d          -0.013   1.076   0.008  0.00  0.00     0.093 A 
ATOM     17  H5  <0> d           0.002  -0.004   0.002  0.00  0.00     0.147 H 
ENDBRANCH   6  11
TORSDOF 1
