REMARK  1 active torsions:
REMARK  status: ('A' for Active; 'I' for Inactive)
REMARK    1  A    between atoms: C1_1  and  C2_2 
ROOT
ATOM      1  C2  <0> d           0.002  -0.004   0.002  0.00  0.00     0.104 A 
ATOM      2  N1  <0> d          -1.087  -0.764   0.003  0.00  0.00    -0.326 N 
ATOM      3  C3  <0> d          -0.729  -2.042  -0.006  0.00  0.00     0.179 A 
ATOM      4  N2  <0> d          -1.132  -3.326  -0.012  0.00  0.00    -0.220 N 
ATOM      5  H1  <0> d          -2.050  -3.640  -0.009  0.00  0.00     0.198 HD
ATOM      6  O1  <0> d           0.032  -4.135  -0.022  0.00  0.00    -0.128 OA
ATOM      7  N3  <0> d           1.160  -3.279  -0.023  0.00  0.00    -0.083 NA
ATOM      8  C4  <0> d           0.748  -2.039  -0.014  0.00  0.00     0.226 A 
ATOM      9  N4  <0> d           1.098  -0.726  -0.013  0.00  0.00    -0.211 NA
ATOM     10  H5  <0> d          -2.000  -0.436   0.010  0.00  0.00     0.169 HD
ENDROOT
BRANCH   1  11
ATOM     11  C1  <0> d          -0.018   1.503   0.010  0.00  0.00    -0.021 C 
ATOM     12  H2  <0> d           1.004   1.880   0.003  0.00  0.00     0.037 H 
ATOM     13  H3  <0> d          -0.545   1.864  -0.873  0.00  0.00     0.037 H 
ATOM     14  H4  <0> d          -0.529   1.854   0.907  0.00  0.00     0.037 H 
ENDBRANCH   1  11
TORSDOF 1
