REMARK  0 active torsions:
REMARK  status: ('A' for Active; 'I' for Inactive)
ROOT
ATOM      1  C1  <0> d          -0.019   1.573   0.011  0.00  0.00    -0.061 C 
ATOM      2  C2  <0> d           1.490   1.931  -0.002  0.00  0.00    -0.060 C 
ATOM      3  C3  <0> d           2.255   0.605  -0.267  0.00  0.00    -0.042 C 
ATOM      4  H1  <0> d           3.226   0.716  -0.751  0.00  0.00     0.041 H 
ATOM      5  C4  <0> d           1.127  -0.167  -1.088  0.00  0.00    -0.057 C 
ATOM      6  C5  <0> d           0.002  -0.004   0.002  0.00  0.00    -0.048 C 
ATOM      7  H2  <0> d          -0.941  -0.519  -0.181  0.00  0.00     0.040 H 
ATOM      8  C6  <0> d           0.696  -0.259   1.339  0.00  0.00    -0.023 C 
ATOM      9  H3  <0> d           0.507   0.553   2.041  0.00  0.00     0.044 H 
ATOM     10  C7  <0> d           2.227  -0.298   0.904  0.00  0.00     0.032 C 
ATOM     11  H4  <0> d           2.254  -1.260   0.393  0.00  0.00     0.056 H 
ATOM     12  C8  <0> d           2.923  -0.659   2.108  0.00  0.00     0.222 C 
ATOM     13  O1  <0> d           4.022  -0.286   2.459  0.00  0.00    -0.273 OA
ATOM     14  N1  <0> d           2.078  -1.522   2.784  0.00  0.00    -0.360 N 
ATOM     15  C9  <0> d           0.708  -1.601   2.047  0.00  0.00    -0.000 C 
ATOM     16  H5  <0> d          -0.498   1.948   0.915  0.00  0.00     0.033 H 
ATOM     17  H6  <0> d          -0.516   1.958  -0.880  0.00  0.00     0.033 H 
ATOM     18  H7  <0> d           1.698   2.647  -0.796  0.00  0.00     0.033 H 
ATOM     19  H8  <0> d           1.784   2.345   0.963  0.00  0.00     0.033 H 
ATOM     20  H9  <0> d           0.875   0.343  -2.018  0.00  0.00     0.034 H 
ATOM     21  H10 <0> d           1.387  -1.213  -1.257  0.00  0.00     0.034 H 
ATOM     22  H11 <0> d           2.304  -2.007   3.592  0.00  0.00     0.162 HD
ATOM     23  H12 <0> d          -0.121  -1.679   2.750  0.00  0.00     0.064 H 
ATOM     24  H13 <0> d           0.689  -2.421   1.330  0.00  0.00     0.064 H 
ENDROOT
TORSDOF 0
