REMARK  0 active torsions:
REMARK  status: ('A' for Active; 'I' for Inactive)
ROOT
ATOM      1  C1  <0> d           1.142   2.332   0.004  0.00  0.00    -0.040 A 
ATOM      2  C2  <0> d           0.639   3.576   0.014  0.00  0.00     0.020 A 
ATOM      3  O1  <0> d          -0.701   3.509   0.026  0.00  0.00    -0.333 OA
ATOM      4  C3  <0> d          -1.115   2.237   0.019  0.00  0.00     0.038 A 
ATOM      5  C4  <0> d          -0.017   1.428   0.010  0.00  0.00     0.068 A 
ATOM      6  C5  <0> d           0.002  -0.004   0.002  0.00  0.00     0.101 C 
ATOM      7  N1  <0> d           0.018  -1.140  -0.004  0.00  0.00    -0.191 NA
ATOM      8  H1  <0> d           2.185   2.052  -0.008  0.00  0.00     0.088 H 
ATOM      9  H2  <0> d           1.221   4.487   0.013  0.00  0.00     0.123 H 
ATOM     10  H3  <0> d          -2.143   1.907   0.021  0.00  0.00     0.125 H 
ENDROOT
TORSDOF 0
