REMARK  1 active torsions:
REMARK  status: ('A' for Active; 'I' for Inactive)
REMARK    1  A    between atoms: C1_1  and  N1_2 
ROOT
ATOM      1  N1  <0> d          -0.698   1.558   1.213  0.00  0.00    -0.313 N 
ATOM      2  C2  <0> d          -0.052   1.843   2.502  0.00  0.00     0.121 A 
ATOM      3  H1  <0> d           0.748   2.579   2.419  0.00  0.00     0.113 H 
ATOM      4  C3  <0> d          -1.224   2.303   3.406  0.00  0.00     0.120 A 
ATOM      5  H2  <0> d          -1.071   3.295   3.831  0.00  0.00     0.113 H 
ATOM      6  N2  <0> d          -1.306   1.252   4.431  0.00  0.00    -0.318 N 
ATOM      7  C4  <0> d          -0.364   0.330   4.196  0.00  0.00     0.319 A 
ATOM      8  O1  <0> d          -0.209  -0.653   4.895  0.00  0.00    -0.247 OA
ATOM      9  N3  <0> d           0.392   0.587   3.121  0.00  0.00    -0.318 N 
ATOM     10  N4  <0> d          -2.396   2.224   2.523  0.00  0.00    -0.318 N 
ATOM     11  C5  <0> d          -2.011   1.804   1.312  0.00  0.00     0.321 A 
ATOM     12  O2  <0> d          -2.784   1.655   0.385  0.00  0.00    -0.247 OA
ATOM     13  H6  <0> d          -1.942   1.230   5.162  0.00  0.00     0.166 HD
ATOM     14  H7  <0> d           1.120   0.030   2.801  0.00  0.00     0.166 HD
ATOM     15  H8  <0> d          -3.306   2.445   2.777  0.00  0.00     0.166 HD
ENDROOT
BRANCH   1  16
ATOM     16  C1  <0> d          -0.013   1.086   0.008  0.00  0.00    -0.012 C 
ATOM     17  H3  <0> d           0.002  -0.004   0.002  0.00  0.00     0.056 H 
ATOM     18  H4  <0> d           1.010   1.463   0.000  0.00  0.00     0.056 H 
ATOM     19  H5  <0> d          -0.540   1.447  -0.875  0.00  0.00     0.056 H 
ENDBRANCH   1  16
TORSDOF 1
