REMARK  0 active torsions:
REMARK  status: ('A' for Active; 'I' for Inactive)
ROOT
ATOM      1  C1  <0> d          -0.019   1.544   0.011  0.00  0.00    -0.064 C 
ATOM      2  C2  <0> d           1.471   1.943  -0.002  0.00  0.00    -0.061 C 
ATOM      3  C3  <0> d           2.239   0.758  -0.613  0.00  0.00    -0.046 C 
ATOM      4  C4  <0> d           1.188  -0.328  -0.938  0.00  0.00    -0.046 C 
ATOM      5  C5  <0> d           0.002  -0.004   0.002  0.00  0.00    -0.061 C 
ATOM      6  C6  <0> d           2.161  -1.361  -0.352  0.00  0.00    -0.046 C 
ATOM      7  C7  <0> d           2.812  -0.202   0.438  0.00  0.00    -0.046 C 
ATOM      8  C8  <0> d           2.040  -0.173   1.778  0.00  0.00    -0.061 C 
ATOM      9  C9  <0> d           1.801  -1.674   2.072  0.00  0.00    -0.064 C 
ATOM     10  C10 <0> d           1.510  -2.289   0.688  0.00  0.00    -0.061 C 
ATOM     11  H1  <0> d          -0.505   1.914   0.913  0.00  0.00     0.033 H 
ATOM     12  H2  <0> d          -0.523   1.924  -0.878  0.00  0.00     0.033 H 
ATOM     13  H3  <0> d           1.614   2.835  -0.611  0.00  0.00     0.033 H 
ATOM     14  H4  <0> d           1.817   2.126   1.016  0.00  0.00     0.033 H 
ATOM     15  H5  <0> d           2.921   1.030  -1.419  0.00  0.00     0.041 H 
ATOM     16  H6  <0> d           0.921  -0.448  -1.988  0.00  0.00     0.041 H 
ATOM     17  H7  <0> d           0.186  -0.393   1.004  0.00  0.00     0.033 H 
ATOM     18  H8  <0> d          -0.930  -0.400  -0.401  0.00  0.00     0.033 H 
ATOM     19  H9  <0> d           2.795  -1.870  -1.078  0.00  0.00     0.041 H 
ATOM     20  H10 <0> d           3.899  -0.222   0.522  0.00  0.00     0.041 H 
ATOM     21  H11 <0> d           2.644   0.282   2.562  0.00  0.00     0.033 H 
ATOM     22  H12 <0> d           1.092   0.354   1.666  0.00  0.00     0.033 H 
ATOM     23  H13 <0> d           2.692  -2.124   2.510  0.00  0.00     0.033 H 
ATOM     24  H14 <0> d           0.944  -1.802   2.734  0.00  0.00     0.033 H 
ATOM     25  H15 <0> d           0.434  -2.341   0.521  0.00  0.00     0.033 H 
ATOM     26  H16 <0> d           1.946  -3.286   0.623  0.00  0.00     0.033 H 
ENDROOT
TORSDOF 0
