REMARK  5 active torsions:
REMARK  status: ('A' for Active; 'I' for Inactive)
REMARK    1  A    between atoms: C1_1  and  C2_2 
REMARK    2  A    between atoms: C2_2  and  C3_4 
REMARK    3  A    between atoms: C2_2  and  O3_8 
REMARK    4  A    between atoms: C3_4  and  O2_6 
REMARK    5  A    between atoms: O2_6  and  C4_7 
ROOT
ATOM      1  C2  <0> d          -0.013   1.086   0.008  0.00  0.00     0.115 C 
ATOM      2  H1  <0> d           0.002  -0.004   0.002  0.00  0.00     0.098 H 
ENDROOT
BRANCH   1   3
ATOM      3  C1  <0> d          -0.729   1.579   1.267  0.00  0.00    -0.044 C 
ATOM      4  H2  <0> d          -0.744   2.669   1.273  0.00  0.00     0.031 H 
ATOM      5  H3  <0> d          -1.751   1.202   1.275  0.00  0.00     0.031 H 
ATOM      6  H4  <0> d          -0.202   1.218   2.150  0.00  0.00     0.031 H 
ENDBRANCH   1   3
BRANCH   1   7
ATOM      7  C3  <0> d           1.401   1.607  -0.003  0.00  0.00     0.287 C 
ATOM      8  O1  <0> d           1.752   2.384  -0.859  0.00  0.00    -0.262 OA
BRANCH   7   9
ATOM      9  O2  <0> d           2.271   1.209   0.939  0.00  0.00    -0.324 OA
BRANCH   9  10
ATOM     10  C4  <0> d           3.615   1.752   0.867  0.00  0.00     0.013 C 
ATOM     11  H5  <0> d           4.068   1.476  -0.085  0.00  0.00     0.067 H 
ATOM     12  H6  <0> d           3.573   2.838   0.948  0.00  0.00     0.067 H 
ATOM     13  H7  <0> d           4.214   1.350   1.684  0.00  0.00     0.067 H 
ENDBRANCH   9  10
ENDBRANCH   7   9
ENDBRANCH   1   7
BRANCH   1  14
ATOM     14  O3  <0> d          -0.704   1.559  -1.150  0.00  0.00    -0.386 OA
ATOM     15  H8  <0> d          -0.756   2.523  -1.210  0.00  0.00     0.210 HD
ENDBRANCH   1  14
TORSDOF 5
