REMARK  2 active torsions:
REMARK  status: ('A' for Active; 'I' for Inactive)
REMARK    1  A    between atoms: C1_1  and  C2_2 
REMARK    2  A    between atoms: C3_5  and  C4_7 
ROOT
ATOM      1  C2  <0> d           0.002  -0.004   0.002  0.00  0.00     0.166 A 
ATOM      2  N1  <0> d           1.254  -0.384  -0.012  0.00  0.00    -0.127 NA
ATOM      3  N2  <0> d           2.017   0.652  -0.014  0.00  0.00    -0.115 NA
ATOM      4  C3  <0> d           1.273   1.735  -0.001  0.00  0.00     0.270 A 
ATOM      5  O1  <0> d          -0.016   1.335   0.009  0.00  0.00    -0.269 OA
ENDROOT
BRANCH   1   6
ATOM      6  C1  <0> d          -1.202  -0.910   0.009  0.00  0.00    -0.013 C 
ATOM      7  H1  <0> d          -0.872  -1.959  -0.000  0.00  0.00     0.038 H 
ATOM      8  H2  <0> d          -1.816  -0.711  -0.882  0.00  0.00     0.038 H 
ATOM      9  H3  <0> d          -1.798  -0.721   0.914  0.00  0.00     0.038 H 
ENDBRANCH   1   6
BRANCH   4  10
ATOM     10  C4  <0> d           1.756   3.127   0.002  0.00  0.00     0.256 C 
ATOM     11  O2  <0> d           0.961   4.045   0.015  0.00  0.00    -0.641 OA
ATOM     12  O3  <0> d           3.079   3.381  -0.009  0.00  0.00    -0.641 OA
ENDBRANCH   4  10
TORSDOF 2
