REMARK  4 active torsions:
REMARK  status: ('A' for Active; 'I' for Inactive)
REMARK    1  A    between atoms: C1_1  and  N1_2 
REMARK    2  A    between atoms: N1_2  and  C2_3 
REMARK    3  A    between atoms: C3_5  and  N6_10 
REMARK    4  A    between atoms: C4_7  and  N5_9 
ROOT
ATOM      1  C2  <0> d          -0.210   1.225   2.460  0.00  0.00     0.753 A 
ATOM      2  N2  <0> d           0.879   0.470   2.568  0.00  0.00     0.131 NA
ATOM      3  C3  <0> d           1.351   0.153   3.769  0.00  0.00     0.751 A 
ATOM      4  N3  <0> d           0.729   0.582   4.863  0.00  0.00     0.130 NA
ATOM      5  C4  <0> d          -0.363   1.332   4.755  0.00  0.00     0.751 A 
ATOM      6  N4  <0> d          -0.833   1.653   3.554  0.00  0.00     0.131 NA
ENDROOT
BRANCH   1   7
ATOM      7  N1  <0> d          -0.698   1.558   1.213  0.00  0.00    -0.226 N 
ATOM      8  H4  <0> d          -1.495   2.106   1.135  0.00  0.00     0.177 HD
BRANCH   7   9
ATOM      9  C1  <0> d          -0.013   1.086   0.008  0.00  0.00    -0.005 C 
ATOM     10  H1  <0> d           0.002  -0.004   0.002  0.00  0.00     0.057 H 
ATOM     11  H2  <0> d           1.010   1.463   0.000  0.00  0.00     0.057 H 
ATOM     12  H3  <0> d          -0.540   1.447  -0.875  0.00  0.00     0.057 H 
ENDBRANCH   7   9
ENDBRANCH   1   7
BRANCH   5  13
ATOM     13  N5  <0> d          -1.009   1.777   5.891  0.00  0.00    -0.230 N 
ATOM     14  H5  <0> d          -1.806   2.324   5.812  0.00  0.00     0.174 HD
ATOM     15  H6  <0> d          -0.666   1.542   6.767  0.00  0.00     0.174 HD
ENDBRANCH   5  13
BRANCH   3  16
ATOM     16  N6  <0> d           2.485  -0.626   3.881  0.00  0.00    -0.230 N 
ATOM     17  H7  <0> d           2.828  -0.861   4.757  0.00  0.00     0.174 HD
ATOM     18  H8  <0> d           2.939  -0.939   3.083  0.00  0.00     0.174 HD
ENDBRANCH   3  16
TORSDOF 4
