REMARK  0 active torsions:
REMARK  status: ('A' for Active; 'I' for Inactive)
ROOT
ATOM      1  C1  <0> d          -0.017   1.385   0.010  0.00  0.00     0.021 A 
ATOM      2  C2  <0> d           1.189   2.074   0.002  0.00  0.00     0.186 A 
ATOM      3  O1  <0> d           1.201   3.409   0.009  0.00  0.00    -0.172 OA
ATOM      4  N1  <0> d           2.357   1.378  -0.013  0.00  0.00    -0.286 N 
ATOM      5  C3  <0> d           2.350   0.033  -0.020  0.00  0.00     0.328 A 
ATOM      6  O2  <0> d           3.406  -0.570  -0.034  0.00  0.00    -0.247 OA
ATOM      7  N2  <0> d           1.195  -0.656  -0.012  0.00  0.00    -0.286 N 
ATOM      8  C4  <0> d           0.002  -0.004   0.002  0.00  0.00     0.186 A 
ATOM      9  O3  <0> d          -1.142  -0.693   0.010  0.00  0.00    -0.172 OA
ATOM     10  H1  <0> d          -0.955   1.920   0.026  0.00  0.00     0.097 H 
ATOM     11  H2  <0> d           3.201   1.855  -0.019  0.00  0.00     0.172 HD
ATOM     12  H3  <0> d           1.213  -1.626  -0.018  0.00  0.00     0.172 HD
ENDROOT
TORSDOF 0
