REMARK  4 active torsions:
REMARK  status: ('A' for Active; 'I' for Inactive)
REMARK    1  A    between atoms: C1_1  and  C2_2 
REMARK    2  A    between atoms: C2_2  and  C3_3 
REMARK    3  A    between atoms: C3_3  and  C4_5 
REMARK    4  A    between atoms: C3_3  and  C5_6 
ROOT
ATOM      1  C5  <0> d          -2.098   0.871   1.410  0.00  0.00     0.007 C 
ATOM      2  H2  <0> d          -2.200  -0.120   1.504  0.00  0.00     0.052 H 
ATOM      3  C6  <0> d          -0.621   1.253   1.525  0.00  0.00    -0.055 C 
ATOM      4  C7  <0> d           0.152   0.664   0.343  0.00  0.00    -0.064 C 
ATOM      5  C8  <0> d          -0.352   1.280  -0.963  0.00  0.00    -0.059 C 
ATOM      6  C9  <0> d          -1.821   0.899  -1.172  0.00  0.00    -0.009 C 
ATOM      7  C10 <0> d          -2.604   1.312   0.054  0.00  0.00     0.131 C 
ATOM      8  O1  <0> d          -3.608   1.976  -0.046  0.00  0.00    -0.298 OA
ATOM      9  H11 <0> d          -0.216   0.858   2.457  0.00  0.00     0.034 H 
ATOM     10  H12 <0> d          -0.524   2.339   1.517  0.00  0.00     0.034 H 
ATOM     11  H13 <0> d           0.003  -0.415   0.316  0.00  0.00     0.033 H 
ATOM     12  H14 <0> d           1.214   0.880   0.461  0.00  0.00     0.033 H 
ATOM     13  H15 <0> d          -0.261   2.365  -0.911  0.00  0.00     0.033 H 
ATOM     14  H16 <0> d           0.244   0.905  -1.795  0.00  0.00     0.033 H 
ATOM     15  H17 <0> d          -2.176   1.370  -1.980  0.00  0.00     0.044 H 
ATOM     16  H18 <0> d          -1.903  -0.178  -1.314  0.00  0.00     0.044 H 
ENDROOT
BRANCH   1  17
ATOM     17  C3  <0> d          -2.898   1.572   2.510  0.00  0.00    -0.048 C 
ATOM     18  H1  <0> d          -2.875   2.649   2.345  0.00  0.00     0.040 H 
BRANCH  17  19
ATOM     19  C2  <0> d          -4.347   1.083   2.478  0.00  0.00    -0.065 C 
ATOM     20  H6  <0> d          -4.761   1.238   1.482  0.00  0.00     0.033 H 
ATOM     21  H7  <0> d          -4.377   0.021   2.723  0.00  0.00     0.033 H 
BRANCH  19  22
ATOM     22  C1  <0> d          -5.172   1.865   3.502  0.00  0.00    -0.076 C 
ATOM     23  H3  <0> d          -4.758   1.710   4.498  0.00  0.00     0.027 H 
ATOM     24  H4  <0> d          -5.142   2.927   3.257  0.00  0.00     0.027 H 
ATOM     25  H5  <0> d          -6.205   1.516   3.479  0.00  0.00     0.027 H 
ENDBRANCH  19  22
ENDBRANCH  17  19
BRANCH  17  26
ATOM     26  C4  <0> d          -2.281   1.251   3.873  0.00  0.00    -0.072 C 
ATOM     27  H8  <0> d          -2.304   0.174   4.037  0.00  0.00     0.028 H 
ATOM     28  H9  <0> d          -1.248   1.600   3.895  0.00  0.00     0.028 H 
ATOM     29  H10 <0> d          -2.850   1.751   4.656  0.00  0.00     0.028 H 
ENDBRANCH  17  26
ENDBRANCH   1  17
TORSDOF 4
