REMARK  0 active torsions:
REMARK  status: ('A' for Active; 'I' for Inactive)
ROOT
ATOM      1  C1  <0> d          -0.013   1.086   0.008  0.00  0.00     0.030 C 
ATOM      2  C2  <0> d          -0.803   1.619  -1.203  0.00  0.00     0.066 C 
ATOM      3  H1  <0> d          -1.214   0.819  -1.819  0.00  0.00     0.060 H 
ATOM      4  C3  <0> d          -1.894   2.512  -0.552  0.00  0.00     0.081 C 
ATOM      5  H2  <0> d          -2.901   2.110  -0.668  0.00  0.00     0.088 H 
ATOM      6  C4  <0> d          -1.695   3.859  -1.280  0.00  0.00     0.054 C 
ATOM      7  O1  <0> d          -0.315   3.836  -1.746  0.00  0.00    -0.319 OA
ATOM      8  C5  <0> d           0.060   2.573  -1.994  0.00  0.00     0.266 C 
ATOM      9  O2  <0> d           0.955   2.247  -2.737  0.00  0.00    -0.265 OA
ATOM     10  O3  <0> d          -1.490   2.665   0.840  0.00  0.00    -0.313 OA
ATOM     11  C6  <0> d          -0.767   1.597   1.218  0.00  0.00     0.260 C 
ATOM     12  O4  <0> d          -0.726   1.124   2.329  0.00  0.00    -0.265 OA
ATOM     13  H3  <0> d           0.002  -0.004   0.002  0.00  0.00     0.049 H 
ATOM     14  H4  <0> d           1.004   1.479   0.000  0.00  0.00     0.049 H 
ATOM     15  H5  <0> d          -1.848   4.689  -0.591  0.00  0.00     0.079 H 
ATOM     16  H6  <0> d          -2.379   3.939  -2.126  0.00  0.00     0.079 H 
ENDROOT
TORSDOF 0
