REMARK  4 active torsions:
REMARK  status: ('A' for Active; 'I' for Inactive)
REMARK    1  A    between atoms: C1_1  and  C2_2 
REMARK    2  A    between atoms: C5_6  and  N1_7 
REMARK    3  A    between atoms: N1_7  and  C6_8 
REMARK    4  A    between atoms: N1_7  and  C7_9 
ROOT
ATOM      1  C2  <0> d           1.225  -0.656  -0.013  0.00  0.00    -0.034 A 
ATOM      2  C3  <0> d           2.362   0.081  -0.020  0.00  0.00    -0.038 A 
ATOM      3  S1  <0> d           1.725   1.749  -0.005  0.00  0.00    -0.111 SA
ATOM      4  C4  <0> d          -0.016   1.355   0.009  0.00  0.00    -0.024 A 
ATOM      5  C5  <0> d           0.002  -0.004   0.002  0.00  0.00     0.022 A 
ATOM      6  H4  <0> d           3.389  -0.253  -0.031  0.00  0.00     0.095 H 
ATOM      7  H5  <0> d          -0.865   2.023   0.017  0.00  0.00     0.097 H 
ENDROOT
BRANCH   5   8
ATOM      8  N1  <0> d          -1.200  -0.737   0.010  0.00  0.00    -0.291 NA
BRANCH   8   9
ATOM      9  C6  <0> d          -1.995  -0.431   1.207  0.00  0.00    -0.029 C 
ATOM     10  H6  <0> d          -2.233   0.633   1.223  0.00  0.00     0.048 H 
ATOM     11  H7  <0> d          -2.918  -1.010   1.188  0.00  0.00     0.048 H 
ATOM     12  H8  <0> d          -1.423  -0.688   2.099  0.00  0.00     0.048 H 
ENDBRANCH   8   9
BRANCH   8  13
ATOM     13  C7  <0> d          -1.975  -0.490  -1.213  0.00  0.00    -0.029 C 
ATOM     14  H9  <0> d          -1.388  -0.790  -2.082  0.00  0.00     0.048 H 
ATOM     15  H10 <0> d          -2.899  -1.068  -1.181  0.00  0.00     0.048 H 
ATOM     16  H11 <0> d          -2.213   0.571  -1.285  0.00  0.00     0.048 H 
ENDBRANCH   8  13
ENDBRANCH   5   8
BRANCH   1  17
ATOM     17  C1  <0> d           1.289  -2.162  -0.021  0.00  0.00    -0.049 C 
ATOM     18  H1  <0> d           1.294  -2.520  -1.051  0.00  0.00     0.033 H 
ATOM     19  H2  <0> d           2.198  -2.489   0.482  0.00  0.00     0.033 H 
ATOM     20  H3  <0> d           0.420  -2.565   0.499  0.00  0.00     0.033 H 
ENDBRANCH   1  17
TORSDOF 4
