REMARK  2 active torsions:
REMARK  status: ('A' for Active; 'I' for Inactive)
REMARK    1  A    between atoms: C1_1  and  C2_2 
REMARK    2  A    between atoms: C6_7  and  C7_8 
ROOT
ATOM      1  C2  <0> d          -0.015   3.796   0.022  0.00  0.00    -0.038 A 
ATOM      2  C3  <0> d           1.156   3.061   0.007  0.00  0.00     0.008 A 
ATOM      3  N1  <0> d           1.125   1.743   0.001  0.00  0.00    -0.273 NA
ATOM      4  C4  <0> d          -0.013   1.076   0.008  0.00  0.00     0.002 A 
ATOM      5  C5  <0> d          -1.223   1.742   0.017  0.00  0.00    -0.059 A 
ATOM      6  C6  <0> d          -1.231   3.129   0.030  0.00  0.00    -0.045 A 
ATOM      7  H4  <0> d           2.107   3.573   0.001  0.00  0.00     0.115 H 
ATOM      8  H5  <0> d           0.002  -0.004   0.002  0.00  0.00     0.114 H 
ATOM      9  H6  <0> d          -2.151   1.190   0.019  0.00  0.00     0.086 H 
ENDROOT
BRANCH   6  10
ATOM     10  C7  <0> d          -2.530   3.893   0.046  0.00  0.00    -0.028 A 
ATOM     11  C9  <0> d          -3.494   3.672  -1.121  0.00  0.00    -0.057 A 
ATOM     12  C8  <0> d          -3.817   3.094   0.258  0.00  0.00    -0.057 A 
ATOM     13  H10 <0> d          -4.080   4.527  -1.458  0.00  0.00     0.034 H 
ATOM     14  H11 <0> d          -3.189   2.975  -1.901  0.00  0.00     0.034 H 
ATOM     15  H8  <0> d          -3.724   2.015   0.385  0.00  0.00     0.034 H 
ATOM     16  H9  <0> d          -4.616   3.567   0.828  0.00  0.00     0.034 H 
ATOM     17  H7  <0> d          -2.481   4.893   0.477  0.00  0.00     0.047 H 
ENDBRANCH   6  10
BRANCH   1  18
ATOM     18  C1  <0> d           0.029   5.302   0.028  0.00  0.00    -0.049 C 
ATOM     19  H1  <0> d           0.029   5.670  -0.998  0.00  0.00     0.033 H 
ATOM     20  H2  <0> d          -0.845   5.689   0.552  0.00  0.00     0.033 H 
ATOM     21  H3  <0> d           0.934   5.637   0.535  0.00  0.00     0.033 H 
ENDBRANCH   1  18
TORSDOF 2
