REMARK  2 active torsions:
REMARK  status: ('A' for Active; 'I' for Inactive)
REMARK    1  A    between atoms: C2_2  and  O2_12 
REMARK    2  A    between atoms: C4_4  and  O1_11 
ROOT
ATOM      1  C1  <0> d           1.833   1.826  -1.205  0.00  0.00    -0.023 A 
ATOM      2  C2  <0> d           1.223   1.532  -0.001  0.00  0.00     0.070 A 
ATOM      3  C3  <0> d           1.859   1.821   1.204  0.00  0.00    -0.018 A 
ATOM      4  C4  <0> d           3.113   2.393   1.212  0.00  0.00     0.082 A 
ATOM      5  C5  <0> d           3.747   2.698  -0.005  0.00  0.00     0.044 A 
ATOM      6  C6  <0> d           3.097   2.409  -1.219  0.00  0.00     0.067 A 
ATOM      7  N1  <0> d           3.944   2.810  -2.221  0.00  0.00    -0.278 N 
ATOM      8  H1  <0> d           3.767   2.738  -3.203  0.00  0.00     0.189 HD
ATOM      9  N2  <0> d           5.099   3.337  -1.630  0.00  0.00    -0.186 NA
ATOM     10  C7  <0> d           4.996   3.277  -0.334  0.00  0.00     0.036 A 
ATOM     11  H2  <0> d           1.331   1.603  -2.135  0.00  0.00     0.091 H 
ATOM     12  H3  <0> d           1.369   1.590   2.138  0.00  0.00     0.092 H 
ATOM     13  H4  <0> d           5.740   3.614   0.372  0.00  0.00     0.118 H 
ENDROOT
BRANCH   2  14
ATOM     14  O2  <0> d          -0.011   0.963   0.007  0.00  0.00    -0.361 OA
ATOM     15  H6  <0> d           0.002  -0.004   0.002  0.00  0.00     0.217 HD
ENDBRANCH   2  14
BRANCH   4  16
ATOM     16  O1  <0> d           3.731   2.667   2.390  0.00  0.00    -0.360 OA
ATOM     17  H5  <0> d           3.539   3.548   2.739  0.00  0.00     0.217 HD
ENDBRANCH   4  16
TORSDOF 2
