REMARK  3 active torsions:
REMARK  status: ('A' for Active; 'I' for Inactive)
REMARK    1  A    between atoms: C1_1  and  C2_2 
REMARK    2  A    between atoms: C4_5  and  C6_10 
REMARK    3  A    between atoms: C6_10  and  O2_11 
ROOT
ATOM      1  C2  <0> d          -0.013   1.086   0.008  0.00  0.00     0.022 C 
ATOM      2  H1  <0> d           0.002  -0.004   0.002  0.00  0.00     0.054 H 
ATOM      3  C3  <0> d           1.428   1.647  -0.003  0.00  0.00    -0.033 C 
ATOM      4  C4  <0> d           1.699   1.848   1.505  0.00  0.00     0.033 C 
ATOM      5  H2  <0> d           2.194   0.970   1.920  0.00  0.00     0.075 H 
ATOM      6  N1  <0> d           0.378   2.025   2.120  0.00  0.00    -0.354 N 
ATOM      7  C5  <0> d          -0.601   1.600   1.303  0.00  0.00     0.221 C 
ATOM      8  O1  <0> d          -1.785   1.626   1.566  0.00  0.00    -0.273 OA
ATOM      9  H6  <0> d           2.124   0.925  -0.431  0.00  0.00     0.037 H 
ATOM     10  H7  <0> d           1.474   2.595  -0.537  0.00  0.00     0.037 H 
ATOM     11  H8  <0> d           0.231   2.401   3.002  0.00  0.00     0.162 HD
ENDROOT
BRANCH   4  12
ATOM     12  C6  <0> d           2.558   3.095   1.726  0.00  0.00     0.035 C 
ATOM     13  H9  <0> d           3.470   3.018   1.135  0.00  0.00     0.077 H 
ATOM     14  H10 <0> d           2.000   3.980   1.420  0.00  0.00     0.077 H 
BRANCH  12  15
ATOM     15  O2  <0> d           2.895   3.201   3.111  0.00  0.00    -0.399 OA
ATOM     16  H11 <0> d           3.440   3.970   3.325  0.00  0.00     0.209 HD
ENDBRANCH  12  15
ENDBRANCH   4  12
BRANCH   1  17
ATOM     17  C1  <0> d          -0.803   1.616  -1.190  0.00  0.00    -0.065 C 
ATOM     18  H3  <0> d          -0.329   1.283  -2.114  0.00  0.00     0.028 H 
ATOM     19  H4  <0> d          -1.824   1.237  -1.149  0.00  0.00     0.028 H 
ATOM     20  H5  <0> d          -0.818   2.705  -1.162  0.00  0.00     0.028 H 
ENDBRANCH   1  17
TORSDOF 3
