REMARK  2 active torsions:
REMARK  status: ('A' for Active; 'I' for Inactive)
REMARK    1  A    between atoms: C1_1  and  C2_2 
REMARK    2  A    between atoms: C3_3  and  C5_7 
REMARK       I    between atoms: C5_7  and  N2_9 
ROOT
ATOM      1  C2  <0> d           1.242   1.754  -0.000  0.00  0.00     0.072 A 
ATOM      2  C3  <0> d           2.067   0.669  -0.014  0.00  0.00     0.168 A 
ATOM      3  O1  <0> d           1.270  -0.425  -0.012  0.00  0.00    -0.296 OA
ATOM      4  C4  <0> d           0.002  -0.004   0.002  0.00  0.00     0.104 A 
ATOM      5  N1  <0> d          -0.016   1.302   0.009  0.00  0.00    -0.239 NA
ATOM      6  H4  <0> d          -0.869  -0.642   0.006  0.00  0.00     0.155 H 
ENDROOT
BRANCH   2   7
ATOM      7  C5  <0> d           3.534   0.684  -0.028  0.00  0.00     0.275 C 
ATOM      8  O2  <0> d           4.132   1.744  -0.029  0.00  0.00    -0.266 OA
ATOM      9  N2  <0> d           4.220  -0.476  -0.041  0.00  0.00    -0.364 N 
ATOM     10  H5  <0> d           3.744  -1.321  -0.041  0.00  0.00     0.159 HD
ATOM     11  H6  <0> d           5.190  -0.467  -0.051  0.00  0.00     0.159 HD
ENDBRANCH   2   7
BRANCH   1  12
ATOM     12  C1  <0> d           1.670   3.199   0.003  0.00  0.00    -0.033 C 
ATOM     13  H1  <0> d           1.784   3.542   1.032  0.00  0.00     0.035 H 
ATOM     14  H2  <0> d           2.622   3.298  -0.519  0.00  0.00     0.035 H 
ATOM     15  H3  <0> d           0.915   3.803  -0.500  0.00  0.00     0.035 H 
ENDBRANCH   1  12
TORSDOF 2
