REMARK  1 active torsions:
REMARK  status: ('A' for Active; 'I' for Inactive)
REMARK    1  A    between atoms: C5_10  and  C6_11 
ROOT
ATOM      1  C1  <0> d          -0.016   1.355   0.009  0.00  0.00    -0.019 A 
ATOM      2  C2  <0> d           1.373   1.809  -0.001  0.00  0.00     0.107 A 
ATOM      3  C3  <0> d           2.174   0.636  -0.015  0.00  0.00     0.080 A 
ATOM      4  C4  <0> d           3.474   1.030  -0.026  0.00  0.00     0.024 A 
ATOM      5  N1  <0> d           3.504   2.380  -0.019  0.00  0.00    -0.286 N 
ATOM      6  N2  <0> d           2.185   2.852  -0.004  0.00  0.00    -0.173 NA
ATOM      7  H1  <0> d           4.303   2.929  -0.024  0.00  0.00     0.188 HD
ATOM      8  N3  <0> d           1.312  -0.451  -0.013  0.00  0.00    -0.348 N 
ATOM      9  H2  <0> d           1.586  -1.382  -0.021  0.00  0.00     0.166 HD
ATOM     10  C5  <0> d           0.002  -0.004   0.002  0.00  0.00     0.112 A 
ATOM     11  H3  <0> d          -0.895   1.984   0.025  0.00  0.00     0.091 H 
ATOM     12  H4  <0> d           4.335   0.378  -0.037  0.00  0.00     0.117 H 
ENDROOT
BRANCH  10  13
ATOM     13  C6  <0> d          -1.184  -0.865   0.009  0.00  0.00     0.226 C 
ATOM     14  O1  <0> d          -1.056  -2.083   0.002  0.00  0.00    -0.643 OA
ATOM     15  O2  <0> d          -2.302  -0.366   0.022  0.00  0.00    -0.643 OA
ENDBRANCH  10  13
TORSDOF 1
