REMARK  1 active torsions:
REMARK  status: ('A' for Active; 'I' for Inactive)
REMARK    1  A    between atoms: C1_1  and  C2_2 
ROOT
ATOM      1  C2  <0> d          -3.304   2.426   0.045  0.00  0.00     0.145 A 
ATOM      2  N1  <0> d          -2.502   1.370   0.033  0.00  0.00    -0.213 NA
ATOM      3  C3  <0> d          -1.236   1.770   0.018  0.00  0.00     0.152 A 
ATOM      4  C4  <0> d          -0.013   1.076   0.008  0.00  0.00    -0.037 A 
ATOM      5  C5  <0> d           1.153   1.780   0.001  0.00  0.00    -0.078 A 
ATOM      6  C6  <0> d           1.116   3.182   0.008  0.00  0.00    -0.066 A 
ATOM      7  C7  <0> d          -0.070   3.831   0.022  0.00  0.00     0.006 A 
ATOM      8  N2  <0> d          -1.238   3.137   0.030  0.00  0.00    -0.225 N 
ATOM      9  N3  <0> d          -2.586   3.525   0.044  0.00  0.00    -0.151 NA
ATOM     10  H4  <0> d           0.002  -0.004   0.002  0.00  0.00     0.089 H 
ATOM     11  H5  <0> d           2.100   1.262  -0.011  0.00  0.00     0.083 H 
ATOM     12  H6  <0> d           2.037   3.745   0.002  0.00  0.00     0.085 H 
ATOM     13  H7  <0> d          -0.089   4.911   0.028  0.00  0.00     0.114 H 
ENDROOT
BRANCH   1  14
ATOM     14  C1  <0> d          -4.809   2.373   0.059  0.00  0.00    -0.018 C 
ATOM     15  H1  <0> d          -5.139   1.323   0.057  0.00  0.00     0.038 H 
ATOM     16  H2  <0> d          -5.202   2.882  -0.833  0.00  0.00     0.038 H 
ATOM     17  H3  <0> d          -5.186   2.874   0.963  0.00  0.00     0.038 H 
ENDBRANCH   1  14
TORSDOF 1
