REMARK  5 active torsions:
REMARK  status: ('A' for Active; 'I' for Inactive)
REMARK    1  A    between atoms: C1_1  and  C2_2 
REMARK    2  A    between atoms: C5_5  and  C8_9 
REMARK    3  A    between atoms: C6_6  and  O1_8 
REMARK    4  A    between atoms: C8_9  and  C9_10 
REMARK    5  A    between atoms: C8_9  and  C10_11 
ROOT
ATOM      1  C2  <0> d           0.002  -0.004   0.002  0.00  0.00    -0.059 A 
ATOM      2  C3  <0> d           0.006  -0.688  -1.200  0.00  0.00    -0.077 A 
ATOM      3  C4  <0> d           0.024  -2.071  -1.211  0.00  0.00    -0.073 A 
ATOM      4  C5  <0> d           0.039  -2.772  -0.020  0.00  0.00    -0.022 A 
ATOM      5  C6  <0> d           0.035  -2.088   1.186  0.00  0.00     0.072 A 
ATOM      6  C7  <0> d           0.023  -0.700   1.195  0.00  0.00    -0.045 A 
ATOM      7  H4  <0> d          -0.006  -0.142  -2.131  0.00  0.00     0.084 H 
ATOM      8  H5  <0> d           0.027  -2.603  -2.151  0.00  0.00     0.084 H 
ATOM      9  H6  <0> d           0.025  -0.166   2.133  0.00  0.00     0.088 H 
ENDROOT
BRANCH   4  10
ATOM     10  C8  <0> d           0.059  -4.279  -0.033  0.00  0.00    -0.033 C 
ATOM     11  H8  <0> d           0.068  -4.651   0.992  0.00  0.00     0.046 H 
BRANCH  10  12
ATOM     12  C9  <0> d          -1.188  -4.799  -0.753  0.00  0.00    -0.069 C 
ATOM     13  H9  <0> d          -1.197  -4.427  -1.777  0.00  0.00     0.028 H 
ATOM     14  H10 <0> d          -1.173  -5.889  -0.762  0.00  0.00     0.028 H 
ATOM     15  H11 <0> d          -2.080  -4.451  -0.232  0.00  0.00     0.028 H 
ENDBRANCH  10  12
BRANCH  10  16
ATOM     16  C10 <0> d           1.311  -4.766  -0.764  0.00  0.00    -0.069 C 
ATOM     17  H12 <0> d           2.198  -4.396  -0.252  0.00  0.00     0.028 H 
ATOM     18  H13 <0> d           1.325  -5.856  -0.774  0.00  0.00     0.028 H 
ATOM     19  H14 <0> d           1.301  -4.395  -1.789  0.00  0.00     0.028 H 
ENDBRANCH  10  16
ENDBRANCH   4  10
BRANCH   5  20
ATOM     20  O1  <0> d           0.050  -2.776   2.358  0.00  0.00    -0.360 OA
ATOM     21  H7  <0> d           0.938  -2.963   2.694  0.00  0.00     0.217 HD
ENDBRANCH   5  20
BRANCH   1  22
ATOM     22  C1  <0> d          -0.018   1.503   0.010  0.00  0.00    -0.051 C 
ATOM     23  H1  <0> d           1.004   1.880   0.003  0.00  0.00     0.033 H 
ATOM     24  H2  <0> d          -0.545   1.864  -0.873  0.00  0.00     0.033 H 
ATOM     25  H3  <0> d          -0.529   1.854   0.907  0.00  0.00     0.033 H 
ENDBRANCH   1  22
TORSDOF 5
