REMARK  6 active torsions:
REMARK  status: ('A' for Active; 'I' for Inactive)
REMARK    1  A    between atoms: C1_1  and  C2_2 
REMARK    2  A    between atoms: C2_2  and  O1_3 
REMARK    3  A    between atoms: O1_3  and  C3_4 
REMARK    4  A    between atoms: C3_4  and  C4_5 
REMARK    5  A    between atoms: C4_5  and  C5_7 
REMARK    6  A    between atoms: C4_5  and  C6_8 
ROOT
ATOM      1  C3  <0> d          -0.013   1.086   0.008  0.00  0.00     0.032 C 
ATOM      2  H7  <0> d           0.002  -0.004   0.002  0.00  0.00     0.075 H 
ATOM      3  H8  <0> d           1.010   1.463   0.000  0.00  0.00     0.075 H 
ENDROOT
BRANCH   1   4
ATOM      4  O1  <0> d          -0.704   1.559  -1.150  0.00  0.00    -0.391 OA
BRANCH   4   5
ATOM      5  C2  <0> d          -0.114   1.152  -2.386  0.00  0.00     0.016 C 
ATOM      6  H5  <0> d           0.907   1.531  -2.443  0.00  0.00     0.073 H 
ATOM      7  H6  <0> d          -0.101   0.064  -2.442  0.00  0.00     0.073 H 
BRANCH   5   8
ATOM      8  C1  <0> d          -0.932   1.713  -3.551  0.00  0.00    -0.056 C 
ATOM      9  H2  <0> d          -0.482   1.403  -4.494  0.00  0.00     0.030 H 
ATOM     10  H3  <0> d          -1.952   1.334  -3.493  0.00  0.00     0.030 H 
ATOM     11  H4  <0> d          -0.945   2.801  -3.495  0.00  0.00     0.030 H 
ENDBRANCH   5   8
ENDBRANCH   4   5
ENDBRANCH   1   4
BRANCH   1  12
ATOM     12  C4  <0> d          -0.729   1.579   1.267  0.00  0.00     0.047 C 
ATOM     13  H1  <0> d          -0.822   2.665   1.230  0.00  0.00     0.059 H 
BRANCH  12  14
ATOM     14  C5  <0> d          -2.121   0.950   1.341  0.00  0.00    -0.062 C 
ATOM     15  H9  <0> d          -2.028  -0.136   1.378  0.00  0.00     0.028 H 
ATOM     16  H10 <0> d          -2.632   1.301   2.238  0.00  0.00     0.028 H 
ATOM     17  H11 <0> d          -2.697   1.235   0.460  0.00  0.00     0.028 H 
ENDBRANCH  12  14
BRANCH  12  18
ATOM     18  C6  <0> d           0.067   1.185   2.485  0.00  0.00     0.178 C 
ATOM     19  O2  <0> d           1.100   0.572   2.358  0.00  0.00    -0.648 OA
ATOM     20  O3  <0> d          -0.373   1.514   3.709  0.00  0.00    -0.648 OA
ENDBRANCH  12  18
ENDBRANCH   1  12
TORSDOF 6
