REMARK  3 active torsions:
REMARK  status: ('A' for Active; 'I' for Inactive)
REMARK    1  A    between atoms: C1_1  and  N1_2 
REMARK    2  A    between atoms: N1_2  and  C2_3 
REMARK       I    between atoms: N1_2  and  C3_4 
REMARK       I    between atoms: C3_4  and  N2_6 
REMARK    3  A    between atoms: N2_6  and  C4_7 
ROOT
ATOM      1  N1  <0> d           0.002  -0.004   0.002  0.00  0.00    -0.341 N 
ATOM      2  C3  <0> d           0.000  -0.672  -1.169  0.00  0.00     0.359 C 
ATOM      3  O1  <0> d          -0.018  -0.057  -2.220  0.00  0.00    -0.244 OA
ATOM      4  N2  <0> d           0.018  -2.012  -1.176  0.00  0.00     0.001 NA
ENDROOT
BRANCH   1   5
ATOM      5  C1  <0> d          -0.018   1.461   0.010  0.00  0.00    -0.015 C 
ATOM      6  H1  <0> d           1.005   1.838   0.002  0.00  0.00     0.056 H 
ATOM      7  H2  <0> d          -0.545   1.822  -0.873  0.00  0.00     0.056 H 
ATOM      8  H3  <0> d          -0.528   1.812   0.907  0.00  0.00     0.056 H 
ENDBRANCH   1   5
BRANCH   1   9
ATOM      9  C2  <0> d           0.024  -0.743   1.267  0.00  0.00    -0.015 C 
ATOM     10  H4  <0> d          -0.998  -0.941   1.590  0.00  0.00     0.056 H 
ATOM     11  H5  <0> d           0.550  -1.688   1.126  0.00  0.00     0.056 H 
ATOM     12  H6  <0> d           0.537  -0.151   2.025  0.00  0.00     0.056 H 
ENDBRANCH   1   9
BRANCH   4  13
ATOM     13  C4  <0> d           0.016  -2.668  -2.327  0.00  0.00     0.790 A 
ATOM     14  N3  <0> d           0.033  -4.032  -2.500  0.00  0.00     0.041 NA
ATOM     15  N4  <0> d           0.023  -4.226  -3.892  0.00  0.00    -0.162 N 
ATOM     16  N5  <0> d           0.002  -3.066  -4.448  0.00  0.00    -0.034 NA
ATOM     17  H7  <0> d           0.030  -5.081  -4.350  0.00  0.00     0.215 HD
ATOM     18  N6  <0> d          -0.009  -2.132  -3.567  0.00  0.00     0.067 NA
ENDBRANCH   4  13
TORSDOF 3
