REMARK  2 active torsions:
REMARK  status: ('A' for Active; 'I' for Inactive)
REMARK    1  A    between atoms: C1_1  and  C2_2 
REMARK    2  A    between atoms: C2_2  and  C3_3 
ROOT
ATOM      1  C3  <0> d           3.366   2.564  -0.015  0.00  0.00    -0.056 A 
ATOM      2  C4  <0> d           2.916   3.877  -0.005  0.00  0.00    -0.076 A 
ATOM      3  C5  <0> d           1.578   4.152   0.009  0.00  0.00    -0.070 A 
ATOM      4  C6  <0> d           0.654   3.105   0.012  0.00  0.00    -0.008 A 
ATOM      5  C7  <0> d          -0.809   3.037   0.025  0.00  0.00    -0.056 A 
ATOM      6  C8  <0> d          -1.142   1.737   0.016  0.00  0.00    -0.022 A 
ATOM      7  N1  <0> d          -0.011   0.966   0.007  0.00  0.00    -0.365 N 
ATOM      8  H1  <0> d          -0.093  -0.131   0.006  0.00  0.00     0.165 HD
ATOM      9  C9  <0> d           1.105   1.772   0.001  0.00  0.00     0.042 A 
ATOM     10  C10 <0> d           2.472   1.515  -0.013  0.00  0.00    -0.050 A 
ATOM     11  H7  <0> d           3.629   4.688  -0.007  0.00  0.00     0.084 H 
ATOM     12  H8  <0> d           1.235   5.176   0.016  0.00  0.00     0.084 H 
ATOM     13  H9  <0> d          -1.490   3.875   0.035  0.00  0.00     0.086 H 
ATOM     14  H10 <0> d          -2.152   1.355   0.018  0.00  0.00     0.111 H 
ATOM     15  H11 <0> d           2.832   0.497  -0.021  0.00  0.00     0.087 H 
ENDROOT
BRANCH   1  16
ATOM     16  C2  <0> d           4.846   2.282  -0.030  0.00  0.00    -0.044 C 
ATOM     17  H5  <0> d           5.369   3.099  -0.549  0.00  0.00     0.039 H 
ATOM     18  H6  <0> d           5.034   1.334  -0.555  0.00  0.00     0.039 H 
BRANCH  16  19
ATOM     19  C1  <0> d           5.360   2.180   1.408  0.00  0.00    -0.073 C 
ATOM     20  H2  <0> d           6.440   1.974   1.397  0.00  0.00     0.028 H 
ATOM     21  H3  <0> d           4.836   1.363   1.927  0.00  0.00     0.028 H 
ATOM     22  H4  <0> d           5.172   3.128   1.933  0.00  0.00     0.028 H 
ENDBRANCH  16  19
ENDBRANCH   1  16
TORSDOF 2
