REMARK  3 active torsions:
REMARK  status: ('A' for Active; 'I' for Inactive)
REMARK    1  A    between atoms: C1_1  and  C2_2 
REMARK    2  A    between atoms: C2_2  and  C8_12 
REMARK    3  A    between atoms: C3_3  and  C6_9 
ROOT
ATOM      1  C2  <0> d           1.611   3.511  -0.113  0.00  0.00    -0.025 A 
ATOM      2  C3  <0> d           1.417   1.997  -0.001  0.00  0.00    -0.018 A 
ATOM      3  H1  <0> d           2.151   1.358  -0.492  0.00  0.00     0.044 H 
ATOM      4  C4  <0> d           1.883   2.801   1.215  0.00  0.00     0.042 A 
ATOM      5  H2  <0> d           1.167   2.953   2.023  0.00  0.00     0.064 H 
ATOM      6  C5  <0> d           3.287   2.652   1.631  0.00  0.00     0.065 C 
ATOM      7  N1  <0> d           4.371   2.538   1.952  0.00  0.00    -0.197 NA
ENDROOT
BRANCH   1   8
ATOM      8  C1  <0> d           2.820   4.011  -0.907  0.00  0.00    -0.068 C 
ATOM      9  H3  <0> d           2.754   3.652  -1.934  0.00  0.00     0.028 H 
ATOM     10  H4  <0> d           2.831   5.101  -0.903  0.00  0.00     0.028 H 
ATOM     11  H5  <0> d           3.735   3.637  -0.449  0.00  0.00     0.028 H 
ENDBRANCH   1   8
BRANCH   1  12
ATOM     12  C8  <0> d           0.355   4.379  -0.206  0.00  0.00    -0.068 C 
ATOM     13  H8  <0> d          -0.255   4.232   0.685  0.00  0.00     0.028 H 
ATOM     14  H9  <0> d           0.642   5.428  -0.281  0.00  0.00     0.028 H 
ATOM     15  H10 <0> d          -0.218   4.096  -1.089  0.00  0.00     0.028 H 
ENDBRANCH   1  12
BRANCH   2  16
ATOM     16  C6  <0> d          -0.018   1.468   0.010  0.00  0.00     0.020 C 
ATOM     17  C7  <0> d           0.002  -0.004   0.002  0.00  0.00     0.059 C 
ATOM     18  N2  <0> d           0.018  -1.140  -0.004  0.00  0.00    -0.197 NA
ATOM     19  H6  <0> d          -0.545   1.829  -0.873  0.00  0.00     0.055 H 
ATOM     20  H7  <0> d          -0.528   1.819   0.907  0.00  0.00     0.055 H 
ENDBRANCH   2  16
TORSDOF 3
