REMARK  5 active torsions:
REMARK  status: ('A' for Active; 'I' for Inactive)
REMARK    1  A    between atoms: C1_1  and  C2_2 
REMARK    2  A    between atoms: C2_2  and  O1_3 
REMARK    3  A    between atoms: O1_3  and  C3_4 
REMARK    4  A    between atoms: C3_4  and  C4_6 
REMARK    5  A    between atoms: C6_10  and  N2_11 
ROOT
ATOM      1  C3  <0> d          -1.497  -1.838   0.006  0.00  0.00     0.299 C 
ATOM      2  O2  <0> d          -0.523  -2.566  -0.007  0.00  0.00    -0.259 OA
ENDROOT
BRANCH   1   3
ATOM      3  O1  <0> d          -1.339  -0.499   0.012  0.00  0.00    -0.318 OA
BRANCH   3   4
ATOM      4  C2  <0> d           0.002  -0.004   0.002  0.00  0.00     0.026 C 
ATOM      5  H4  <0> d           0.512  -0.356  -0.895  0.00  0.00     0.074 H 
ATOM      6  H5  <0> d           0.529  -0.365   0.885  0.00  0.00     0.074 H 
BRANCH   4   7
ATOM      7  C1  <0> d          -0.019   1.526   0.010  0.00  0.00    -0.056 C 
ATOM      8  H1  <0> d           1.004   1.903   0.003  0.00  0.00     0.030 H 
ATOM      9  H2  <0> d          -0.546   1.887  -0.873  0.00  0.00     0.030 H 
ATOM     10  H3  <0> d          -0.529   1.877   0.907  0.00  0.00     0.030 H 
ENDBRANCH   4   7
ENDBRANCH   3   4
ENDBRANCH   1   3
BRANCH   1  11
ATOM     11  C4  <0> d          -2.843  -2.416   0.016  0.00  0.00     0.111 A 
ATOM     12  C6  <0> d          -3.161  -3.772   0.012  0.00  0.00     0.184 A 
ATOM     13  O3  <0> d          -4.498  -3.868   0.027  0.00  0.00    -0.195 OA
ATOM     14  N1  <0> d          -5.040  -2.562   0.032  0.00  0.00    -0.138 NA
ATOM     15  C5  <0> d          -4.067  -1.700   0.025  0.00  0.00     0.049 A 
ATOM     16  H6  <0> d          -4.173  -0.625   0.027  0.00  0.00     0.120 H 
BRANCH  12  17
ATOM     17  N2  <0> d          -2.271  -4.814  -0.002  0.00  0.00    -0.377 N 
ATOM     18  H7  <0> d          -1.318  -4.638  -0.010  0.00  0.00     0.158 HD
ATOM     19  H8  <0> d          -2.596  -5.729  -0.004  0.00  0.00     0.158 HD
ENDBRANCH  12  17
ENDBRANCH   1  11
TORSDOF 5
