REMARK  3 active torsions:
REMARK  status: ('A' for Active; 'I' for Inactive)
REMARK    1  A    between atoms: C1_1  and  C2_2 
REMARK    2  A    between atoms: C5_8  and  C6_9 
REMARK    3  A    between atoms: C5_8  and  C7_10 
ROOT
ATOM      1  C2  <0> d           0.002  -0.004   0.002  0.00  0.00    -0.026 C 
ATOM      2  H1  <0> d           0.497  -0.381  -0.893  0.00  0.00     0.043 H 
ATOM      3  C3  <0> d          -1.429  -0.578   0.126  0.00  0.00     0.014 C 
ATOM      4  C4  <0> d          -1.262  -1.806   0.994  0.00  0.00     0.218 C 
ATOM      5  O1  <0> d          -2.081  -2.694   1.105  0.00  0.00    -0.274 OA
ATOM      6  N1  <0> d          -0.075  -1.769   1.623  0.00  0.00    -0.352 N 
ATOM      7  C5  <0> d           0.675  -0.555   1.279  0.00  0.00     0.029 C 
ATOM      8  H5  <0> d          -2.088   0.144   0.608  0.00  0.00     0.047 H 
ATOM      9  H6  <0> d          -1.815  -0.853  -0.856  0.00  0.00     0.047 H 
ATOM     10  H7  <0> d           0.245  -2.458   2.227  0.00  0.00     0.163 HD
ENDROOT
BRANCH   7  11
ATOM     11  C6  <0> d           0.575   0.468   2.413  0.00  0.00    -0.053 C 
ATOM     12  H8  <0> d          -0.474   0.675   2.624  0.00  0.00     0.030 H 
ATOM     13  H9  <0> d           1.053   0.067   3.307  0.00  0.00     0.030 H 
ATOM     14  H10 <0> d           1.075   1.389   2.116  0.00  0.00     0.030 H 
ENDBRANCH   7  11
BRANCH   7  15
ATOM     15  C7  <0> d           2.140  -0.897   1.000  0.00  0.00    -0.053 C 
ATOM     16  H11 <0> d           2.667   0.001   0.678  0.00  0.00     0.030 H 
ATOM     17  H12 <0> d           2.601  -1.284   1.909  0.00  0.00     0.030 H 
ATOM     18  H13 <0> d           2.193  -1.652   0.215  0.00  0.00     0.030 H 
ENDBRANCH   7  15
BRANCH   1  19
ATOM     19  C1  <0> d          -0.019   1.526   0.010  0.00  0.00    -0.070 C 
ATOM     20  H2  <0> d           1.004   1.903   0.003  0.00  0.00     0.028 H 
ATOM     21  H3  <0> d          -0.546   1.887  -0.873  0.00  0.00     0.028 H 
ATOM     22  H4  <0> d          -0.529   1.877   0.907  0.00  0.00     0.028 H 
ENDBRANCH   1  19
TORSDOF 3
