REMARK  4 active torsions:
REMARK  status: ('A' for Active; 'I' for Inactive)
REMARK    1  A    between atoms: C1_1  and  C2_2 
REMARK    2  A    between atoms: C2_2  and  C3_4 
REMARK    3  A    between atoms: C3_4  and  C4_5 
REMARK    4  A    between atoms: C4_5  and  O1_6 
ROOT
ATOM      1  C3  <0> d           0.742  -0.511   1.242  0.00  0.00    -0.017 C 
ATOM      2  H5  <0> d           1.735  -0.063   1.280  0.00  0.00     0.040 H 
ATOM      3  H6  <0> d           0.184  -0.235   2.136  0.00  0.00     0.040 H 
ENDROOT
BRANCH   1   4
ATOM      4  C2  <0> d           0.002  -0.004   0.002  0.00  0.00     0.077 C 
ATOM      5  H1  <0> d           0.512  -0.356  -0.895  0.00  0.00     0.090 H 
ATOM      6  F1  <0> d          -1.310  -0.488   0.012  0.00  0.00    -0.250 F 
BRANCH   4   7
ATOM      7  C1  <0> d          -0.019   1.526   0.010  0.00  0.00    -0.048 C 
ATOM      8  H2  <0> d           1.004   1.903   0.003  0.00  0.00     0.031 H 
ATOM      9  H3  <0> d          -0.546   1.887  -0.873  0.00  0.00     0.031 H 
ATOM     10  H4  <0> d          -0.529   1.877   0.907  0.00  0.00     0.031 H 
ENDBRANCH   4   7
ENDBRANCH   1   4
BRANCH   1  11
ATOM     11  C4  <0> d           0.872  -2.034   1.171  0.00  0.00     0.019 C 
ATOM     12  H7  <0> d          -0.121  -2.482   1.132  0.00  0.00     0.074 H 
ATOM     13  H8  <0> d           1.430  -2.310   0.276  0.00  0.00     0.074 H 
BRANCH  11  14
ATOM     14  O1  <0> d           1.563  -2.507   2.329  0.00  0.00    -0.401 OA
ATOM     15  H9  <0> d           1.682  -3.466   2.351  0.00  0.00     0.209 HD
ENDBRANCH  11  14
ENDBRANCH   1  11
TORSDOF 4
