REMARK  3 active torsions:
REMARK  status: ('A' for Active; 'I' for Inactive)
REMARK    1  A    between atoms: C1_1  and  O1_2 
REMARK    2  A    between atoms: O1_2  and  C2_3 
REMARK    3  A    between atoms: C2_3  and  C3_5 
ROOT
ATOM      1  C3  <0> d          -1.248  -2.097   0.003  0.00  0.00     0.108 A 
ATOM      2  C4  <0> d          -2.392  -2.869   0.015  0.00  0.00    -0.050 A 
ATOM      3  C5  <0> d          -1.981  -4.205  -0.000  0.00  0.00    -0.066 A 
ATOM      4  C6  <0> d          -0.626  -4.224  -0.014  0.00  0.00    -0.022 A 
ATOM      5  N1  <0> d          -0.170  -2.953  -0.012  0.00  0.00    -0.361 N 
ATOM      6  H1  <0> d           0.763  -2.688  -0.021  0.00  0.00     0.165 HD
ATOM      7  H5  <0> d          -3.410  -2.510   0.032  0.00  0.00     0.087 H 
ATOM      8  H6  <0> d          -2.629  -5.070   0.003  0.00  0.00     0.085 H 
ATOM      9  H7  <0> d          -0.011  -5.111  -0.024  0.00  0.00     0.111 H 
ENDROOT
BRANCH   1  10
ATOM     10  C2  <0> d          -1.191  -0.633   0.010  0.00  0.00     0.309 C 
ATOM     11  O2  <0> d          -2.220   0.016   0.023  0.00  0.00    -0.258 OA
BRANCH  10  12
ATOM     12  O1  <0> d           0.002  -0.004   0.002  0.00  0.00    -0.321 OA
BRANCH  12  13
ATOM     13  C1  <0> d          -0.018   1.448   0.010  0.00  0.00     0.013 C 
ATOM     14  H2  <0> d           1.005   1.825   0.002  0.00  0.00     0.067 H 
ATOM     15  H3  <0> d          -0.545   1.809  -0.873  0.00  0.00     0.067 H 
ATOM     16  H4  <0> d          -0.528   1.799   0.907  0.00  0.00     0.067 H 
ENDBRANCH  12  13
ENDBRANCH  10  12
ENDBRANCH   1  10
TORSDOF 3
