REMARK  1 active torsions:
REMARK  status: ('A' for Active; 'I' for Inactive)
REMARK    1  A    between atoms: C3_3  and  C8_8 
ROOT
ATOM      1  C1  <0> d           0.312   5.252  -0.722  0.00  0.00    -0.060 C 
ATOM      2  C2  <0> d           0.571   3.808  -1.210  0.00  0.00    -0.048 C 
ATOM      3  C3  <0> d           1.235   3.094   0.007  0.00  0.00     0.049 C 
ATOM      4  C4  <0> d           2.660   3.721   0.097  0.00  0.00    -0.048 C 
ATOM      5  C5  <0> d           2.394   5.179   0.598  0.00  0.00    -0.060 C 
ATOM      6  C6  <0> d           0.844   5.274   0.744  0.00  0.00    -0.053 C 
ATOM      7  C7  <0> d           0.505   3.811   1.198  0.00  0.00    -0.045 C 
ATOM      8  H1  <0> d           0.861   5.965  -1.337  0.00  0.00     0.033 H 
ATOM      9  H2  <0> d          -0.755   5.475  -0.744  0.00  0.00     0.033 H 
ATOM     10  H3  <0> d           1.247   3.812  -2.064  0.00  0.00     0.035 H 
ATOM     11  H4  <0> d          -0.368   3.320  -1.471  0.00  0.00     0.035 H 
ATOM     12  H5  <0> d           3.274   3.168   0.808  0.00  0.00     0.035 H 
ATOM     13  H6  <0> d           3.132   3.732  -0.886  0.00  0.00     0.035 H 
ATOM     14  H7  <0> d           2.751   5.899  -0.139  0.00  0.00     0.033 H 
ATOM     15  H8  <0> d           2.877   5.348   1.560  0.00  0.00     0.033 H 
ATOM     16  H9  <0> d           0.473   6.084   1.373  0.00  0.00     0.040 H 
ATOM     17  H10 <0> d          -0.570   3.631   1.186  0.00  0.00     0.035 H 
ATOM     18  H11 <0> d           0.948   3.556   2.161  0.00  0.00     0.035 H 
ENDROOT
BRANCH   3  19
ATOM     19  C8  <0> d           1.177   1.588  -0.001  0.00  0.00     0.181 C 
ATOM     20  O1  <0> d           2.199   0.944  -0.014  0.00  0.00    -0.647 OA
ATOM     21  O2  <0> d          -0.011   0.963   0.007  0.00  0.00    -0.647 OA
ENDBRANCH   3  19
TORSDOF 1
