REMARK  2 active torsions:
REMARK  status: ('A' for Active; 'I' for Inactive)
REMARK    1  A    between atoms: C1_1  and  C2_2 
REMARK    2  A    between atoms: C5_5  and  C8_9 
REMARK       I    between atoms: C8_9  and  N1_11 
ROOT
ATOM      1  C2  <0> d           0.002  -0.004   0.002  0.00  0.00    -0.066 C 
ATOM      2  C3  <0> d          -1.138  -0.686   0.004  0.00  0.00    -0.096 C 
ATOM      3  C4  <0> d          -1.119  -2.192  -0.003  0.00  0.00    -0.035 C 
ATOM      4  C5  <0> d           0.064  -2.694  -0.830  0.00  0.00     0.043 C 
ATOM      5  H1  <0> d          -0.120  -2.491  -1.885  0.00  0.00     0.061 H 
ATOM      6  C6  <0> d           1.325  -1.995  -0.398  0.00  0.00    -0.090 C 
ATOM      7  C7  <0> d           1.285  -0.725  -0.014  0.00  0.00    -0.080 C 
ATOM      8  H5  <0> d          -2.081  -0.159   0.010  0.00  0.00     0.077 H 
ATOM      9  H6  <0> d          -1.027  -2.557   1.020  0.00  0.00     0.040 H 
ATOM     10  H7  <0> d          -2.048  -2.564  -0.435  0.00  0.00     0.040 H 
ATOM     11  H8  <0> d           2.265  -2.527  -0.404  0.00  0.00     0.078 H 
ATOM     12  H9  <0> d           2.192  -0.224   0.290  0.00  0.00     0.083 H 
ENDROOT
BRANCH   4  13
ATOM     13  C8  <0> d           0.222  -4.179  -0.626  0.00  0.00     0.223 C 
ATOM     14  O1  <0> d          -0.537  -4.775   0.108  0.00  0.00    -0.273 OA
ATOM     15  N1  <0> d           1.207  -4.845  -1.261  0.00  0.00    -0.370 N 
ATOM     16  H10 <0> d           1.814  -4.368  -1.848  0.00  0.00     0.159 HD
ATOM     17  H11 <0> d           1.309  -5.800  -1.130  0.00  0.00     0.159 HD
ENDBRANCH   4  13
BRANCH   1  18
ATOM     18  C1  <0> d          -0.018   1.503   0.010  0.00  0.00    -0.051 C 
ATOM     19  H2  <0> d           1.004   1.880   0.003  0.00  0.00     0.033 H 
ATOM     20  H3  <0> d          -0.545   1.864  -0.873  0.00  0.00     0.033 H 
ATOM     21  H4  <0> d          -0.529   1.854   0.907  0.00  0.00     0.033 H 
ENDBRANCH   1  18
TORSDOF 2
