REMARK  2 active torsions:
REMARK  status: ('A' for Active; 'I' for Inactive)
REMARK    1  A    between atoms: C1_1  and  C2_2 
REMARK    2  A    between atoms: C6_6  and  C7_8 
ROOT
ATOM      1  C7  <0> d           0.050  -2.660   2.449  0.00  0.00    -0.058 C 
ATOM      2  C8  <0> d           0.062  -3.211   3.485  0.00  0.00    -0.147 C 
ATOM      3  H7  <0> d           0.073  -3.704   4.412  0.00  0.00     0.167 H 
ENDROOT
BRANCH   1   4
ATOM      4  C6  <0> d           0.035  -1.987   1.185  0.00  0.00     0.109 A 
ATOM      5  C5  <0> d           0.039  -2.732   0.005  0.00  0.00    -0.047 A 
ATOM      6  C4  <0> d           0.024  -2.067  -1.209  0.00  0.00    -0.078 A 
ATOM      7  H6  <0> d           0.054  -3.811   0.038  0.00  0.00     0.088 H 
ATOM      8  C3  <0> d           0.005  -0.679  -1.205  0.00  0.00    -0.059 A 
ATOM      9  H5  <0> d           0.027  -2.616  -2.139  0.00  0.00     0.083 H 
ATOM     10  C2  <0> d           0.002  -0.004   0.002  0.00  0.00     0.032 A 
ATOM     11  H4  <0> d          -0.007  -0.132  -2.136  0.00  0.00     0.086 H 
ATOM     12  N1  <0> d           0.022  -0.660   1.144  0.00  0.00    -0.245 NA
BRANCH  10  13
ATOM     13  C1  <0> d          -0.018   1.503   0.010  0.00  0.00    -0.035 C 
ATOM     14  H1  <0> d           1.004   1.880   0.003  0.00  0.00     0.035 H 
ATOM     15  H2  <0> d          -0.545   1.864  -0.873  0.00  0.00     0.035 H 
ATOM     16  H3  <0> d          -0.529   1.854   0.907  0.00  0.00     0.035 H 
ENDBRANCH  10  13
ENDBRANCH   1   4
TORSDOF 2
