REMARK  1 active torsions:
REMARK  status: ('A' for Active; 'I' for Inactive)
REMARK    1  A    between atoms: C6_6  and  N1_7 
ROOT
ATOM      1  C1  <0> d          -0.017   1.389   0.010  0.00  0.00    -0.055 A 
ATOM      2  C2  <0> d           1.149   2.100   0.002  0.00  0.00    -0.051 A 
ATOM      3  C3  <0> d           2.375   1.431  -0.013  0.00  0.00     0.085 A 
ATOM      4  C4  <0> d           2.398   0.025  -0.021  0.00  0.00     0.064 A 
ATOM      5  C5  <0> d           1.208  -0.686  -0.013  0.00  0.00    -0.030 A 
ATOM      6  C6  <0> d           0.002  -0.004   0.002  0.00  0.00     0.028 A 
ATOM      7  N2  <0> d           3.732  -0.334  -0.035  0.00  0.00    -0.349 N 
ATOM      8  C7  <0> d           4.461   0.816  -0.036  0.00  0.00     0.065 A 
ATOM      9  N3  <0> d           3.668   1.848  -0.023  0.00  0.00    -0.242 NA
ATOM     10  H1  <0> d          -0.962   1.912   0.026  0.00  0.00     0.087 H 
ATOM     11  H2  <0> d           1.123   3.180   0.008  0.00  0.00     0.087 H 
ATOM     12  H3  <0> d           1.220  -1.766  -0.019  0.00  0.00     0.090 H 
ATOM     13  H6  <0> d           5.540   0.865  -0.045  0.00  0.00     0.143 H 
ATOM     14  H7  <0> d           4.083  -1.238  -0.043  0.00  0.00     0.167 HD
ENDROOT
BRANCH   6  15
ATOM     15  N1  <0> d          -1.201  -0.717   0.010  0.00  0.00    -0.399 N 
ATOM     16  H4  <0> d          -2.046  -0.241   0.020  0.00  0.00     0.156 HD
ATOM     17  H5  <0> d          -1.190  -1.687   0.004  0.00  0.00     0.156 HD
ENDBRANCH   6  15
TORSDOF 1
