REMARK  1 active torsions:
REMARK  status: ('A' for Active; 'I' for Inactive)
REMARK    1  A    between atoms: C4_4  and  C7_7 
ROOT
ATOM      1  C1  <0> d          -0.017   1.379   0.010  0.00  0.00    -0.083 A 
ATOM      2  C2  <0> d           1.169   2.092   0.002  0.00  0.00    -0.082 A 
ATOM      3  C3  <0> d           2.377   1.426  -0.013  0.00  0.00    -0.072 A 
ATOM      4  C4  <0> d           2.402   0.033  -0.021  0.00  0.00    -0.023 A 
ATOM      5  C5  <0> d           1.205  -0.680  -0.013  0.00  0.00    -0.072 A 
ATOM      6  C6  <0> d           0.002  -0.004   0.002  0.00  0.00    -0.082 A 
ATOM      7  H1  <0> d          -0.960   1.904   0.026  0.00  0.00     0.083 H 
ATOM      8  H2  <0> d           1.148   3.172   0.008  0.00  0.00     0.083 H 
ATOM      9  H3  <0> d           3.302   1.983  -0.019  0.00  0.00     0.084 H 
ATOM     10  H4  <0> d           1.219  -1.760  -0.019  0.00  0.00     0.084 H 
ATOM     11  H5  <0> d          -0.926  -0.556   0.008  0.00  0.00     0.083 H 
ENDROOT
BRANCH   4  12
ATOM     12  C7  <0> d           3.699  -0.689  -0.037  0.00  0.00     0.009 A 
ATOM     13  C10 <0> d           3.743  -2.085  -0.045  0.00  0.00     0.015 A 
ATOM     14  N2  <0> d           4.919  -2.688  -0.065  0.00  0.00    -0.253 NA
ATOM     15  H8  <0> d           2.831  -2.663  -0.040  0.00  0.00     0.116 H 
ATOM     16  C9  <0> d           6.038  -1.991  -0.067  0.00  0.00     0.086 A 
ATOM     17  N1  <0> d           6.041  -0.673  -0.055  0.00  0.00    -0.253 NA
ATOM     18  H7  <0> d           6.982  -2.516  -0.079  0.00  0.00     0.146 H 
ATOM     19  C8  <0> d           4.909   0.009  -0.040  0.00  0.00     0.015 A 
ATOM     20  H6  <0> d           4.919   1.089  -0.030  0.00  0.00     0.116 H 
ENDBRANCH   4  12
TORSDOF 1
