REMARK  4 active torsions:
REMARK  status: ('A' for Active; 'I' for Inactive)
REMARK    1  A    between atoms: C1_1  and  C2_2 
REMARK    2  A    between atoms: C2_2  and  O2_4 
REMARK    3  A    between atoms: O2_4  and  C3_5 
REMARK    4  A    between atoms: C3_5  and  C4_6 
ROOT
ATOM      1  C4  <0> d           0.002  -0.004   0.002  0.00  0.00    -0.091 C 
ATOM      2  C5  <0> d           0.018  -1.178  -0.004  0.00  0.00    -0.152 C 
ATOM      3  H6  <0> d           0.032  -2.228  -0.010  0.00  0.00     0.166 H 
ENDROOT
BRANCH   1   4
ATOM      4  C3  <0> d          -0.018   1.468   0.010  0.00  0.00     0.082 C 
ATOM      5  H4  <0> d          -0.545   1.829  -0.873  0.00  0.00     0.094 H 
ATOM      6  H5  <0> d          -0.528   1.819   0.907  0.00  0.00     0.094 H 
BRANCH   4   7
ATOM      7  O2  <0> d           1.344   1.970  -0.000  0.00  0.00    -0.310 OA
BRANCH   7   8
ATOM      8  C2  <0> d           1.502   3.303   0.005  0.00  0.00     0.255 C 
ATOM      9  O1  <0> d           0.534   4.026   0.019  0.00  0.00    -0.266 OA
BRANCH   8  10
ATOM     10  C1  <0> d           2.887   3.898  -0.005  0.00  0.00     0.004 C 
ATOM     11  H1  <0> d           3.626   3.098  -0.016  0.00  0.00     0.041 H 
ATOM     12  H2  <0> d           3.009   4.519  -0.892  0.00  0.00     0.041 H 
ATOM     13  H3  <0> d           3.026   4.509   0.887  0.00  0.00     0.041 H 
ENDBRANCH   8  10
ENDBRANCH   7   8
ENDBRANCH   4   7
ENDBRANCH   1   4
TORSDOF 4
