REMARK  5 active torsions:
REMARK  status: ('A' for Active; 'I' for Inactive)
REMARK    1  A    between atoms: C1_1  and  N1_2 
REMARK    2  A    between atoms: N1_2  and  C2_3 
REMARK       I    between atoms: N1_2  and  C3_4 
REMARK    3  A    between atoms: C3_4  and  C4_6 
REMARK    4  A    between atoms: C4_6  and  C5_7 
REMARK    5  A    between atoms: C5_7  and  C6_8 
ROOT
ATOM      1  N1  <0> d          -4.952   0.976   0.031  0.00  0.00    -0.361 N 
ATOM      2  C3  <0> d          -3.794   1.665   0.029  0.00  0.00     0.219 C 
ATOM      3  O1  <0> d          -3.811   2.878   0.036  0.00  0.00    -0.273 OA
ENDROOT
BRANCH   2   4
ATOM      4  C4  <0> d          -2.479   0.930   0.019  0.00  0.00     0.018 C 
ATOM      5  H7  <0> d          -2.417   0.309  -0.875  0.00  0.00     0.048 H 
ATOM      6  H8  <0> d          -2.408   0.299   0.905  0.00  0.00     0.048 H 
BRANCH   4   7
ATOM      7  C5  <0> d          -1.329   1.940   0.019  0.00  0.00     0.024 C 
ATOM      8  H9  <0> d          -1.391   2.561   0.913  0.00  0.00     0.049 H 
ATOM      9  H10 <0> d          -1.400   2.570  -0.867  0.00  0.00     0.049 H 
BRANCH   7  10
ATOM     10  C6  <0> d          -0.014   1.204   0.009  0.00  0.00     0.172 C 
ATOM     11  O2  <0> d           0.002  -0.004   0.002  0.00  0.00    -0.648 OA
ATOM     12  O3  <0> d           1.139   1.891   0.001  0.00  0.00    -0.648 OA
ENDBRANCH   7  10
ENDBRANCH   4   7
ENDBRANCH   2   4
BRANCH   1  13
ATOM     13  C1  <0> d          -6.231   1.691   0.041  0.00  0.00    -0.017 C 
ATOM     14  H1  <0> d          -6.552   1.874  -0.984  0.00  0.00     0.056 H 
ATOM     15  H2  <0> d          -6.980   1.089   0.555  0.00  0.00     0.056 H 
ATOM     16  H3  <0> d          -6.111   2.642   0.559  0.00  0.00     0.056 H 
ENDBRANCH   1  13
BRANCH   1  17
ATOM     17  C2  <0> d          -4.932  -0.489   0.023  0.00  0.00    -0.017 C 
ATOM     18  H4  <0> d          -3.900  -0.838   0.016  0.00  0.00     0.056 H 
ATOM     19  H5  <0> d          -5.437  -0.864   0.913  0.00  0.00     0.056 H 
ATOM     20  H6  <0> d          -5.445  -0.855  -0.867  0.00  0.00     0.056 H 
ENDBRANCH   1  17
TORSDOF 5
