REMARK  1 active torsions:
REMARK  status: ('A' for Active; 'I' for Inactive)
REMARK    1  A    between atoms: C2_2  and  C3_3 
ROOT
ATOM      1  C3  <0> d          -1.227   3.139   0.030  0.00  0.00    -0.034 A 
ATOM      2  C4  <0> d          -1.222   1.740   0.017  0.00  0.00    -0.056 A 
ATOM      3  C5  <0> d          -0.013   1.076   0.008  0.00  0.00     0.003 A 
ATOM      4  N1  <0> d           1.126   1.742   0.001  0.00  0.00    -0.273 NA
ATOM      5  C6  <0> d           1.166   3.061   0.007  0.00  0.00     0.003 A 
ATOM      6  C7  <0> d           0.004   3.804   0.022  0.00  0.00    -0.056 A 
ATOM      7  H4  <0> d          -2.150   1.188   0.018  0.00  0.00     0.086 H 
ATOM      8  H5  <0> d           0.002  -0.004   0.002  0.00  0.00     0.114 H 
ATOM      9  H6  <0> d           2.121   3.565   0.001  0.00  0.00     0.114 H 
ATOM     10  H7  <0> d           0.044   4.884   0.027  0.00  0.00     0.086 H 
ENDROOT
BRANCH   1  11
ATOM     11  C2  <0> d          -2.498   3.894   0.045  0.00  0.00    -0.082 C 
ATOM     12  C1  <0> d          -3.654   3.245   0.053  0.00  0.00    -0.120 C 
ATOM     13  H1  <0> d          -3.667   2.165   0.048  0.00  0.00     0.066 H 
ATOM     14  H2  <0> d          -4.582   3.796   0.064  0.00  0.00     0.066 H 
ATOM     15  H3  <0> d          -2.484   4.974   0.050  0.00  0.00     0.083 H 
ENDBRANCH   1  11
TORSDOF 1
