REMARK  4 active torsions:
REMARK  status: ('A' for Active; 'I' for Inactive)
REMARK    1  A    between atoms: C1_1  and  C2_2 
REMARK    2  A    between atoms: C2_2  and  N1_3 
REMARK    3  A    between atoms: N1_3  and  C3_4 
REMARK    4  A    between atoms: C6_10  and  N4_12 
ROOT
ATOM      1  C3  <0> d           0.830  -1.831  -1.430  0.00  0.00     0.147 A 
ATOM      2  C4  <0> d           1.484  -2.281  -2.568  0.00  0.00     0.028 A 
ATOM      3  C5  <0> d           1.612  -3.659  -2.769  0.00  0.00     0.263 A 
ATOM      4  O1  <0> d           2.182  -4.092  -3.758  0.00  0.00    -0.268 OA
ATOM      5  N2  <0> d           1.096  -4.502  -1.850  0.00  0.00    -0.154 N 
ATOM      6  H1  <0> d           1.176  -5.461  -1.973  0.00  0.00     0.187 HD
ATOM      7  C6  <0> d           0.463  -4.010  -0.750  0.00  0.00     0.702 A 
ATOM      8  N3  <0> d           0.343  -2.714  -0.551  0.00  0.00    -0.047 NA
ATOM      9  H8  <0> d           1.886  -1.581  -3.285  0.00  0.00     0.098 H 
ENDROOT
BRANCH   1  10
ATOM     10  N1  <0> d           0.688  -0.476  -1.203  0.00  0.00    -0.374 N 
ATOM     11  H7  <0> d           1.042   0.162  -1.842  0.00  0.00     0.161 HD
BRANCH  10  12
ATOM     12  C2  <0> d           0.002  -0.004   0.002  0.00  0.00    -0.009 C 
ATOM     13  H5  <0> d           0.529  -0.365   0.885  0.00  0.00     0.063 H 
ATOM     14  H6  <0> d          -1.020  -0.381   0.010  0.00  0.00     0.063 H 
BRANCH  12  15
ATOM     15  C1  <0> d          -0.019   1.526   0.010  0.00  0.00    -0.061 C 
ATOM     16  H2  <0> d           1.004   1.903   0.003  0.00  0.00     0.029 H 
ATOM     17  H3  <0> d          -0.546   1.887  -0.873  0.00  0.00     0.029 H 
ATOM     18  H4  <0> d          -0.529   1.877   0.907  0.00  0.00     0.029 H 
ENDBRANCH  12  15
ENDBRANCH  10  12
ENDBRANCH   1  10
BRANCH   7  19
ATOM     19  N4  <0> d          -0.055  -4.880   0.171  0.00  0.00    -0.233 N 
ATOM     20  H9  <0> d           0.031  -5.837   0.036  0.00  0.00     0.174 HD
ATOM     21  H10 <0> d          -0.508  -4.540   0.959  0.00  0.00     0.174 HD
ENDBRANCH   7  19
TORSDOF 4
