REMARK  3 active torsions:
REMARK  status: ('A' for Active; 'I' for Inactive)
REMARK    1  A    between atoms: C1_1  and  C2_2 
REMARK    2  A    between atoms: C2_2  and  O2_4 
REMARK    3  A    between atoms: O2_4  and  C3_5 
ROOT
ATOM      1  C3  <0> d           2.034   0.798  -0.013  0.00  0.00     0.218 A 
ATOM      2  C4  <0> d           1.360  -0.386  -0.013  0.00  0.00    -0.005 A 
ATOM      3  C5  <0> d           0.002  -0.004   0.002  0.00  0.00     0.034 A 
ATOM      4  N1  <0> d          -0.016   1.299   0.009  0.00  0.00    -0.138 NA
ATOM      5  O3  <0> d           1.101   1.763   0.001  0.00  0.00    -0.188 OA
ATOM      6  H4  <0> d           1.770  -1.385  -0.023  0.00  0.00     0.093 H 
ATOM      7  H5  <0> d          -0.854  -0.662   0.006  0.00  0.00     0.118 H 
ENDROOT
BRANCH   1   8
ATOM      8  O2  <0> d           3.378   0.968  -0.025  0.00  0.00    -0.253 OA
BRANCH   8   9
ATOM      9  C2  <0> d           3.833   2.232  -0.022  0.00  0.00     0.261 C 
ATOM     10  O1  <0> d           3.054   3.155  -0.010  0.00  0.00    -0.265 OA
BRANCH   9  11
ATOM     11  C1  <0> d           5.316   2.499  -0.035  0.00  0.00     0.004 C 
ATOM     12  H1  <0> d           5.665   2.569  -1.065  0.00  0.00     0.041 H 
ATOM     13  H2  <0> d           5.521   3.437   0.482  0.00  0.00     0.041 H 
ATOM     14  H3  <0> d           5.836   1.685   0.470  0.00  0.00     0.041 H 
ENDBRANCH   9  11
ENDBRANCH   8   9
ENDBRANCH   1   8
TORSDOF 3
