REMARK  1 active torsions:
REMARK  status: ('A' for Active; 'I' for Inactive)
REMARK    1  A    between atoms: C1_1  and  C2_2 
ROOT
ATOM      1  C2  <0> d           1.577   3.350   0.004  0.00  0.00     0.148 A 
ATOM      2  N1  <0> d           2.881   3.359  -0.009  0.00  0.00    -0.133 NA
ATOM      3  N2  <0> d           3.330   2.152  -0.018  0.00  0.00    -0.120 NA
ATOM      4  C3  <0> d           2.332   1.321  -0.013  0.00  0.00     0.217 A 
ATOM      5  N3  <0> d           1.159   2.035   0.002  0.00  0.00    -0.192 N 
ATOM      6  N4  <0> d          -0.015   1.295   0.009  0.00  0.00    -0.169 NA
ATOM      7  C4  <0> d           0.002  -0.004   0.002  0.00  0.00     0.063 A 
ATOM      8  S1  <0> d           1.753  -0.357  -0.017  0.00  0.00    -0.039 SA
ATOM      9  H4  <0> d          -0.829  -0.694   0.006  0.00  0.00     0.129 H 
ENDROOT
BRANCH   1  10
ATOM     10  C1  <0> d           0.684   4.564   0.020  0.00  0.00    -0.018 C 
ATOM     11  H1  <0> d           0.479   4.851   1.051  0.00  0.00     0.038 H 
ATOM     12  H2  <0> d           1.180   5.387  -0.495  0.00  0.00     0.038 H 
ATOM     13  H3  <0> d          -0.254   4.331  -0.485  0.00  0.00     0.038 H 
ENDBRANCH   1  10
TORSDOF 1
