REMARK  0 active torsions:
REMARK  status: ('A' for Active; 'I' for Inactive)
ROOT
ATOM      1  C1  <0> d          -0.017   1.384   0.010  0.00  0.00    -0.043 A 
ATOM      2  C2  <0> d           1.163   2.097   0.002  0.00  0.00    -0.049 A 
ATOM      3  C3  <0> d           2.381   1.419  -0.013  0.00  0.00     0.096 A 
ATOM      4  C4  <0> d           2.397   0.016  -0.021  0.00  0.00     0.111 A 
ATOM      5  C5  <0> d           1.204  -0.687  -0.014  0.00  0.00    -0.011 A 
ATOM      6  C6  <0> d           0.002  -0.004   0.002  0.00  0.00     0.119 A 
ATOM      7  F1  <0> d          -1.161  -0.691   0.009  0.00  0.00    -0.206 F 
ATOM      8  O1  <0> d           3.699  -0.350  -0.035  0.00  0.00    -0.268 OA
ATOM      9  C7  <0> d           4.449   0.765  -0.036  0.00  0.00     0.323 A 
ATOM     10  O2  <0> d           5.801   0.789  -0.048  0.00  0.00    -0.141 OA
ATOM     11  N1  <0> d           3.683   1.822  -0.023  0.00  0.00    -0.197 NA
ATOM     12  H1  <0> d          -0.961   1.908   0.026  0.00  0.00     0.088 H 
ATOM     13  H2  <0> d           1.143   3.176   0.008  0.00  0.00     0.087 H 
ATOM     14  H3  <0> d           1.212  -1.767  -0.020  0.00  0.00     0.092 H 
ENDROOT
TORSDOF 0
