REMARK  2 active torsions:
REMARK  status: ('A' for Active; 'I' for Inactive)
REMARK    1  A    between atoms: C1_1  and  C2_2 
REMARK    2  A    between atoms: N2_6  and  C5_7 
ROOT
ATOM      1  C2  <0> d          -0.453   3.020   1.870  0.00  0.00     0.034 A 
ATOM      2  C3  <0> d          -1.298   3.087   2.925  0.00  0.00    -0.041 A 
ATOM      3  C4  <0> d          -2.086   1.931   2.919  0.00  0.00     0.024 A 
ATOM      4  N1  <0> d          -1.729   1.199   1.895  0.00  0.00    -0.180 NA
ATOM      5  N2  <0> d          -0.703   1.867   1.215  0.00  0.00    -0.214 N 
ATOM      6  H4  <0> d          -1.353   3.889   3.646  0.00  0.00     0.088 H 
ATOM      7  H5  <0> d          -2.855   1.685   3.636  0.00  0.00     0.117 H 
ENDROOT
BRANCH   1   8
ATOM      8  C1  <0> d           0.580   4.051   1.493  0.00  0.00    -0.036 C 
ATOM      9  H1  <0> d           0.135   4.781   0.818  0.00  0.00     0.035 H 
ATOM     10  H2  <0> d           0.935   4.555   2.392  0.00  0.00     0.035 H 
ATOM     11  H3  <0> d           1.418   3.560   0.997  0.00  0.00     0.035 H 
ENDBRANCH   1   8
BRANCH   5  12
ATOM     12  C5  <0> d          -0.017   1.395   0.010  0.00  0.00     0.296 C 
ATOM     13  F1  <0> d           0.002  -0.004   0.002  0.00  0.00    -0.189 F 
ATOM     14  F2  <0> d           1.296   1.879  -0.000  0.00  0.00    -0.189 F 
ATOM     15  H6  <0> d          -0.544   1.756  -0.873  0.00  0.00     0.185 H 
ENDBRANCH   5  12
TORSDOF 2
