REMARK  4 active torsions:
REMARK  status: ('A' for Active; 'I' for Inactive)
REMARK    1  A    between atoms: C1_1  and  C2_2 
REMARK    2  A    between atoms: C2_2  and  C3_4 
REMARK    3  A    between atoms: C2_2  and  O1_10 
REMARK    4  A    between atoms: C3_4  and  C4_5 
ROOT
ATOM      1  C3  <0> d          -2.355   4.080   0.046  0.00  0.00    -0.011 C 
ATOM      2  H5  <0> d          -2.070   4.999  -0.466  0.00  0.00     0.044 H 
ATOM      3  H6  <0> d          -3.208   3.630  -0.463  0.00  0.00     0.044 H 
ENDROOT
BRANCH   1   4
ATOM      4  C2  <0> d          -2.734   4.398   1.494  0.00  0.00     0.036 C 
ATOM      5  H1  <0> d          -1.857   4.765   2.026  0.00  0.00     0.082 H 
BRANCH   4   6
ATOM      6  C1  <0> d          -3.826   5.470   1.511  0.00  0.00    -0.052 C 
ATOM      7  H2  <0> d          -4.703   5.103   0.978  0.00  0.00     0.030 H 
ATOM      8  H3  <0> d          -4.096   5.697   2.542  0.00  0.00     0.030 H 
ATOM      9  H4  <0> d          -3.457   6.373   1.025  0.00  0.00     0.030 H 
ENDBRANCH   4   6
BRANCH   4  10
ATOM     10  O1  <0> d          -3.218   3.215   2.131  0.00  0.00    -0.396 OA
ATOM     11  H10 <0> d          -3.999   2.832   1.709  0.00  0.00     0.210 HD
ENDBRANCH   4  10
ENDBRANCH   1   4
BRANCH   1  12
ATOM     12  C4  <0> d          -1.196   3.116   0.030  0.00  0.00    -0.015 A 
ATOM     13  S1  <0> d           0.555   3.464   0.015  0.00  0.00    -0.106 SA
ATOM     14  C7  <0> d           1.146   1.780   0.001  0.00  0.00    -0.045 A 
ATOM     15  C6  <0> d          -0.013   1.076   0.008  0.00  0.00    -0.076 A 
ATOM     16  H9  <0> d           2.163   1.416  -0.011  0.00  0.00     0.095 H 
ATOM     17  C5  <0> d          -1.213   1.761   0.017  0.00  0.00    -0.070 A 
ATOM     18  H8  <0> d           0.002  -0.004   0.002  0.00  0.00     0.084 H 
ATOM     19  H7  <0> d          -2.150   1.224   0.018  0.00  0.00     0.085 H 
ENDBRANCH   1  12
TORSDOF 4
