REMARK  4 active torsions:
REMARK  status: ('A' for Active; 'I' for Inactive)
REMARK    1  A    between atoms: C1_1  and  C2_2 
REMARK    2  A    between atoms: C3_4  and  O4_14 
REMARK    3  A    between atoms: C4_6  and  O3_13 
REMARK    4  A    between atoms: C6_9  and  O2_12 
ROOT
ATOM      1  C2  <0> d           2.194   0.114  -1.186  0.00  0.00     0.065 C 
ATOM      2  H1  <0> d           2.717  -0.241  -0.297  0.00  0.00     0.086 H 
ATOM      3  C3  <0> d           0.786  -0.486  -1.222  0.00  0.00     0.085 C 
ATOM      4  H2  <0> d           0.276  -0.166  -2.131  0.00  0.00     0.090 H 
ATOM      5  C4  <0> d           0.002  -0.004   0.002  0.00  0.00     0.067 C 
ATOM      6  H3  <0> d          -1.019  -0.382  -0.047  0.00  0.00     0.087 H 
ATOM      7  C5  <0> d          -0.019   1.528   0.010  0.00  0.00     0.007 C 
ATOM      8  C6  <0> d           1.420   2.050  -0.001  0.00  0.00     0.131 C 
ATOM      9  H4  <0> d           1.933   1.721   0.903  0.00  0.00     0.128 H 
ATOM     10  O1  <0> d           2.102   1.539  -1.148  0.00  0.00    -0.354 OA
ATOM     11  H8  <0> d          -0.544   1.890  -0.873  0.00  0.00     0.044 H 
ATOM     12  H9  <0> d          -0.527   1.880   0.908  0.00  0.00     0.044 H 
ENDROOT
BRANCH   1  13
ATOM     13  C1  <0> d           2.964  -0.315  -2.436  0.00  0.00    -0.050 C 
ATOM     14  H5  <0> d           2.441   0.039  -3.324  0.00  0.00     0.031 H 
ATOM     15  H6  <0> d           3.967   0.112  -2.410  0.00  0.00     0.031 H 
ATOM     16  H7  <0> d           3.034  -1.403  -2.465  0.00  0.00     0.031 H 
ENDBRANCH   1  13
BRANCH   3  17
ATOM     17  O4  <0> d           0.874  -1.913  -1.202  0.00  0.00    -0.390 OA
ATOM     18  H12 <0> d           0.017  -2.360  -1.218  0.00  0.00     0.210 HD
ENDBRANCH   3  17
BRANCH   8  19
ATOM     19  O2  <0> d           1.409   3.478  -0.049  0.00  0.00    -0.371 OA
ATOM     20  H10 <0> d           2.289   3.878  -0.059  0.00  0.00     0.212 HD
ENDBRANCH   8  19
BRANCH   5  21
ATOM     21  O3  <0> d           0.632  -0.480   1.193  0.00  0.00    -0.393 OA
ATOM     22  H11 <0> d           0.190  -0.206   2.008  0.00  0.00     0.210 HD
ENDBRANCH   5  21
TORSDOF 4
