REMARK  5 active torsions:
REMARK  status: ('A' for Active; 'I' for Inactive)
REMARK    1  A    between atoms: C1_1  and  C2_2 
REMARK    2  A    between atoms: C2_2  and  C3_3 
REMARK    3  A    between atoms: C2_2  and  C4_4 
REMARK    4  A    between atoms: C2_2  and  O1_11 
REMARK    5  A    between atoms: C9_9  and  N1_10 
ROOT
ATOM      1  C4  <0> d           1.154  -0.554  -0.002  0.00  0.00     0.001 A 
ATOM      2  C5  <0> d           1.001  -1.918  -0.157  0.00  0.00    -0.072 A 
ATOM      3  C6  <0> d          -0.231  -2.506   0.062  0.00  0.00    -0.082 A 
ATOM      4  C7  <0> d          -1.314  -1.732   0.436  0.00  0.00    -0.081 A 
ATOM      5  C8  <0> d          -1.167  -0.368   0.597  0.00  0.00    -0.057 A 
ATOM      6  C9  <0> d           0.069   0.227   0.373  0.00  0.00     0.035 A 
ATOM      7  H7  <0> d           1.845  -2.526  -0.448  0.00  0.00     0.084 H 
ATOM      8  H8  <0> d          -0.347  -3.573  -0.058  0.00  0.00     0.083 H 
ATOM      9  H9  <0> d          -2.275  -2.194   0.606  0.00  0.00     0.083 H 
ATOM     10  H10 <0> d          -2.012   0.236   0.892  0.00  0.00     0.086 H 
ENDROOT
BRANCH   1  11
ATOM     11  C2  <0> d           2.498   0.086  -0.240  0.00  0.00     0.080 C 
BRANCH  11  12
ATOM     12  C1  <0> d           2.396   1.067  -1.410  0.00  0.00    -0.044 C 
ATOM     13  H1  <0> d           1.631   1.812  -1.193  0.00  0.00     0.032 H 
ATOM     14  H2  <0> d           3.356   1.562  -1.554  0.00  0.00     0.032 H 
ATOM     15  H3  <0> d           2.128   0.524  -2.317  0.00  0.00     0.032 H 
ENDBRANCH  11  12
BRANCH  11  16
ATOM     16  C3  <0> d           2.935   0.838   1.019  0.00  0.00    -0.044 C 
ATOM     17  H4  <0> d           2.917   0.159   1.872  0.00  0.00     0.032 H 
ATOM     18  H5  <0> d           3.945   1.222   0.880  0.00  0.00     0.032 H 
ATOM     19  H6  <0> d           2.252   1.668   1.202  0.00  0.00     0.032 H 
ENDBRANCH  11  16
BRANCH  11  20
ATOM     20  O1  <0> d           3.459  -0.925  -0.548  0.00  0.00    -0.386 OA
ATOM     21  H13 <0> d           4.349  -0.585  -0.714  0.00  0.00     0.211 HD
ENDBRANCH  11  20
ENDBRANCH   1  11
BRANCH   6  22
ATOM     22  N1  <0> d           0.220   1.607   0.530  0.00  0.00    -0.399 N 
ATOM     23  H11 <0> d           1.052   2.035   0.276  0.00  0.00     0.156 HD
ATOM     24  H12 <0> d          -0.508   2.136   0.890  0.00  0.00     0.156 HD
ENDBRANCH   6  22
TORSDOF 5
