REMARK  2 active torsions:
REMARK  status: ('A' for Active; 'I' for Inactive)
REMARK    1  A    between atoms: C2_2  and  C5_9 
REMARK    2  A    between atoms: C3_6  and  C4_7 
ROOT
ATOM      1  C1  <0> d           2.084   0.631  -0.015  0.00  0.00    -0.023 A 
ATOM      2  C2  <0> d           1.275  -0.454  -0.013  0.00  0.00     0.034 A 
ATOM      3  N1  <0> d           0.002  -0.004   0.002  0.00  0.00    -0.281 N 
ATOM      4  H1  <0> d          -0.810  -0.587   0.007  0.00  0.00     0.189 HD
ATOM      5  N2  <0> d          -0.015   1.280   0.009  0.00  0.00    -0.168 NA
ATOM      6  C3  <0> d           1.217   1.750  -0.000  0.00  0.00     0.155 A 
ATOM      7  H2  <0> d           3.164   0.641  -0.025  0.00  0.00     0.090 H 
ENDROOT
BRANCH   2   8
ATOM      8  C5  <0> d           1.714  -1.896  -0.024  0.00  0.00    -0.012 A 
ATOM      9  C7  <0> d           0.863  -2.899   0.758  0.00  0.00    -0.056 A 
ATOM     10  C6  <0> d           0.831  -2.897  -0.772  0.00  0.00    -0.056 A 
ATOM     11  H6  <0> d           1.381  -3.723   1.249  0.00  0.00     0.034 H 
ATOM     12  H7  <0> d          -0.014  -2.516   1.280  0.00  0.00     0.034 H 
ATOM     13  H4  <0> d          -0.067  -2.513  -1.256  0.00  0.00     0.034 H 
ATOM     14  H5  <0> d           1.328  -3.719  -1.287  0.00  0.00     0.034 H 
ATOM     15  H3  <0> d           2.791  -2.059  -0.046  0.00  0.00     0.049 H 
ENDBRANCH   2   8
BRANCH   6  16
ATOM     16  C4  <0> d           1.616   3.171   0.003  0.00  0.00     0.230 C 
ATOM     17  O1  <0> d           2.793   3.471  -0.007  0.00  0.00    -0.643 OA
ATOM     18  O2  <0> d           0.675   4.134   0.017  0.00  0.00    -0.643 OA
ENDBRANCH   6  16
TORSDOF 2
