REMARK  3 active torsions:
REMARK  status: ('A' for Active; 'I' for Inactive)
REMARK    1  A    between atoms: C1_1  and  C2_2 
REMARK    2  A    between atoms: C4_4  and  N2_8 
REMARK       I    between atoms: N2_8  and  C7_9 
REMARK    3  A    between atoms: C7_9  and  C8_11 
ROOT
ATOM      1  C2  <0> d          -0.164  -0.011   0.003  0.00  0.00     0.032 A 
ATOM      2  C3  <0> d          -0.161  -0.688  -1.199  0.00  0.00    -0.034 A 
ATOM      3  C4  <0> d           0.020  -2.070  -1.198  0.00  0.00     0.037 A 
ATOM      4  C5  <0> d           0.192  -2.713   0.027  0.00  0.00    -0.040 A 
ATOM      5  C6  <0> d           0.176  -1.964   1.185  0.00  0.00     0.005 A 
ATOM      6  N1  <0> d           0.007  -0.655   1.142  0.00  0.00    -0.266 NA
ATOM      7  H4  <0> d          -0.298  -0.155  -2.128  0.00  0.00     0.090 H 
ATOM      8  H5  <0> d           0.335  -3.783   0.069  0.00  0.00     0.089 H 
ATOM      9  H6  <0> d           0.309  -2.453   2.139  0.00  0.00     0.114 H 
ENDROOT
BRANCH   3  10
ATOM     10  N2  <0> d           0.029  -2.792  -2.392  0.00  0.00    -0.327 N 
ATOM     11  C7  <0> d           0.508  -2.227  -3.518  0.00  0.00     0.218 C 
ATOM     12  O1  <0> d           1.019  -1.128  -3.474  0.00  0.00    -0.274 OA
ATOM     13  H7  <0> d          -0.310  -3.701  -2.412  0.00  0.00     0.169 HD
BRANCH  11  14
ATOM     14  C8  <0> d           0.410  -2.960  -4.831  0.00  0.00    -0.003 C 
ATOM     15  H8  <0> d          -0.075  -3.924  -4.673  0.00  0.00     0.040 H 
ATOM     16  H9  <0> d          -0.177  -2.369  -5.534  0.00  0.00     0.040 H 
ATOM     17  H10 <0> d           1.409  -3.118  -5.234  0.00  0.00     0.040 H 
ENDBRANCH  11  14
ENDBRANCH   3  10
BRANCH   1  18
ATOM     18  C1  <0> d          -0.359   1.483   0.015  0.00  0.00    -0.035 C 
ATOM     19  H1  <0> d           0.610   1.976  -0.059  0.00  0.00     0.035 H 
ATOM     20  H2  <0> d          -0.981   1.775  -0.831  0.00  0.00     0.035 H 
ATOM     21  H3  <0> d          -0.847   1.778   0.944  0.00  0.00     0.035 H 
ENDBRANCH   1  18
TORSDOF 3
