REMARK  6 active torsions:
REMARK  status: ('A' for Active; 'I' for Inactive)
REMARK    1  A    between atoms: C1_1  and  C2_2 
REMARK    2  A    between atoms: C2_2  and  C3_3 
REMARK    3  A    between atoms: C3_3  and  O1_4 
REMARK    4  A    between atoms: O1_4  and  C4_5 
REMARK    5  A    between atoms: C4_5  and  C5_6 
REMARK    6  A    between atoms: C5_6  and  C6_7 
ROOT
ATOM      1  C3  <0> d          -1.433  -0.534   0.013  0.00  0.00     0.019 C 
ATOM      2  H6  <0> d          -1.944  -0.182   0.910  0.00  0.00     0.074 H 
ATOM      3  H7  <0> d          -1.960  -0.173  -0.870  0.00  0.00     0.074 H 
ENDROOT
BRANCH   1   4
ATOM      4  C2  <0> d           0.002  -0.004   0.002  0.00  0.00    -0.049 C 
ATOM      5  H4  <0> d           0.512  -0.356  -0.895  0.00  0.00     0.035 H 
ATOM      6  H5  <0> d           0.529  -0.365   0.885  0.00  0.00     0.035 H 
BRANCH   4   7
ATOM      7  C1  <0> d          -0.019   1.526   0.010  0.00  0.00    -0.075 C 
ATOM      8  H1  <0> d           1.004   1.903   0.003  0.00  0.00     0.027 H 
ATOM      9  H2  <0> d          -0.546   1.887  -0.873  0.00  0.00     0.027 H 
ATOM     10  H3  <0> d          -0.529   1.877   0.907  0.00  0.00     0.027 H 
ENDBRANCH   4   7
ENDBRANCH   1   4
BRANCH   1  11
ATOM     11  O1  <0> d          -1.414  -1.962   0.005  0.00  0.00    -0.391 OA
BRANCH  11  12
ATOM     12  C4  <0> d          -2.711  -2.561   0.014  0.00  0.00     0.028 C 
ATOM     13  H8  <0> d          -3.248  -2.252   0.911  0.00  0.00     0.075 H 
ATOM     14  H9  <0> d          -3.265  -2.242  -0.869  0.00  0.00     0.075 H 
BRANCH  12  15
ATOM     15  C5  <0> d          -2.570  -4.085   0.005  0.00  0.00     0.035 C 
ATOM     16  H10 <0> d          -2.033  -4.394  -0.892  0.00  0.00     0.052 H 
ATOM     17  H11 <0> d          -2.016  -4.404   0.888  0.00  0.00     0.052 H 
BRANCH  15  18
ATOM     18  C6  <0> d          -3.938  -4.716   0.014  0.00  0.00     0.174 C 
ATOM     19  O2  <0> d          -4.934  -4.013   0.028  0.00  0.00    -0.648 OA
ATOM     20  O3  <0> d          -4.049  -5.931   0.009  0.00  0.00    -0.648 OA
ENDBRANCH  15  18
ENDBRANCH  12  15
ENDBRANCH  11  12
ENDBRANCH   1  11
TORSDOF 6
