REMARK  1 active torsions:
REMARK  status: ('A' for Active; 'I' for Inactive)
REMARK    1  A    between atoms: C6_7  and  O1_14 
ROOT
ATOM      1  C1  <0> d           4.535   5.457  -1.261  0.00  0.00    -0.065 C 
ATOM      2  C2  <0> d           3.782   5.891  -0.002  0.00  0.00    -0.065 C 
ATOM      3  C3  <0> d           2.393   5.250   0.007  0.00  0.00    -0.061 C 
ATOM      4  C4  <0> d           2.534   3.726  -0.002  0.00  0.00    -0.048 C 
ATOM      5  H1  <0> d           3.088   3.407   0.881  0.00  0.00     0.040 H 
ATOM      6  C5  <0> d           1.145   3.085   0.008  0.00  0.00    -0.037 C 
ATOM      7  C6  <0> d           1.286   1.562  -0.002  0.00  0.00     0.036 C 
ATOM      8  H2  <0> d           1.840   1.243   0.881  0.00  0.00     0.082 H 
ATOM      9  C7  <0> d           2.040   1.127  -1.261  0.00  0.00    -0.041 C 
ATOM     10  C8  <0> d           3.429   1.769  -1.270  0.00  0.00    -0.059 C 
ATOM     11  C9  <0> d           3.287   3.292  -1.261  0.00  0.00    -0.051 C 
ATOM     12  H3  <0> d           2.734   3.611  -2.144  0.00  0.00     0.040 H 
ATOM     13  C10 <0> d           4.676   3.933  -1.271  0.00  0.00    -0.061 C 
ATOM     14  H4  <0> d           5.525   5.914  -1.268  0.00  0.00     0.033 H 
ATOM     15  H5  <0> d           3.981   5.776  -2.144  0.00  0.00     0.033 H 
ATOM     16  H6  <0> d           4.335   5.572   0.881  0.00  0.00     0.033 H 
ATOM     17  H7  <0> d           3.681   6.976   0.004  0.00  0.00     0.033 H 
ATOM     18  H8  <0> d           1.856   5.559   0.904  0.00  0.00     0.033 H 
ATOM     19  H9  <0> d           1.839   5.569  -0.876  0.00  0.00     0.033 H 
ATOM     20  H10 <0> d           0.591   3.404  -0.875  0.00  0.00     0.037 H 
ATOM     21  H11 <0> d           0.608   3.395   0.904  0.00  0.00     0.037 H 
ATOM     22  H12 <0> d           2.140   0.042  -1.268  0.00  0.00     0.036 H 
ATOM     23  H13 <0> d           1.486   1.446  -2.144  0.00  0.00     0.036 H 
ATOM     24  H14 <0> d           3.982   1.450  -0.388  0.00  0.00     0.033 H 
ATOM     25  H15 <0> d           3.966   1.459  -2.167  0.00  0.00     0.033 H 
ATOM     26  H16 <0> d           5.230   3.614  -0.388  0.00  0.00     0.033 H 
ATOM     27  H17 <0> d           5.213   3.624  -2.168  0.00  0.00     0.033 H 
ENDROOT
BRANCH   7  28
ATOM     28  O1  <0> d          -0.011   0.963   0.007  0.00  0.00    -0.396 OA
ATOM     29  H18 <0> d           0.002  -0.004   0.002  0.00  0.00     0.210 HD
ENDBRANCH   7  28
TORSDOF 1
