REMARK  4 active torsions:
REMARK  status: ('A' for Active; 'I' for Inactive)
REMARK    1  A    between atoms: C1_1  and  O1_2 
REMARK    2  A    between atoms: O1_2  and  C2_3 
REMARK    3  A    between atoms: C2_3  and  C3_5 
REMARK    4  A    between atoms: C6_9  and  N2_11 
ROOT
ATOM      1  C3  <0> d           2.381   1.362  -0.013  0.00  0.00     0.044 A 
ATOM      2  C4  <0> d           1.157   2.042   0.002  0.00  0.00    -0.050 A 
ATOM      3  C5  <0> d          -0.016   1.315   0.009  0.00  0.00     0.005 A 
ATOM      4  N1  <0> d           0.002  -0.004   0.002  0.00  0.00    -0.244 NA
ATOM      5  C6  <0> d           1.134  -0.689  -0.013  0.00  0.00     0.121 A 
ATOM      6  C7  <0> d           2.361  -0.034  -0.021  0.00  0.00    -0.023 A 
ATOM      7  H4  <0> d           1.131   3.121   0.008  0.00  0.00     0.087 H 
ATOM      8  H5  <0> d          -0.963   1.834   0.017  0.00  0.00     0.114 H 
ATOM      9  H6  <0> d           3.283  -0.596  -0.032  0.00  0.00     0.090 H 
ENDROOT
BRANCH   1  10
ATOM     10  C2  <0> d           3.662   2.103  -0.021  0.00  0.00     0.293 C 
ATOM     11  O2  <0> d           4.715   1.498  -0.034  0.00  0.00    -0.259 OA
BRANCH  10  12
ATOM     12  O1  <0> d           3.661   3.450  -0.014  0.00  0.00    -0.323 OA
BRANCH  12  13
ATOM     13  C1  <0> d           4.954   4.111  -0.022  0.00  0.00     0.013 C 
ATOM     14  H1  <0> d           4.810   5.191  -0.015  0.00  0.00     0.067 H 
ATOM     15  H2  <0> d           5.519   3.814   0.861  0.00  0.00     0.067 H 
ATOM     16  H3  <0> d           5.503   3.824  -0.919  0.00  0.00     0.067 H 
ENDBRANCH  12  13
ENDBRANCH  10  12
ENDBRANCH   1  10
BRANCH   5  17
ATOM     17  N2  <0> d           1.097  -2.079  -0.020  0.00  0.00    -0.384 N 
ATOM     18  H7  <0> d           0.244  -2.541  -0.015  0.00  0.00     0.157 HD
ATOM     19  H8  <0> d           1.923  -2.586  -0.031  0.00  0.00     0.157 HD
ENDBRANCH   5  17
TORSDOF 4
