REMARK  1 active torsions:
REMARK  status: ('A' for Active; 'I' for Inactive)
REMARK    1  A    between atoms: C1_1  and  C2_2 
ROOT
ATOM      1  C2  <0> d          -0.729   1.579   1.267  0.00  0.00    -0.015 C 
ATOM      2  H1  <0> d          -0.746   2.669   1.276  0.00  0.00     0.049 H 
ATOM      3  C3  <0> d           0.002   1.063   2.513  0.00  0.00    -0.057 C 
ATOM      4  C4  <0> d          -0.851   1.336   3.755  0.00  0.00    -0.061 C 
ATOM      5  C5  <0> d          -2.082   0.422   3.743  0.00  0.00    -0.038 C 
ATOM      6  C6  <0> d          -2.743   0.532   2.391  0.00  0.00    -0.015 A 
ATOM      7  C7  <0> d          -2.141   1.049   1.289  0.00  0.00     0.039 A 
ATOM      8  N1  <0> d          -3.019   0.992   0.274  0.00  0.00    -0.282 N 
ATOM      9  H2  <0> d          -2.858   1.302  -0.663  0.00  0.00     0.189 HD
ATOM     10  N2  <0> d          -4.203   0.420   0.763  0.00  0.00    -0.186 NA
ATOM     11  C8  <0> d          -4.032   0.144   2.035  0.00  0.00     0.029 A 
ATOM     12  H6  <0> d           0.170  -0.009   2.416  0.00  0.00     0.034 H 
ATOM     13  H7  <0> d           0.960   1.574   2.610  0.00  0.00     0.034 H 
ATOM     14  H8  <0> d          -0.261   1.139   4.650  0.00  0.00     0.033 H 
ATOM     15  H9  <0> d          -1.171   2.378   3.753  0.00  0.00     0.033 H 
ATOM     16  H10 <0> d          -1.776  -0.609   3.918  0.00  0.00     0.040 H 
ATOM     17  H11 <0> d          -2.780   0.736   4.519  0.00  0.00     0.040 H 
ATOM     18  H12 <0> d          -4.764  -0.304   2.691  0.00  0.00     0.118 H 
ENDROOT
BRANCH   1  19
ATOM     19  C1  <0> d          -0.013   1.086   0.008  0.00  0.00    -0.068 C 
ATOM     20  H3  <0> d           0.002  -0.004   0.002  0.00  0.00     0.028 H 
ATOM     21  H4  <0> d           1.010   1.463   0.000  0.00  0.00     0.028 H 
ATOM     22  H5  <0> d          -0.540   1.447  -0.875  0.00  0.00     0.028 H 
ENDBRANCH   1  19
TORSDOF 1
