REMARK  0 active torsions:
REMARK  status: ('A' for Active; 'I' for Inactive)
ROOT
ATOM      1  C1  <0> d          -0.017   1.386   0.010  0.00  0.00    -0.042 A 
ATOM      2  C2  <0> d           1.198   2.052   0.002  0.00  0.00     0.025 A 
ATOM      3  N1  <0> d           2.324   1.365  -0.013  0.00  0.00    -0.163 NA
ATOM      4  N2  <0> d           2.343   0.081  -0.020  0.00  0.00    -0.161 NA
ATOM      5  C3  <0> d           1.237  -0.637  -0.013  0.00  0.00     0.045 A 
ATOM      6  C4  <0> d           0.002  -0.004   0.002  0.00  0.00     0.054 A 
ATOM      7 Cl1  <0> d          -1.473  -0.919   0.012  0.00  0.00    -0.083 Cl
ATOM      8  H1  <0> d          -0.950   1.930   0.026  0.00  0.00     0.088 H 
ATOM      9  H2  <0> d           1.223   3.132   0.007  0.00  0.00     0.117 H 
ATOM     10  H3  <0> d           1.292  -1.716  -0.020  0.00  0.00     0.120 H 
ENDROOT
TORSDOF 0
