REMARK  1 active torsions:
REMARK  status: ('A' for Active; 'I' for Inactive)
REMARK    1  A    between atoms: C3_3  and  N2_8 
ROOT
ATOM      1  C1  <0> d          -2.450   3.699   0.034  0.00  0.00    -0.075 A 
ATOM      2  C2  <0> d          -1.235   3.035   0.030  0.00  0.00    -0.039 A 
ATOM      3  C3  <0> d          -1.224   1.644   0.017  0.00  0.00     0.124 A 
ATOM      4  N1  <0> d          -2.359   0.960   0.018  0.00  0.00    -0.203 NA
ATOM      5  C4  <0> d          -3.532   1.567   0.028  0.00  0.00     0.211 A 
ATOM      6  C5  <0> d          -3.616   2.948   0.036  0.00  0.00    -0.027 A 
ATOM      7  F1  <0> d          -4.664   0.829   0.029  0.00  0.00    -0.184 F 
ATOM      8  H1  <0> d          -2.488   4.778   0.040  0.00  0.00     0.083 H 
ATOM      9  H2  <0> d          -0.309   3.589   0.033  0.00  0.00     0.089 H 
ATOM     10  H3  <0> d          -4.579   3.437   0.043  0.00  0.00     0.090 H 
ENDROOT
BRANCH   3  11
ATOM     11  N2  <0> d          -0.011   0.966   0.007  0.00  0.00    -0.384 N 
ATOM     12  H4  <0> d           0.004  -0.134  -0.003  0.00  0.00     0.157 HD
ATOM     13  H5  <0> d           0.934   1.529   0.011  0.00  0.00     0.157 HD
ENDBRANCH   3  11
TORSDOF 1
