REMARK  2 active torsions:
REMARK  status: ('A' for Active; 'I' for Inactive)
REMARK    1  A    between atoms: C1_1  and  O1_2 
REMARK    2  A    between atoms: O1_2  and  C2_3 
ROOT
ATOM      1  C2  <0> d          -1.976   1.163   1.348  0.00  0.00     0.069 A 
ATOM      2  C3  <0> d          -2.589   0.361   0.389  0.00  0.00    -0.049 A 
ATOM      3  C4  <0> d          -3.896  -0.041   0.542  0.00  0.00    -0.054 A 
ATOM      4  C5  <0> d          -4.622   0.362   1.659  0.00  0.00     0.042 A 
ATOM      5  C6  <0> d          -4.007   1.177   2.627  0.00  0.00    -0.005 A 
ATOM      6  C7  <0> d          -2.678   1.574   2.463  0.00  0.00    -0.039 A 
ATOM      7  C8  <0> d          -5.022   1.420   3.655  0.00  0.00    -0.056 A 
ATOM      8  C9  <0> d          -6.134   0.773   3.271  0.00  0.00    -0.022 A 
ATOM      9  N1  <0> d          -5.915   0.135   2.081  0.00  0.00    -0.365 N 
ATOM     10  H1  <0> d          -6.571  -0.398   1.605  0.00  0.00     0.165 HD
ATOM     11  H5  <0> d          -2.032   0.048  -0.482  0.00  0.00     0.087 H 
ATOM     12  H6  <0> d          -4.360  -0.667  -0.205  0.00  0.00     0.087 H 
ATOM     13  H7  <0> d          -2.203   2.199   3.204  0.00  0.00     0.089 H 
ATOM     14  H8  <0> d          -4.899   2.008   4.552  0.00  0.00     0.086 H 
ATOM     15  H9  <0> d          -7.063   0.758   3.820  0.00  0.00     0.111 H 
ENDROOT
BRANCH   1  16
ATOM     16  O1  <0> d          -0.682   1.547   1.184  0.00  0.00    -0.356 OA
BRANCH  16  17
ATOM     17  C1  <0> d          -0.013   1.086   0.008  0.00  0.00     0.010 C 
ATOM     18  H2  <0> d           0.002  -0.004   0.002  0.00  0.00     0.066 H 
ATOM     19  H3  <0> d           1.010   1.463   0.000  0.00  0.00     0.066 H 
ATOM     20  H4  <0> d          -0.540   1.447  -0.875  0.00  0.00     0.066 H 
ENDBRANCH  16  17
ENDBRANCH   1  16
TORSDOF 2
