REMARK  3 active torsions:
REMARK  status: ('A' for Active; 'I' for Inactive)
REMARK    1  A    between atoms: C2_2  and  C3_3 
REMARK    2  A    between atoms: C3_3  and  C4_4 
REMARK    3  A    between atoms: C4_4  and  C5_6 
ROOT
ATOM      1  C4  <0> d          -1.318  -1.726  -1.159  0.00  0.00     0.169 C 
ATOM      2  O1  <0> d          -0.377  -1.773  -1.924  0.00  0.00    -0.291 OA
ENDROOT
BRANCH   1   3
ATOM      3  C3  <0> d          -1.293  -0.775   0.010  0.00  0.00     0.010 C 
ATOM      4  H4  <0> d          -1.374  -1.339   0.939  0.00  0.00     0.050 H 
ATOM      5  H5  <0> d          -2.130  -0.081  -0.068  0.00  0.00     0.050 H 
BRANCH   3   6
ATOM      6  C2  <0> d           0.002  -0.004   0.002  0.00  0.00    -0.105 C 
ATOM      7  C1  <0> d          -0.016   1.306   0.009  0.00  0.00    -0.124 C 
ATOM      8  H1  <0> d           0.912   1.859   0.003  0.00  0.00     0.066 H 
ATOM      9  H2  <0> d          -0.958   1.833   0.017  0.00  0.00     0.066 H 
ATOM     10  H3  <0> d           0.945  -0.531  -0.010  0.00  0.00     0.076 H 
ENDBRANCH   3   6
ENDBRANCH   1   3
BRANCH   1  11
ATOM     11  C5  <0> d          -2.438  -2.563  -1.364  0.00  0.00     0.051 A 
ATOM     12  S1  <0> d          -3.934  -2.694  -0.404  0.00  0.00    -0.098 SA
ATOM     13  C8  <0> d          -4.722  -3.878  -1.298  0.00  0.00    -0.044 A 
ATOM     14  C7  <0> d          -3.855  -4.170  -2.302  0.00  0.00    -0.075 A 
ATOM     15  H8  <0> d          -5.694  -4.311  -1.114  0.00  0.00     0.095 H 
ATOM     16  C6  <0> d          -2.658  -3.504  -2.365  0.00  0.00    -0.062 A 
ATOM     17  H7  <0> d          -4.105  -4.918  -3.040  0.00  0.00     0.084 H 
ATOM     18  H6  <0> d          -1.933  -3.698  -3.142  0.00  0.00     0.085 H 
ENDBRANCH   1  11
TORSDOF 3
