REMARK  3 active torsions:
REMARK  status: ('A' for Active; 'I' for Inactive)
REMARK    1  A    between atoms: C1_1  and  C3_4 
REMARK    2  A    between atoms: C3_4  and  C4_5 
REMARK    3  A    between atoms: C3_4  and  O1_8 
ROOT
ATOM      1  C1  <0> d          -0.753   1.593  -1.232  0.00  0.00     0.039 C 
ATOM      2  C2  <0> d          -0.136   1.021  -2.439  0.00  0.00     0.061 C 
ATOM      3  N1  <0> d           0.340   0.579  -3.372  0.00  0.00    -0.197 NA
ATOM      4  H1  <0> d          -1.798   1.290  -1.179  0.00  0.00     0.058 H 
ATOM      5  H2  <0> d          -0.691   2.680  -1.272  0.00  0.00     0.058 H 
ENDROOT
BRANCH   1   6
ATOM      6  C3  <0> d          -0.013   1.086   0.008  0.00  0.00     0.059 C 
ATOM      7  H3  <0> d           0.002  -0.004   0.002  0.00  0.00     0.085 H 
BRANCH   6   8
ATOM      8  C4  <0> d          -0.729   1.579   1.267  0.00  0.00     0.039 C 
ATOM      9  C5  <0> d          -0.089   0.994   2.457  0.00  0.00     0.061 C 
ATOM     10  N2  <0> d           0.405   0.543   3.375  0.00  0.00    -0.197 NA
ATOM     11  H4  <0> d          -0.666   2.666   1.318  0.00  0.00     0.058 H 
ATOM     12  H5  <0> d          -1.776   1.277   1.232  0.00  0.00     0.058 H 
ENDBRANCH   6   8
BRANCH   6  13
ATOM     13  O1  <0> d           1.328   1.580  -0.002  0.00  0.00    -0.394 OA
ATOM     14  H6  <0> d           1.391   2.545   0.002  0.00  0.00     0.210 HD
ENDBRANCH   6  13
ENDBRANCH   1   6
TORSDOF 3
