REMARK  2 active torsions:
REMARK  status: ('A' for Active; 'I' for Inactive)
REMARK    1  A    between atoms: C2_2  and  C4_7 
REMARK    2  A    between atoms: C3_4  and  N2_6 
ROOT
ATOM      1  C1  <0> d          -2.678   3.255   0.034  0.00  0.00     0.057 A 
ATOM      2  C2  <0> d          -3.340   2.067   0.030  0.00  0.00     0.159 A 
ATOM      3  N1  <0> d          -2.398   1.081   0.019  0.00  0.00    -0.200 NA
ATOM      4  C3  <0> d          -1.216   1.640   0.017  0.00  0.00     0.244 A 
ATOM      5  O1  <0> d          -1.362   2.975   0.030  0.00  0.00    -0.288 OA
ATOM      6  H1  <0> d          -3.124   4.238   0.042  0.00  0.00     0.127 H 
ENDROOT
BRANCH   2   7
ATOM      7  C4  <0> d          -4.800   1.881   0.036  0.00  0.00     0.231 C 
ATOM      8  O2  <0> d          -5.536   2.849   0.045  0.00  0.00    -0.643 OA
ATOM      9  O3  <0> d          -5.321   0.638   0.031  0.00  0.00    -0.643 OA
ENDBRANCH   2   7
BRANCH   4  10
ATOM     10  N2  <0> d          -0.011   0.966   0.007  0.00  0.00    -0.363 N 
ATOM     11  H2  <0> d           0.934   1.529   0.006  0.00  0.00     0.159 HD
ATOM     12  H3  <0> d           0.004  -0.134   0.002  0.00  0.00     0.159 HD
ENDBRANCH   4  10
TORSDOF 2
