REMARK  8 active torsions:
REMARK  status: ('A' for Active; 'I' for Inactive)
REMARK    1  A    between atoms: C1_1  and  C2_2 
REMARK    2  A    between atoms: C2_2  and  C3_3 
REMARK    3  A    between atoms: C3_3  and  C4_5 
REMARK    4  A    between atoms: C3_3  and  C5_6 
REMARK    5  A    between atoms: C5_6  and  C6_7 
REMARK    6  A    between atoms: C6_7  and  O2_9 
REMARK    7  A    between atoms: O2_9  and  C7_10 
REMARK    8  A    between atoms: C7_10  and  C8_11 
ROOT
ATOM      1  C3  <0> d          -2.164   1.050   1.278  0.00  0.00    -0.050 C 
ATOM      2  H1  <0> d          -2.152  -0.036   1.182  0.00  0.00     0.040 H 
ENDROOT
BRANCH   1   3
ATOM      3  C2  <0> d          -0.729   1.579   1.267  0.00  0.00    -0.065 C 
ATOM      4  H5  <0> d          -0.202   1.218   2.150  0.00  0.00     0.033 H 
ATOM      5  H6  <0> d          -0.744   2.669   1.273  0.00  0.00     0.033 H 
BRANCH   3   6
ATOM      6  C1  <0> d          -0.013   1.086   0.008  0.00  0.00    -0.076 C 
ATOM      7  H2  <0> d           0.002  -0.004   0.002  0.00  0.00     0.027 H 
ATOM      8  H3  <0> d           1.010   1.463   0.000  0.00  0.00     0.027 H 
ATOM      9  H4  <0> d          -0.540   1.447  -0.875  0.00  0.00     0.027 H 
ENDBRANCH   3   6
ENDBRANCH   1   3
BRANCH   1  10
ATOM     10  C4  <0> d          -2.940   1.656   0.107  0.00  0.00    -0.072 C 
ATOM     11  H7  <0> d          -3.963   1.278   0.114  0.00  0.00     0.028 H 
ATOM     12  H8  <0> d          -2.953   2.741   0.202  0.00  0.00     0.028 H 
ATOM     13  H9  <0> d          -2.458   1.379  -0.831  0.00  0.00     0.028 H 
ENDBRANCH   1  10
BRANCH   1  14
ATOM     14  C5  <0> d          -2.841   1.438   2.594  0.00  0.00     0.019 C 
ATOM     15  H10 <0> d          -2.240   1.082   3.430  0.00  0.00     0.048 H 
ATOM     16  H11 <0> d          -2.934   2.523   2.648  0.00  0.00     0.048 H 
BRANCH  14  17
ATOM     17  C6  <0> d          -4.211   0.813   2.657  0.00  0.00     0.259 C 
ATOM     18  O1  <0> d          -4.606   0.128   1.744  0.00  0.00    -0.265 OA
BRANCH  17  19
ATOM     19  O2  <0> d          -4.993   1.018   3.729  0.00  0.00    -0.322 OA
BRANCH  19  20
ATOM     20  C7  <0> d          -6.300   0.386   3.722  0.00  0.00     0.025 C 
ATOM     21  H12 <0> d          -6.873   0.746   2.868  0.00  0.00     0.074 H 
ATOM     22  H13 <0> d          -6.180  -0.695   3.650  0.00  0.00     0.074 H 
BRANCH  20  23
ATOM     23  C8  <0> d          -7.041   0.731   5.015  0.00  0.00    -0.056 C 
ATOM     24  H14 <0> d          -8.022   0.256   5.010  0.00  0.00     0.030 H 
ATOM     25  H15 <0> d          -6.467   0.371   5.870  0.00  0.00     0.030 H 
ATOM     26  H16 <0> d          -7.161   1.812   5.088  0.00  0.00     0.030 H 
ENDBRANCH  20  23
ENDBRANCH  19  20
ENDBRANCH  17  19
ENDBRANCH  14  17
ENDBRANCH   1  14
TORSDOF 8
