REMARK  5 active torsions:
REMARK  status: ('A' for Active; 'I' for Inactive)
REMARK    1  A    between atoms: C1_1  and  C2_2 
REMARK    2  A    between atoms: C2_2  and  O3_10 
REMARK    3  A    between atoms: C5_5  and  O2_8 
REMARK    4  A    between atoms: O2_8  and  C6_9 
REMARK    5  A    between atoms: O3_10  and  C7_11 
ROOT
ATOM      1  C2  <0> d          -2.037   1.106   1.292  0.00  0.00     0.182 C 
ATOM      2  C3  <0> d          -2.659   1.641   2.561  0.00  0.00    -0.043 C 
ATOM      3  C4  <0> d          -3.343   0.673   3.126  0.00  0.00    -0.050 C 
ATOM      4  C5  <0> d          -3.217  -0.564   2.267  0.00  0.00     0.151 C 
ATOM      5  H1  <0> d          -3.039  -1.440   2.892  0.00  0.00     0.136 H 
ATOM      6  O1  <0> d          -2.085  -0.329   1.408  0.00  0.00    -0.319 OA
ATOM      7  H5  <0> d          -2.559   2.647   2.939  0.00  0.00     0.085 H 
ATOM      8  H6  <0> d          -3.901   0.748   4.048  0.00  0.00     0.084 H 
ENDROOT
BRANCH   1   9
ATOM      9  C1  <0> d          -2.840   1.567   0.074  0.00  0.00    -0.022 C 
ATOM     10  H2  <0> d          -2.393   1.159  -0.832  0.00  0.00     0.035 H 
ATOM     11  H3  <0> d          -3.868   1.214   0.163  0.00  0.00     0.035 H 
ATOM     12  H4  <0> d          -2.833   2.656   0.025  0.00  0.00     0.035 H 
ENDBRANCH   1   9
BRANCH   1  13
ATOM     13  O3  <0> d          -0.682   1.547   1.184  0.00  0.00    -0.357 OA
BRANCH  13  14
ATOM     14  C7  <0> d          -0.013   1.086   0.008  0.00  0.00     0.008 C 
ATOM     15  H10 <0> d           0.002  -0.004   0.002  0.00  0.00     0.066 H 
ATOM     16  H11 <0> d           1.010   1.463   0.000  0.00  0.00     0.066 H 
ATOM     17  H12 <0> d          -0.540   1.447  -0.875  0.00  0.00     0.066 H 
ENDBRANCH  13  14
ENDBRANCH   1  13
BRANCH   4  18
ATOM     18  O2  <0> d          -4.401  -0.747   1.488  0.00  0.00    -0.363 OA
BRANCH  18  19
ATOM     19  C6  <0> d          -4.451  -1.993   0.791  0.00  0.00     0.007 C 
ATOM     20  H7  <0> d          -5.380  -2.055   0.223  0.00  0.00     0.066 H 
ATOM     21  H8  <0> d          -3.603  -2.063   0.109  0.00  0.00     0.066 H 
ATOM     22  H9  <0> d          -4.409  -2.813   1.508  0.00  0.00     0.066 H 
ENDBRANCH  18  19
ENDBRANCH   4  18
TORSDOF 5
