REMARK  1 active torsions:
REMARK  status: ('A' for Active; 'I' for Inactive)
REMARK    1  A    between atoms: C4_5  and  C8_11 
REMARK       I    between atoms: C8_11  and  N1_13 
ROOT
ATOM      1  C1  <0> d          -3.786   2.160   1.564  0.00  0.00    -0.051 C 
ATOM      2  C2  <0> d          -3.933   0.650   1.976  0.00  0.00    -0.037 C 
ATOM      3  H1  <0> d          -4.100   0.446   3.034  0.00  0.00     0.046 H 
ATOM      4  C3  <0> d          -2.639   0.055   1.336  0.00  0.00    -0.047 C 
ATOM      5  C4  <0> d          -2.482   0.853   0.018  0.00  0.00     0.030 C 
ATOM      6  H2  <0> d          -2.531   0.187  -0.843  0.00  0.00     0.055 H 
ATOM      7  C5  <0> d          -3.702   1.828   0.029  0.00  0.00    -0.026 C 
ATOM      8  H3  <0> d          -3.654   2.668  -0.663  0.00  0.00     0.047 H 
ATOM      9  C6  <0> d          -4.919   0.904  -0.104  0.00  0.00    -0.101 C 
ATOM     10  C7  <0> d          -5.052   0.226   1.017  0.00  0.00    -0.102 C 
ATOM     11  H4  <0> d          -2.869   2.609   1.945  0.00  0.00     0.035 H 
ATOM     12  H5  <0> d          -4.667   2.750   1.816  0.00  0.00     0.035 H 
ATOM     13  H6  <0> d          -2.767  -1.007   1.129  0.00  0.00     0.035 H 
ATOM     14  H7  <0> d          -1.780   0.218   1.987  0.00  0.00     0.035 H 
ATOM     15  H8  <0> d          -5.559   0.824  -0.971  0.00  0.00     0.077 H 
ATOM     16  H9  <0> d          -5.819  -0.505   1.226  0.00  0.00     0.076 H 
ENDROOT
BRANCH   5  17
ATOM     17  C8  <0> d          -1.187   1.624   0.017  0.00  0.00     0.220 C 
ATOM     18  O1  <0> d          -1.204   2.837   0.023  0.00  0.00    -0.273 OA
ATOM     19  N1  <0> d          -0.011   0.966   0.007  0.00  0.00    -0.370 N 
ATOM     20  H10 <0> d           0.002  -0.004   0.002  0.00  0.00     0.159 HD
ATOM     21  H11 <0> d           0.822   1.462   0.002  0.00  0.00     0.159 HD
ENDBRANCH   5  17
TORSDOF 1
