REMARK  3 active torsions:
REMARK  status: ('A' for Active; 'I' for Inactive)
REMARK    1  A    between atoms: C1_1  and  C2_2 
REMARK    2  A    between atoms: C2_2  and  C3_3 
REMARK    3  A    between atoms: C4_4  and  C5_5 
ROOT
ATOM      1  C3  <0> d           0.707  -0.490  -1.238  0.00  0.00    -0.107 C 
ATOM      2  C4  <0> d           1.725  -1.309  -1.134  0.00  0.00    -0.110 C 
ATOM      3  H6  <0> d           0.374  -0.163  -2.212  0.00  0.00     0.076 H 
ATOM      4  H7  <0> d           2.230  -1.657  -2.023  0.00  0.00     0.075 H 
ENDROOT
BRANCH   1   5
ATOM      5  C2  <0> d           0.002  -0.004   0.002  0.00  0.00    -0.053 C 
ATOM      6  H4  <0> d           0.529  -0.365   0.885  0.00  0.00     0.038 H 
ATOM      7  H5  <0> d          -1.020  -0.381   0.010  0.00  0.00     0.038 H 
BRANCH   5   8
ATOM      8  C1  <0> d          -0.019   1.526   0.010  0.00  0.00    -0.073 C 
ATOM      9  H1  <0> d           1.004   1.903   0.003  0.00  0.00     0.027 H 
ATOM     10  H2  <0> d          -0.546   1.887  -0.873  0.00  0.00     0.027 H 
ATOM     11  H3  <0> d          -0.529   1.877   0.907  0.00  0.00     0.027 H 
ENDBRANCH   5   8
ENDBRANCH   1   5
BRANCH   2  12
ATOM     12  C5  <0> d           2.190  -1.765   0.225  0.00  0.00    -0.060 C 
ATOM     13  H8  <0> d           2.487  -0.899   0.816  0.00  0.00     0.032 H 
ATOM     14  H9  <0> d           1.378  -2.288   0.730  0.00  0.00     0.032 H 
ATOM     15  H10 <0> d           3.041  -2.437   0.111  0.00  0.00     0.032 H 
ENDBRANCH   2  12
TORSDOF 3
