REMARK  4 active torsions:
REMARK  status: ('A' for Active; 'I' for Inactive)
REMARK    1  A    between atoms: C1_1  and  C2_2 
REMARK    2  A    between atoms: C2_2  and  C3_3 
REMARK    3  A    between atoms: C6_7  and  C8_11 
REMARK    4  A    between atoms: C8_11  and  C9_12 
ROOT
ATOM      1  C3  <0> d          -1.433  -0.534   0.013  0.00  0.00     0.004 C 
ATOM      2  H1  <0> d          -1.921  -0.159   0.802  0.00  0.00     0.051 H 
ATOM      3  C4  <0> d          -1.438  -2.082   0.042  0.00  0.00    -0.055 C 
ATOM      4  C5  <0> d          -2.827  -2.420  -0.558  0.00  0.00    -0.055 C 
ATOM      5  C6  <0> d          -3.024  -1.350  -1.652  0.00  0.00     0.004 C 
ATOM      6  H2  <0> d          -2.764  -1.730  -2.540  0.00  0.00     0.051 H 
ATOM      7  C7  <0> d          -2.140  -0.177  -1.283  0.00  0.00     0.135 C 
ATOM      8  O1  <0> d          -2.019   0.852  -1.904  0.00  0.00    -0.297 OA
ATOM      9  H8  <0> d          -0.639  -2.484  -0.581  0.00  0.00     0.034 H 
ATOM     10  H9  <0> d          -1.358  -2.451   1.064  0.00  0.00     0.034 H 
ATOM     11  H10 <0> d          -3.603  -2.337   0.203  0.00  0.00     0.034 H 
ATOM     12  H11 <0> d          -2.822  -3.418  -0.996  0.00  0.00     0.034 H 
ENDROOT
BRANCH   1  13
ATOM     13  C2  <0> d           0.002  -0.004   0.002  0.00  0.00    -0.059 C 
ATOM     14  H6  <0> d           0.512  -0.356  -0.895  0.00  0.00     0.033 H 
ATOM     15  H7  <0> d           0.529  -0.365   0.885  0.00  0.00     0.033 H 
BRANCH  13  16
ATOM     16  C1  <0> d          -0.019   1.526   0.010  0.00  0.00    -0.076 C 
ATOM     17  H3  <0> d           1.004   1.903   0.003  0.00  0.00     0.027 H 
ATOM     18  H4  <0> d          -0.546   1.887  -0.873  0.00  0.00     0.027 H 
ATOM     19  H5  <0> d          -0.529   1.877   0.907  0.00  0.00     0.027 H 
ENDBRANCH  13  16
ENDBRANCH   1  13
BRANCH   5  20
ATOM     20  C8  <0> d          -4.488  -0.908  -1.694  0.00  0.00    -0.059 C 
ATOM     21  H12 <0> d          -5.126  -1.779  -1.847  0.00  0.00     0.033 H 
ATOM     22  H13 <0> d          -4.750  -0.427  -0.751  0.00  0.00     0.033 H 
BRANCH  20  23
ATOM     23  C9  <0> d          -4.690   0.080  -2.844  0.00  0.00    -0.076 C 
ATOM     24  H14 <0> d          -5.733   0.394  -2.874  0.00  0.00     0.027 H 
ATOM     25  H15 <0> d          -4.053   0.951  -2.691  0.00  0.00     0.027 H 
ATOM     26  H16 <0> d          -4.429  -0.401  -3.787  0.00  0.00     0.027 H 
ENDBRANCH  20  23
ENDBRANCH   5  20
TORSDOF 4
