REMARK  2 active torsions:
REMARK  status: ('A' for Active; 'I' for Inactive)
REMARK    1  A    between atoms: C2_2  and  C5_10 
REMARK    2  A    between atoms: C4_8  and  N3_9 
ROOT
ATOM      1  C1  <0> d          -0.017   1.415   0.010  0.00  0.00    -0.006 A 
ATOM      2  C2  <0> d           1.167   2.087   0.002  0.00  0.00     0.117 A 
ATOM      3  N1  <0> d           2.340   1.372  -0.013  0.00  0.00    -0.301 N 
ATOM      4  H1  <0> d           3.190   1.839  -0.018  0.00  0.00     0.171 HD
ATOM      5  C3  <0> d           2.314   0.027  -0.019  0.00  0.00     0.348 A 
ATOM      6  O1  <0> d           3.365  -0.592  -0.032  0.00  0.00    -0.245 OA
ATOM      7  N2  <0> d           1.160  -0.643  -0.012  0.00  0.00    -0.177 NA
ATOM      8  C4  <0> d           0.002  -0.004   0.002  0.00  0.00     0.129 A 
ATOM      9  H2  <0> d          -0.954   1.951   0.026  0.00  0.00     0.093 H 
ENDROOT
BRANCH   2  10
ATOM     10  C5  <0> d           1.190   3.568   0.009  0.00  0.00     0.227 C 
ATOM     11  O2  <0> d           0.141   4.196   0.022  0.00  0.00    -0.643 OA
ATOM     12  O3  <0> d           2.257   4.163   0.002  0.00  0.00    -0.643 OA
ENDBRANCH   2  10
BRANCH   8  13
ATOM     13  N3  <0> d          -1.176  -0.710   0.010  0.00  0.00    -0.384 N 
ATOM     14  H3  <0> d          -2.024  -0.239   0.021  0.00  0.00     0.157 HD
ATOM     15  H4  <0> d          -1.161  -1.680   0.005  0.00  0.00     0.157 HD
ENDBRANCH   8  13
TORSDOF 2
