REMARK  1 active torsions:
REMARK  status: ('A' for Active; 'I' for Inactive)
REMARK    1  A    between atoms: C8_9  and  N1_10 
ROOT
ATOM      1  C1  <0> d           3.845   3.147  -0.018  0.00  0.00    -0.056 A 
ATOM      2  C2  <0> d           3.670   1.778  -0.024  0.00  0.00    -0.064 A 
ATOM      3  C3  <0> d           2.396   1.252  -0.014  0.00  0.00     0.015 A 
ATOM      4  C4  <0> d           1.243   2.067   0.001  0.00  0.00    -0.017 A 
ATOM      5  C5  <0> d          -0.016   1.337   0.009  0.00  0.00    -0.065 A 
ATOM      6  C6  <0> d           0.002  -0.004   0.002  0.00  0.00    -0.043 A 
ATOM      7  S1  <0> d           1.741  -0.397  -0.017  0.00  0.00    -0.101 SA
ATOM      8  C7  <0> d           1.454   3.466   0.006  0.00  0.00    -0.046 A 
ATOM      9  C8  <0> d           2.729   3.982  -0.003  0.00  0.00     0.026 A 
ATOM     10  H1  <0> d           4.840   3.568  -0.026  0.00  0.00     0.086 H 
ATOM     11  H2  <0> d           4.527   1.122  -0.036  0.00  0.00     0.085 H 
ATOM     12  H3  <0> d          -0.956   1.869   0.017  0.00  0.00     0.085 H 
ATOM     13  H4  <0> d          -0.837  -0.684   0.006  0.00  0.00     0.095 H 
ATOM     14  H5  <0> d           0.606   4.135   0.018  0.00  0.00     0.088 H 
ENDROOT
BRANCH   9  15
ATOM     15  N1  <0> d           2.909   5.370   0.002  0.00  0.00    -0.399 N 
ATOM     16  H6  <0> d           3.804   5.743  -0.004  0.00  0.00     0.156 HD
ATOM     17  H7  <0> d           2.138   5.959   0.013  0.00  0.00     0.156 HD
ENDBRANCH   9  15
TORSDOF 1
