REMARK  5 active torsions:
REMARK  status: ('A' for Active; 'I' for Inactive)
REMARK    1  A    between atoms: C1_1  and  C2_2 
REMARK    2  A    between atoms: C2_2  and  C3_4 
REMARK    3  A    between atoms: C2_2  and  C9_10 
REMARK    4  A    between atoms: C9_10  and  C10_12 
REMARK    5  A    between atoms: C9_10  and  O1_13 
ROOT
ATOM      1  C3  <0> d          -0.079  -0.008   2.431  0.00  0.00    -0.049 C 
ATOM      2  C4  <0> d          -0.198   1.516   2.361  0.00  0.00    -0.061 C 
ATOM      3  C5  <0> d          -1.019   2.018   3.550  0.00  0.00    -0.065 C 
ATOM      4  C6  <0> d          -0.324   1.621   4.854  0.00  0.00    -0.065 C 
ATOM      5  C7  <0> d          -0.204   0.097   4.924  0.00  0.00    -0.065 C 
ATOM      6  C8  <0> d           0.617  -0.406   3.735  0.00  0.00    -0.061 C 
ATOM      7  H6  <0> d          -1.083  -0.457   2.399  0.00  0.00     0.040 H 
ATOM      8  H7  <0> d           0.806   1.964   2.392  0.00  0.00     0.033 H 
ATOM      9  H8  <0> d          -0.698   1.801   1.423  0.00  0.00     0.033 H 
ATOM     10  H9  <0> d          -1.105   3.114   3.499  0.00  0.00     0.033 H 
ATOM     11  H10 <0> d          -2.023   1.570   3.518  0.00  0.00     0.033 H 
ATOM     12  H11 <0> d           0.680   2.069   4.885  0.00  0.00     0.033 H 
ATOM     13  H12 <0> d          -0.914   1.982   5.709  0.00  0.00     0.033 H 
ATOM     14  H13 <0> d           0.296  -0.189   5.861  0.00  0.00     0.033 H 
ATOM     15  H14 <0> d          -1.208  -0.351   4.893  0.00  0.00     0.033 H 
ATOM     16  H15 <0> d           0.702  -1.501   3.785  0.00  0.00     0.033 H 
ATOM     17  H16 <0> d           1.621   0.043   3.766  0.00  0.00     0.033 H 
ENDROOT
BRANCH   1  18
ATOM     18  C2  <0> d           0.742  -0.511   1.242  0.00  0.00    -0.030 C 
ATOM     19  H1  <0> d           0.295  -0.143   0.306  0.00  0.00     0.043 H 
BRANCH  18  20
ATOM     20  C1  <0> d           2.178   0.005   1.358  0.00  0.00    -0.070 C 
ATOM     21  H3  <0> d           2.768  -0.356   0.503  0.00  0.00     0.028 H 
ATOM     22  H4  <0> d           2.625  -0.363   2.294  0.00  0.00     0.028 H 
ATOM     23  H5  <0> d           2.173   1.105   1.362  0.00  0.00     0.028 H 
ENDBRANCH  18  20
BRANCH  18  24
ATOM     24  C9  <0> d           0.749  -2.041   1.237  0.00  0.00     0.035 C 
ATOM     25  H2  <0> d           1.224  -2.441   2.145  0.00  0.00     0.082 H 
BRANCH  24  26
ATOM     26  C10 <0> d           1.453  -2.544  -0.025  0.00  0.00    -0.052 C 
ATOM     27  H17 <0> d           1.458  -3.644  -0.028  0.00  0.00     0.030 H 
ATOM     28  H18 <0> d           2.488  -2.173  -0.040  0.00  0.00     0.030 H 
ATOM     29  H19 <0> d           0.919  -2.177  -0.914  0.00  0.00     0.030 H 
ENDBRANCH  24  26
BRANCH  24  30
ATOM     30  O1  <0> d          -0.596  -2.523   1.256  0.00  0.00    -0.396 OA
ATOM     31  H20 <0> d          -0.792  -3.606   1.256  0.00  0.00     0.210 HD
ENDBRANCH  24  30
ENDBRANCH  18  24
ENDBRANCH   1  18
TORSDOF 5
