REMARK  0 active torsions:
REMARK  status: ('A' for Active; 'I' for Inactive)
ROOT
ATOM      1  C1  <0> d          -0.016   1.337   0.009  0.00  0.00     0.036 A 
ATOM      2  C2  <0> d           1.260   1.772  -0.001  0.00  0.00     0.098 A 
ATOM      3  N1  <0> d           2.056   0.658  -0.014  0.00  0.00    -0.344 N 
ATOM      4  H1  <0> d           3.026   0.645  -0.023  0.00  0.00     0.167 HD
ATOM      5  C3  <0> d           1.240  -0.418  -0.012  0.00  0.00     0.064 A 
ATOM      6  N2  <0> d           0.002  -0.004   0.002  0.00  0.00    -0.253 NA
ATOM      7 Br1  <0> d           1.838   3.572   0.003  0.00  0.00    -0.030 Br
ATOM      8  H2  <0> d          -0.898   1.960   0.025  0.00  0.00     0.119 H 
ATOM      9  H3  <0> d           1.558  -1.450  -0.021  0.00  0.00     0.143 H 
ENDROOT
TORSDOF 0
