REMARK  5 active torsions:
REMARK  status: ('A' for Active; 'I' for Inactive)
REMARK    1  A    between atoms: C1_1  and  C2_2 
REMARK    2  A    between atoms: C4_4  and  C10_11 
REMARK    3  A    between atoms: C5_5  and  C9_10 
REMARK    4  A    between atoms: C6_6  and  N1_9 
REMARK    5  A    between atoms: C7_7  and  C8_8 
ROOT
ATOM      1  C2  <0> d          -2.458   3.708   0.035  0.00  0.00    -0.053 A 
ATOM      2  C3  <0> d          -3.645   2.998   0.037  0.00  0.00    -0.070 A 
ATOM      3  C4  <0> d          -3.628   1.616   0.029  0.00  0.00    -0.053 A 
ATOM      4  C5  <0> d          -2.424   0.938   0.019  0.00  0.00    -0.029 A 
ATOM      5  C6  <0> d          -1.230   1.648   0.017  0.00  0.00     0.038 A 
ATOM      6  C7  <0> d          -1.251   3.037   0.030  0.00  0.00    -0.029 A 
ATOM      7  H4  <0> d          -4.587   3.526   0.044  0.00  0.00     0.085 H 
ENDROOT
BRANCH   1   8
ATOM      8  C1  <0> d          -2.481   5.214   0.044  0.00  0.00    -0.051 C 
ATOM      9  H1  <0> d          -2.482   5.572   1.073  0.00  0.00     0.033 H 
ATOM     10  H2  <0> d          -1.599   5.595  -0.472  0.00  0.00     0.033 H 
ATOM     11  H3  <0> d          -3.379   5.567  -0.464  0.00  0.00     0.033 H 
ENDBRANCH   1   8
BRANCH   6  12
ATOM     12  C8  <0> d           0.043   3.810   0.035  0.00  0.00    -0.049 C 
ATOM     13  H5  <0> d           0.352   4.007  -0.992  0.00  0.00     0.033 H 
ATOM     14  H6  <0> d          -0.101   4.755   0.558  0.00  0.00     0.033 H 
ATOM     15  H7  <0> d           0.812   3.228   0.541  0.00  0.00     0.033 H 
ENDBRANCH   6  12
BRANCH   5  16
ATOM     16  N1  <0> d          -0.011   0.966   0.007  0.00  0.00    -0.398 N 
ATOM     17  H8  <0> d           0.002  -0.004   0.002  0.00  0.00     0.156 HD
ATOM     18  H9  <0> d           0.822   1.462   0.002  0.00  0.00     0.156 HD
ENDBRANCH   5  16
BRANCH   3  19
ATOM     19  C10 <0> d          -4.924   0.847   0.031  0.00  0.00    -0.051 C 
ATOM     20  H13 <0> d          -5.231   0.656   1.059  0.00  0.00     0.033 H 
ATOM     21  H14 <0> d          -5.693   1.430  -0.476  0.00  0.00     0.033 H 
ATOM     22  H15 <0> d          -4.785  -0.101  -0.489  0.00  0.00     0.033 H 
ENDBRANCH   3  19
BRANCH   4  23
ATOM     23  C9  <0> d          -2.407  -0.569   0.009  0.00  0.00    -0.049 C 
ATOM     24  H10 <0> d          -2.397  -0.938   1.035  0.00  0.00     0.033 H 
ATOM     25  H11 <0> d          -3.295  -0.939  -0.502  0.00  0.00     0.033 H 
ATOM     26  H12 <0> d          -1.516  -0.918  -0.511  0.00  0.00     0.033 H 
ENDBRANCH   4  23
TORSDOF 5
