REMARK  3 active torsions:
REMARK  status: ('A' for Active; 'I' for Inactive)
REMARK    1  A    between atoms: C1_1  and  C2_2 
REMARK    2  A    between atoms: C2_2  and  O1_3 
REMARK    3  A    between atoms: O1_3  and  C3_4 
ROOT
ATOM      1  C3  <0> d          -1.228   2.025   0.019  0.00  0.00     0.146 A 
ATOM      2  C4  <0> d          -1.242   3.413   0.032  0.00  0.00     0.152 A 
ATOM      3  C5  <0> d          -0.050   4.117   0.024  0.00  0.00    -0.043 A 
ATOM      4  C6  <0> d           1.154   3.438   0.009  0.00  0.00    -0.077 A 
ATOM      5  C7  <0> d           1.172   2.056   0.002  0.00  0.00    -0.043 A 
ATOM      6  C8  <0> d          -0.016   1.347   0.009  0.00  0.00     0.152 A 
ATOM      7  F1  <0> d           0.002  -0.004   0.002  0.00  0.00    -0.203 F 
ATOM      8  F2  <0> d          -2.419   4.077   0.046  0.00  0.00    -0.203 F 
ATOM      9  H6  <0> d          -0.061   5.197   0.029  0.00  0.00     0.088 H 
ATOM     10  H7  <0> d           2.083   3.989   0.003  0.00  0.00     0.083 H 
ATOM     11  H8  <0> d           2.115   1.528  -0.010  0.00  0.00     0.088 H 
ENDROOT
BRANCH   1  12
ATOM     12  O1  <0> d          -2.397   1.331   0.021  0.00  0.00    -0.346 OA
BRANCH  12  13
ATOM     13  C2  <0> d          -2.949   0.994   1.295  0.00  0.00     0.023 C 
ATOM     14  H4  <0> d          -2.241   0.374   1.845  0.00  0.00     0.074 H 
ATOM     15  H5  <0> d          -3.149   1.905   1.858  0.00  0.00     0.074 H 
BRANCH  13  16
ATOM     16  C1  <0> d          -4.255   0.221   1.096  0.00  0.00    -0.056 C 
ATOM     17  H1  <0> d          -4.963   0.840   0.546  0.00  0.00     0.030 H 
ATOM     18  H2  <0> d          -4.055  -0.691   0.533  0.00  0.00     0.030 H 
ATOM     19  H3  <0> d          -4.676  -0.037   2.068  0.00  0.00     0.030 H 
ENDBRANCH  13  16
ENDBRANCH  12  13
ENDBRANCH   1  12
TORSDOF 3
