REMARK  3 active torsions:
REMARK  status: ('A' for Active; 'I' for Inactive)
REMARK    1  A    between atoms: C1_1  and  C2_2 
REMARK    2  A    between atoms: C2_2  and  C3_3 
REMARK    3  A    between atoms: C4_4  and  C8_9 
ROOT
ATOM      1  C3  <0> d          -0.040   3.804   0.067  0.00  0.00     0.051 A 
ATOM      2  C4  <0> d          -1.209   3.087  -0.192  0.00  0.00     0.065 A 
ATOM      3  C5  <0> d          -1.146   1.689  -0.246  0.00  0.00    -0.063 A 
ATOM      4  C6  <0> d           0.077   1.079  -0.029  0.00  0.00    -0.065 A 
ATOM      5  C7  <0> d           1.189   1.862   0.222  0.00  0.00     0.003 A 
ATOM      6  N1  <0> d           1.101   3.178   0.262  0.00  0.00    -0.264 NA
ATOM      7  H6  <0> d          -2.030   1.102  -0.449  0.00  0.00     0.085 H 
ATOM      8  H7  <0> d           0.163   0.002  -0.059  0.00  0.00     0.085 H 
ATOM      9  H8  <0> d           2.146   1.388   0.388  0.00  0.00     0.114 H 
ENDROOT
BRANCH   1  10
ATOM     10  C2  <0> d          -0.085   5.310   0.124  0.00  0.00    -0.027 C 
ATOM     11  H4  <0> d           0.755   5.679   0.731  0.00  0.00     0.041 H 
ATOM     12  H5  <0> d          -1.034   5.631   0.579  0.00  0.00     0.041 H 
BRANCH  10  13
ATOM     13  C1  <0> d           0.020   5.877  -1.292  0.00  0.00    -0.071 C 
ATOM     14  H1  <0> d          -0.012   6.976  -1.251  0.00  0.00     0.028 H 
ATOM     15  H2  <0> d          -0.820   5.508  -1.899  0.00  0.00     0.028 H 
ATOM     16  H3  <0> d           0.969   5.556  -1.747  0.00  0.00     0.028 H 
ENDBRANCH  10  13
ENDBRANCH   1  10
BRANCH   2  17
ATOM     17  C8  <0> d          -2.490   3.790  -0.410  0.00  0.00     0.211 C 
ATOM     18  O1  <0> d          -2.514   5.003  -0.468  0.00  0.00    -0.644 OA
ATOM     19  O2  <0> d          -3.630   3.086  -0.546  0.00  0.00    -0.644 OA
ENDBRANCH   2  17
TORSDOF 3
