REMARK  1 active torsions:
REMARK  status: ('A' for Active; 'I' for Inactive)
REMARK    1  A    between atoms: C1_1  and  N1_2 
ROOT
ATOM      1  N1  <0> d          -0.698   1.558   1.213  0.00  0.00    -0.224 N 
ATOM      2  C2  <0> d           0.009   1.783   2.334  0.00  0.00     0.345 A 
ATOM      3  O1  <0> d           1.210   1.591   2.333  0.00  0.00    -0.245 OA
ATOM      4  N2  <0> d          -0.591   2.217   3.458  0.00  0.00    -0.273 N 
ATOM      5  H1  <0> d          -0.050   2.379   4.284  0.00  0.00     0.173 HD
ATOM      6  C3  <0> d          -1.923   2.433   3.472  0.00  0.00     0.268 A 
ATOM      7  O2  <0> d          -2.473   2.825   4.484  0.00  0.00    -0.266 OA
ATOM      8  C4  <0> d          -2.699   2.190   2.252  0.00  0.00     0.087 A 
ATOM      9  N3  <0> d          -2.081   1.775   1.181  0.00  0.00    -0.176 NA
ATOM     10  H5  <0> d          -3.765   2.356   2.240  0.00  0.00     0.126 H 
ENDROOT
BRANCH   1  11
ATOM     11  C1  <0> d          -0.013   1.086   0.008  0.00  0.00     0.007 C 
ATOM     12  H2  <0> d           0.002  -0.004   0.002  0.00  0.00     0.059 H 
ATOM     13  H3  <0> d           1.010   1.463   0.000  0.00  0.00     0.059 H 
ATOM     14  H4  <0> d          -0.540   1.447  -0.875  0.00  0.00     0.059 H 
ENDBRANCH   1  11
TORSDOF 1
