REMARK  2 active torsions:
REMARK  status: ('A' for Active; 'I' for Inactive)
REMARK    1  A    between atoms: C2_2  and  C3_3 
REMARK    2  A    between atoms: C6_6  and  N2_11 
ROOT
ATOM      1  C1  <0> d           0.018  -1.178  -0.004  0.00  0.00    -0.149 C 
ATOM      2  C2  <0> d           0.002  -0.004   0.002  0.00  0.00    -0.078 C 
ATOM      3  H1  <0> d           0.032  -2.228  -0.010  0.00  0.00     0.166 H 
ENDROOT
BRANCH   2   4
ATOM      4  C3  <0> d          -0.017   1.428   0.010  0.00  0.00     0.018 A 
ATOM      5  C8  <0> d           1.179   2.139   0.002  0.00  0.00    -0.043 A 
ATOM      6  C7  <0> d           1.155   3.534   0.004  0.00  0.00     0.072 A 
ATOM      7  H4  <0> d           2.122   1.613  -0.009  0.00  0.00     0.088 H 
ATOM      8  C6  <0> d          -0.077   4.209   0.025  0.00  0.00     0.046 A 
ATOM      9  C9  <0> d           2.381   4.274  -0.010  0.00  0.00     0.102 C 
ATOM     10  C5  <0> d          -1.264   3.487   0.038  0.00  0.00    -0.055 A 
ATOM     11  C4  <0> d          -1.238   2.110   0.031  0.00  0.00    -0.063 A 
ATOM     12  H3  <0> d          -2.210   4.007   0.054  0.00  0.00     0.087 H 
ATOM     13  H2  <0> d          -2.164   1.554   0.041  0.00  0.00     0.085 H 
ATOM     14  N1  <0> d           3.353   4.861  -0.021  0.00  0.00    -0.191 NA
BRANCH   8  15
ATOM     15  N2  <0> d          -0.108   5.598   0.032  0.00  0.00    -0.398 N 
ATOM     16  H5  <0> d          -0.958   6.064   0.046  0.00  0.00     0.156 HD
ATOM     17  H6  <0> d           0.721   6.102   0.023  0.00  0.00     0.156 HD
ENDBRANCH   8  15
ENDBRANCH   2   4
TORSDOF 2
