REMARK  4 active torsions:
REMARK  status: ('A' for Active; 'I' for Inactive)
REMARK    1  A    between atoms: C1_1  and  C2_2 
REMARK    2  A    between atoms: C2_2  and  C3_3 
REMARK    3  A    between atoms: C2_2  and  C4_4 
REMARK    4  A    between atoms: C2_2  and  O1_10 
ROOT
ATOM      1  C2  <0> d          -0.217   5.298   0.032  0.00  0.00     0.095 C 
ENDROOT
BRANCH   1   2
ATOM      2  C1  <0> d          -1.686   5.725   0.049  0.00  0.00    -0.043 C 
ATOM      3  H1  <0> d          -2.169   5.329   0.941  0.00  0.00     0.032 H 
ATOM      4  H2  <0> d          -1.747   6.814   0.055  0.00  0.00     0.032 H 
ATOM      5  H3  <0> d          -2.187   5.338  -0.838  0.00  0.00     0.032 H 
ENDBRANCH   1   2
BRANCH   1   6
ATOM      6  C3  <0> d           0.487   5.841   1.277  0.00  0.00    -0.043 C 
ATOM      7  H4  <0> d           1.533   5.536   1.266  0.00  0.00     0.032 H 
ATOM      8  H5  <0> d           0.425   6.929   1.284  0.00  0.00     0.032 H 
ATOM      9  H6  <0> d           0.003   5.445   2.170  0.00  0.00     0.032 H 
ENDBRANCH   1   6
BRANCH   1  10
ATOM     10  C4  <0> d          -0.132   3.793   0.024  0.00  0.00     0.067 A 
ATOM     11  N1  <0> d          -1.239   3.078   0.030  0.00  0.00    -0.262 NA
ATOM     12  C8  <0> d          -1.214   1.759   0.017  0.00  0.00     0.003 A 
ATOM     13  C7  <0> d          -0.013   1.076   0.008  0.00  0.00    -0.066 A 
ATOM     14  H10 <0> d          -2.142   1.207   0.018  0.00  0.00     0.114 H 
ATOM     15  C6  <0> d           1.174   1.794   0.001  0.00  0.00    -0.080 A 
ATOM     16  H9  <0> d           0.002  -0.004   0.002  0.00  0.00     0.085 H 
ATOM     17  C5  <0> d           1.107   3.179   0.009  0.00  0.00    -0.056 A 
ATOM     18  H8  <0> d           2.127   1.287  -0.011  0.00  0.00     0.083 H 
ATOM     19  H7  <0> d           2.010   3.770   0.004  0.00  0.00     0.086 H 
ENDBRANCH   1  10
BRANCH   1  20
ATOM     20  O1  <0> d           0.418   5.817  -1.138  0.00  0.00    -0.384 OA
ATOM     21  H11 <0> d           1.353   5.585  -1.215  0.00  0.00     0.211 HD
ENDBRANCH   1  20
TORSDOF 4
