REMARK  1 active torsions:
REMARK  status: ('A' for Active; 'I' for Inactive)
REMARK    1  A    between atoms: C4_5  and  N1_6 
ROOT
ATOM      1  C1  <0> d          -1.078   1.914   0.017  0.00  0.00    -0.051 A 
ATOM      2  C2  <0> d          -0.013   1.076   0.008  0.00  0.00    -0.043 A 
ATOM      3  S1  <0> d           1.360   2.218   0.001  0.00  0.00    -0.111 SA
ATOM      4  C3  <0> d           0.425   3.738   0.017  0.00  0.00    -0.020 A 
ATOM      5  C4  <0> d          -0.855   3.282   0.026  0.00  0.00     0.032 A 
ATOM      6  H1  <0> d          -2.084   1.522   0.019  0.00  0.00     0.087 H 
ATOM      7  H2  <0> d           0.002  -0.004   0.002  0.00  0.00     0.095 H 
ATOM      8  H3  <0> d           0.783   4.757   0.018  0.00  0.00     0.098 H 
ENDROOT
BRANCH   5   9
ATOM      9  N1  <0> d          -1.937   4.183   0.041  0.00  0.00    -0.399 N 
ATOM     10  H4  <0> d          -1.772   5.139   0.043  0.00  0.00     0.156 HD
ATOM     11  H5  <0> d          -2.847   3.848   0.048  0.00  0.00     0.156 HD
ENDBRANCH   5   9
TORSDOF 1
