REMARK  3 active torsions:
REMARK  status: ('A' for Active; 'I' for Inactive)
REMARK    1  A    between atoms: C1_1  and  O1_2 
REMARK    2  A    between atoms: O1_2  and  C2_3 
REMARK    3  A    between atoms: C5_7  and  N3_11 
ROOT
ATOM      1  C2  <0> d          -0.017   1.388   0.010  0.00  0.00     0.094 A 
ATOM      2  C3  <0> d           0.002  -0.004   0.002  0.00  0.00    -0.032 A 
ATOM      3  C4  <0> d           1.212  -0.665  -0.013  0.00  0.00     0.007 A 
ATOM      4  N1  <0> d           2.356  -0.005  -0.021  0.00  0.00    -0.242 NA
ATOM      5  C5  <0> d           2.400   1.318  -0.014  0.00  0.00     0.144 A 
ATOM      6  C6  <0> d           1.213   2.069   0.002  0.00  0.00     0.123 A 
ATOM      7  C7  <0> d           1.254   3.501   0.008  0.00  0.00     0.106 C 
ATOM      8  N2  <0> d           1.287   4.636   0.014  0.00  0.00    -0.191 NA
ATOM      9  H4  <0> d          -0.923  -0.561   0.007  0.00  0.00     0.090 H 
ATOM     10  H5  <0> d           1.225  -1.745  -0.019  0.00  0.00     0.115 H 
ENDROOT
BRANCH   1  11
ATOM     11  O1  <0> d          -1.189   2.068   0.019  0.00  0.00    -0.354 OA
BRANCH  11  12
ATOM     12  C1  <0> d          -2.389   1.292   0.021  0.00  0.00     0.010 C 
ATOM     13  H1  <0> d          -2.420   0.668  -0.873  0.00  0.00     0.066 H 
ATOM     14  H2  <0> d          -2.411   0.658   0.907  0.00  0.00     0.066 H 
ATOM     15  H3  <0> d          -3.252   1.957   0.028  0.00  0.00     0.066 H 
ENDBRANCH  11  12
ENDBRANCH   1  11
BRANCH   5  16
ATOM     16  N3  <0> d           3.623   1.965  -0.022  0.00  0.00    -0.383 N 
ATOM     17  H6  <0> d           4.445   1.450  -0.033  0.00  0.00     0.157 HD
ATOM     18  H7  <0> d           3.659   2.935  -0.018  0.00  0.00     0.157 HD
ENDBRANCH   5  16
TORSDOF 3
