REMARK  3 active torsions:
REMARK  status: ('A' for Active; 'I' for Inactive)
REMARK    1  A    between atoms: C1_1  and  C2_2 
REMARK    2  A    between atoms: C6_6  and  C8_9 
REMARK    3  A    between atoms: C7_7  and  N1_8 
ROOT
ATOM      1  C2  <0> d           1.174   1.782   0.000  0.00  0.00    -0.032 A 
ATOM      2  C3  <0> d          -0.013   1.076   0.008  0.00  0.00    -0.038 A 
ATOM      3  C4  <0> d          -1.221   1.751   0.017  0.00  0.00     0.117 A 
ATOM      4  C5  <0> d          -1.243   3.136   0.031  0.00  0.00    -0.038 A 
ATOM      5  C6  <0> d          -0.059   3.846   0.023  0.00  0.00    -0.032 A 
ATOM      6  C7  <0> d           1.155   3.171   0.008  0.00  0.00     0.037 A 
ATOM      7  F1  <0> d          -2.381   1.058   0.019  0.00  0.00    -0.206 F 
ATOM      8  H4  <0> d           0.002  -0.004   0.002  0.00  0.00     0.089 H 
ATOM      9  H5  <0> d          -2.187   3.660   0.043  0.00  0.00     0.089 H 
ENDROOT
BRANCH   1  10
ATOM     10  C1  <0> d           2.490   1.046  -0.016  0.00  0.00    -0.049 C 
ATOM     11  H1  <0> d           2.797   0.874  -1.047  0.00  0.00     0.033 H 
ATOM     12  H2  <0> d           3.246   1.643   0.494  0.00  0.00     0.033 H 
ATOM     13  H3  <0> d           2.377   0.090   0.494  0.00  0.00     0.033 H 
ENDBRANCH   1  10
BRANCH   6  14
ATOM     14  N1  <0> d           2.355   3.888   0.001  0.00  0.00    -0.398 N 
ATOM     15  H6  <0> d           3.202   3.415  -0.009  0.00  0.00     0.156 HD
ATOM     16  H7  <0> d           2.341   4.858   0.006  0.00  0.00     0.156 HD
ENDBRANCH   6  14
BRANCH   5  17
ATOM     17  C8  <0> d          -0.083   5.353   0.032  0.00  0.00    -0.049 C 
ATOM     18  H8  <0> d          -0.098   5.722  -0.993  0.00  0.00     0.033 H 
ATOM     19  H9  <0> d          -0.974   5.699   0.556  0.00  0.00     0.033 H 
ATOM     20  H10 <0> d           0.806   5.728   0.540  0.00  0.00     0.033 H 
ENDBRANCH   5  17
TORSDOF 3
