REMARK  0 active torsions:
REMARK  status: ('A' for Active; 'I' for Inactive)
ROOT
ATOM      1  C1  <0> d           2.397  -0.030  -0.021  0.00  0.00    -0.030 A 
ATOM      2  C2  <0> d           1.214  -0.706  -0.013  0.00  0.00    -0.038 A 
ATOM      3  C3  <0> d           0.002  -0.004   0.002  0.00  0.00     0.148 A 
ATOM      4  N1  <0> d          -0.016   1.306   0.009  0.00  0.00    -0.135 NA
ATOM      5  N2  <0> d           1.177   2.029   0.002  0.00  0.00    -0.109 N 
ATOM      6  C4  <0> d           2.380   1.375  -0.013  0.00  0.00     0.196 A 
ATOM      7  N3  <0> d           3.320   2.309  -0.017  0.00  0.00    -0.107 NA
ATOM      8  N4  <0> d           2.784   3.478  -0.006  0.00  0.00    -0.021 NA
ATOM      9  N5  <0> d           1.496   3.392   0.005  0.00  0.00    -0.021 NA
ATOM     10 Cl1  <0> d          -1.496  -0.881   0.011  0.00  0.00    -0.061 Cl
ATOM     11  H1  <0> d           3.334  -0.566  -0.032  0.00  0.00     0.089 H 
ATOM     12  H2  <0> d           1.211  -1.786  -0.019  0.00  0.00     0.088 H 
ENDROOT
TORSDOF 0
