REMARK  1 active torsions:
REMARK  status: ('A' for Active; 'I' for Inactive)
REMARK    1  A    between atoms: C1_1  and  C2_2 
ROOT
ATOM      1  C2  <0> d           0.547  -2.719   0.402  0.00  0.00    -0.052 C 
ATOM      2  H1  <0> d           0.336  -2.561   1.470  0.00  0.00     0.040 H 
ATOM      3  C3  <0> d          -0.684  -2.335  -0.423  0.00  0.00    -0.058 C 
ATOM      4  C4  <0> d          -1.175  -0.947   0.005  0.00  0.00    -0.037 C 
ATOM      5  C5  <0> d           0.002  -0.004   0.002  0.00  0.00    -0.015 A 
ATOM      6  C6  <0> d          -0.017   1.389   0.010  0.00  0.00     0.029 A 
ATOM      7  N1  <0> d           1.224   1.812   0.000  0.00  0.00    -0.186 NA
ATOM      8  N2  <0> d           2.070   0.694  -0.014  0.00  0.00    -0.282 N 
ATOM      9  H2  <0> d           3.162   0.830  -0.025  0.00  0.00     0.189 HD
ATOM     10  C7  <0> d           1.299  -0.406  -0.011  0.00  0.00     0.036 A 
ATOM     11  C8  <0> d           1.738  -1.849  -0.021  0.00  0.00    -0.022 C 
ATOM     12  H6  <0> d          -0.420  -2.317  -1.490  0.00  0.00     0.034 H 
ATOM     13  H7  <0> d          -1.482  -3.074  -0.255  0.00  0.00     0.034 H 
ATOM     14  H8  <0> d          -1.941  -0.595  -0.702  0.00  0.00     0.040 H 
ATOM     15  H9  <0> d          -1.608  -1.006   1.015  0.00  0.00     0.040 H 
ATOM     16  H10 <0> d          -0.899   2.011   0.017  0.00  0.00     0.118 H 
ATOM     17  H11 <0> d           2.567  -1.994   0.687  0.00  0.00     0.042 H 
ATOM     18  H12 <0> d           2.062  -2.137  -1.031  0.00  0.00     0.042 H 
ENDROOT
BRANCH   1  19
ATOM     19  C1  <0> d           0.882  -4.192   0.163  0.00  0.00    -0.073 C 
ATOM     20  H3  <0> d           0.029  -4.816   0.466  0.00  0.00     0.028 H 
ATOM     21  H4  <0> d           1.767  -4.468   0.755  0.00  0.00     0.028 H 
ATOM     22  H5  <0> d           1.092  -4.352  -0.905  0.00  0.00     0.028 H 
ENDBRANCH   1  19
TORSDOF 1
