REMARK  4 active torsions:
REMARK  status: ('A' for Active; 'I' for Inactive)
REMARK    1  A    between atoms: C1_1  and  N1_2 
REMARK    2  A    between atoms: N1_2  and  C2_3 
REMARK    3  A    between atoms: N1_2  and  C3_4 
REMARK    4  A    between atoms: C7_8  and  N2_10 
ROOT
ATOM      1  C3  <0> d          -0.049   3.847   0.021  0.00  0.00     0.031 A 
ATOM      2  C4  <0> d           1.161   3.163   0.007  0.00  0.00    -0.057 A 
ATOM      3  C5  <0> d           1.175   1.782   0.000  0.00  0.00    -0.079 A 
ATOM      4  C6  <0> d          -0.013   1.076   0.008  0.00  0.00    -0.058 A 
ATOM      5  C7  <0> d          -1.226   1.753   0.017  0.00  0.00     0.027 A 
ATOM      6  C8  <0> d          -1.244   3.141   0.029  0.00  0.00    -0.032 A 
ATOM      7  H7  <0> d           2.091   3.712   0.001  0.00  0.00     0.086 H 
ATOM      8  H8  <0> d           2.116   1.253  -0.011  0.00  0.00     0.083 H 
ATOM      9  H9  <0> d           0.002  -0.004   0.002  0.00  0.00     0.086 H 
ATOM     10  H10 <0> d          -2.185   3.670   0.041  0.00  0.00     0.090 H 
ENDROOT
BRANCH   1  11
ATOM     11  N1  <0> d          -0.063   5.244   0.027  0.00  0.00    -0.389 N 
BRANCH  11  12
ATOM     12  C1  <0> d           1.199   5.989   0.018  0.00  0.00    -0.019 C 
ATOM     13  H1  <0> d           1.502   6.178  -1.012  0.00  0.00     0.056 H 
ATOM     14  H2  <0> d           1.064   6.938   0.537  0.00  0.00     0.056 H 
ATOM     15  H3  <0> d           1.969   5.405   0.522  0.00  0.00     0.056 H 
ENDBRANCH  11  12
BRANCH  11  16
ATOM     16  C2  <0> d          -1.339   5.964   0.042  0.00  0.00    -0.019 C 
ATOM     17  H4  <0> d          -1.645   6.138   1.073  0.00  0.00     0.056 H 
ATOM     18  H5  <0> d          -1.222   6.920  -0.469  0.00  0.00     0.056 H 
ATOM     19  H6  <0> d          -2.097   5.370  -0.467  0.00  0.00     0.056 H 
ENDBRANCH  11  16
ENDBRANCH   1  11
BRANCH   5  20
ATOM     20  N2  <0> d          -2.426   1.039   0.019  0.00  0.00    -0.399 N 
ATOM     21  H11 <0> d          -2.413   0.069   0.014  0.00  0.00     0.156 HD
ATOM     22  H12 <0> d          -3.272   1.512   0.026  0.00  0.00     0.156 HD
ENDBRANCH   5  20
TORSDOF 4
