REMARK  0 active torsions:
REMARK  status: ('A' for Active; 'I' for Inactive)
ROOT
ATOM      1  C1  <0> d          -0.013   1.076   0.008  0.00  0.00     0.017 A 
ATOM      2  C2  <0> d          -1.117   1.852   0.017  0.00  0.00     0.171 A 
ATOM      3  C3  <0> d          -0.688   3.196   0.026  0.00  0.00     0.171 A 
ATOM      4  C4  <0> d           0.661   3.191   0.013  0.00  0.00     0.017 A 
ATOM      5  N1  <0> d           1.083   1.892   0.002  0.00  0.00    -0.369 N 
ATOM      6  H1  <0> d           2.007   1.597  -0.009  0.00  0.00     0.164 HD
ATOM      7  F1  <0> d          -1.483   4.288   0.039  0.00  0.00    -0.201 F 
ATOM      8  F2  <0> d          -2.397   1.421   0.019  0.00  0.00    -0.201 F 
ATOM      9  H2  <0> d           0.002  -0.004   0.002  0.00  0.00     0.116 H 
ATOM     10  H3  <0> d           1.298   4.064   0.011  0.00  0.00     0.116 H 
ENDROOT
TORSDOF 0
