REMARK  4 active torsions:
REMARK  status: ('A' for Active; 'I' for Inactive)
REMARK    1  A    between atoms: C1_1  and  C2_2 
REMARK    2  A    between atoms: C2_2  and  C3_3 
REMARK    3  A    between atoms: C3_3  and  C4_4 
REMARK    4  A    between atoms: C7_7  and  O1_10 
ROOT
ATOM      1  C4  <0> d           3.693   2.672   0.063  0.00  0.00     0.034 A 
ATOM      2  C5  <0> d           3.110   2.415  -1.163  0.00  0.00    -0.057 A 
ATOM      3  C6  <0> d           1.852   1.835  -1.205  0.00  0.00    -0.048 A 
ATOM      4  C7  <0> d           1.223   1.532  -0.001  0.00  0.00     0.083 A 
ATOM      5  C8  <0> d           1.871   1.826   1.190  0.00  0.00     0.034 A 
ATOM      6  N1  <0> d           3.070   2.373   1.186  0.00  0.00    -0.263 NA
ATOM      7  H8  <0> d           3.628   2.662  -2.078  0.00  0.00     0.086 H 
ATOM      8  H9  <0> d           1.372   1.623  -2.149  0.00  0.00     0.087 H 
ATOM      9  H10 <0> d           1.389   1.600   2.130  0.00  0.00     0.119 H 
ENDROOT
BRANCH   1  10
ATOM     10  C3  <0> d           5.061   3.303   0.118  0.00  0.00    -0.025 C 
ATOM     11  H6  <0> d           5.769   2.600   0.556  0.00  0.00     0.042 H 
ATOM     12  H7  <0> d           5.383   3.561  -0.892  0.00  0.00     0.042 H 
BRANCH  10  13
ATOM     13  C2  <0> d           5.004   4.570   0.974  0.00  0.00    -0.063 C 
ATOM     14  H4  <0> d           4.297   5.274   0.535  0.00  0.00     0.033 H 
ATOM     15  H5  <0> d           4.683   4.313   1.983  0.00  0.00     0.033 H 
BRANCH  13  16
ATOM     16  C1  <0> d           6.393   5.211   1.029  0.00  0.00    -0.076 C 
ATOM     17  H1  <0> d           6.352   6.114   1.638  0.00  0.00     0.027 H 
ATOM     18  H2  <0> d           7.100   4.508   1.467  0.00  0.00     0.027 H 
ATOM     19  H3  <0> d           6.714   5.468   0.019  0.00  0.00     0.027 H 
ENDBRANCH  13  16
ENDBRANCH  10  13
ENDBRANCH   1  10
BRANCH   4  20
ATOM     20  O1  <0> d          -0.011   0.963   0.007  0.00  0.00    -0.359 OA
ATOM     21  H11 <0> d           0.002  -0.004   0.002  0.00  0.00     0.217 HD
ENDBRANCH   4  20
TORSDOF 4
