REMARK  5 active torsions:
REMARK  status: ('A' for Active; 'I' for Inactive)
REMARK    1  A    between atoms: C1_1  and  C2_2 
REMARK    2  A    between atoms: C2_2  and  C3_3 
REMARK    3  A    between atoms: C3_3  and  C4_5 
REMARK    4  A    between atoms: C6_7  and  C9_12 
REMARK    5  A    between atoms: C7_8  and  C8_11 
ROOT
ATOM      1  C4  <0> d           0.853  -1.877  -1.470  0.00  0.00     0.079 A 
ATOM      2  C5  <0> d           0.396  -2.897  -0.654  0.00  0.00    -0.046 A 
ATOM      3  C6  <0> d           0.757  -4.099  -1.266  0.00  0.00    -0.037 A 
ATOM      4  C7  <0> d           1.412  -3.802  -2.416  0.00  0.00     0.011 A 
ATOM      5  N1  <0> d           1.472  -2.462  -2.555  0.00  0.00    -0.357 N 
ATOM      6  H1  <0> d           1.884  -1.988  -3.294  0.00  0.00     0.166 HD
ATOM      7  H7  <0> d          -0.138  -2.785   0.278  0.00  0.00     0.088 H 
ENDROOT
BRANCH   1   8
ATOM      8  C3  <0> d           0.707  -0.490  -1.238  0.00  0.00     0.175 C 
ATOM      9  O1  <0> d           1.151   0.310  -2.037  0.00  0.00    -0.291 OA
BRANCH   8  10
ATOM     10  C2  <0> d           0.002  -0.004   0.002  0.00  0.00    -0.007 C 
ATOM     11  H5  <0> d           0.529  -0.365   0.885  0.00  0.00     0.044 H 
ATOM     12  H6  <0> d          -1.020  -0.381   0.010  0.00  0.00     0.044 H 
BRANCH  10  13
ATOM     13  C1  <0> d          -0.019   1.526   0.010  0.00  0.00    -0.070 C 
ATOM     14  H2  <0> d           1.004   1.903   0.003  0.00  0.00     0.028 H 
ATOM     15  H3  <0> d          -0.546   1.887  -0.873  0.00  0.00     0.028 H 
ATOM     16  H4  <0> d          -0.529   1.877   0.907  0.00  0.00     0.028 H 
ENDBRANCH  10  13
ENDBRANCH   8  10
ENDBRANCH   1   8
BRANCH   4  17
ATOM     17  C8  <0> d           1.976  -4.808  -3.385  0.00  0.00    -0.037 C 
ATOM     18  H8  <0> d           1.220  -5.059  -4.129  0.00  0.00     0.035 H 
ATOM     19  H9  <0> d           2.848  -4.384  -3.883  0.00  0.00     0.035 H 
ATOM     20  H10 <0> d           2.268  -5.709  -2.846  0.00  0.00     0.035 H 
ENDBRANCH   4  17
BRANCH   3  21
ATOM     21  C9  <0> d           0.469  -5.482  -0.741  0.00  0.00    -0.049 C 
ATOM     22  H11 <0> d          -0.492  -5.824  -1.124  0.00  0.00     0.033 H 
ATOM     23  H12 <0> d           1.254  -6.165  -1.066  0.00  0.00     0.033 H 
ATOM     24  H13 <0> d           0.438  -5.458   0.349  0.00  0.00     0.033 H 
ENDBRANCH   3  21
TORSDOF 5
