REMARK  4 active torsions:
REMARK  status: ('A' for Active; 'I' for Inactive)
REMARK    1  A    between atoms: C1_1  and  C2_2 
REMARK    2  A    between atoms: C2_2  and  C3_4 
REMARK    3  A    between atoms: C5_6  and  C7_9 
REMARK    4  A    between atoms: C7_9  and  O2_10 
ROOT
ATOM      1  C3  <0> d          -1.069   3.150   2.960  0.00  0.00     0.050 A 
ATOM      2  C4  <0> d          -0.369   2.767   1.819  0.00  0.00    -0.054 A 
ATOM      3  C5  <0> d          -0.718   1.572   1.248  0.00  0.00    -0.027 A 
ATOM      4  C6  <0> d          -1.705   0.826   1.815  0.00  0.00    -0.036 A 
ATOM      5  S1  <0> d          -2.191   1.780   3.178  0.00  0.00    -0.098 SA
ATOM      6  H4  <0> d           0.411   3.386   1.402  0.00  0.00     0.086 H 
ATOM      7  H5  <0> d          -2.091  -0.130   1.494  0.00  0.00     0.096 H 
ENDROOT
BRANCH   1   8
ATOM      8  C2  <0> d          -0.924   4.317   3.743  0.00  0.00     0.162 C 
ATOM      9  O1  <0> d          -0.097   5.153   3.440  0.00  0.00    -0.292 OA
BRANCH   8  10
ATOM     10  C1  <0> d          -1.797   4.524   4.954  0.00  0.00    -0.016 C 
ATOM     11  H1  <0> d          -1.350   4.131   5.758  0.00  0.00     0.038 H 
ATOM     12  H2  <0> d          -1.954   5.591   5.111  0.00  0.00     0.038 H 
ATOM     13  H3  <0> d          -2.759   4.035   4.797  0.00  0.00     0.038 H 
ENDBRANCH   8  10
ENDBRANCH   1   8
BRANCH   3  14
ATOM     14  C7  <0> d          -0.013   1.086   0.008  0.00  0.00     0.041 C 
ATOM     15  H6  <0> d           0.002  -0.004   0.002  0.00  0.00     0.081 H 
ATOM     16  H7  <0> d           1.010   1.463   0.000  0.00  0.00     0.081 H 
BRANCH  14  17
ATOM     17  O2  <0> d          -0.704   1.559  -1.150  0.00  0.00    -0.396 OA
ATOM     18  H8  <0> d          -0.304   1.284  -1.986  0.00  0.00     0.209 HD
ENDBRANCH  14  17
ENDBRANCH   3  14
TORSDOF 4
