REMARK  3 active torsions:
REMARK  status: ('A' for Active; 'I' for Inactive)
REMARK    1  A    between atoms: C1_1  and  O1_2 
REMARK    2  A    between atoms: O1_2  and  C2_3 
REMARK    3  A    between atoms: C5_7  and  C6_9 
ROOT
ATOM      1  C2  <0> d          -1.231   1.756   0.017  0.00  0.00     0.182 A 
ATOM      2  C3  <0> d          -0.013   1.076   0.008  0.00  0.00     0.053 A 
ATOM      3  N1  <0> d           1.122   1.750   0.001  0.00  0.00    -0.266 NA
ATOM      4  C4  <0> d           1.109   3.072   0.008  0.00  0.00     0.036 A 
ATOM      5  C5  <0> d          -0.104   3.756   0.023  0.00  0.00     0.153 A 
ATOM      6  N2  <0> d          -1.250   3.077   0.030  0.00  0.00    -0.215 NA
ATOM      7  H4  <0> d           0.002  -0.004   0.002  0.00  0.00     0.121 H 
ATOM      8  H5  <0> d           2.038   3.621   0.002  0.00  0.00     0.118 H 
ENDROOT
BRANCH   1   9
ATOM      9  O1  <0> d          -2.396   1.060   0.019  0.00  0.00    -0.338 OA
BRANCH   9  10
ATOM     10  C1  <0> d          -3.605   1.821   0.029  0.00  0.00     0.012 C 
ATOM     11  H1  <0> d          -3.635   2.445   0.923  0.00  0.00     0.067 H 
ATOM     12  H2  <0> d          -3.644   2.454  -0.857  0.00  0.00     0.067 H 
ATOM     13  H3  <0> d          -4.460   1.145   0.029  0.00  0.00     0.067 H 
ENDBRANCH   9  10
ENDBRANCH   1   9
BRANCH   5  14
ATOM     14  C6  <0> d          -0.120   5.237   0.031  0.00  0.00     0.230 C 
ATOM     15  O2  <0> d           0.925   5.855   0.025  0.00  0.00    -0.643 OA
ATOM     16  O3  <0> d          -1.294   5.897   0.045  0.00  0.00    -0.643 OA
ENDBRANCH   5  14
TORSDOF 3
