REMARK  9 active torsions:
REMARK  status: ('A' for Active; 'I' for Inactive)
REMARK    1  A    between atoms: C1_1  and  C2_2 
REMARK    2  A    between atoms: C2_2  and  O1_3 
REMARK    3  A    between atoms: O1_3  and  C3_4 
REMARK    4  A    between atoms: C3_4  and  C4_5 
REMARK    5  A    between atoms: C4_5  and  C5_6 
REMARK    6  A    between atoms: C5_6  and  C6_7 
REMARK    7  A    between atoms: C6_7  and  C7_8 
REMARK    8  A    between atoms: C6_7  and  C8_9 
REMARK    9  A    between atoms: C6_7  and  C9_10 
ROOT
ATOM      1  C5  <0> d          -3.899  -2.874   0.024  0.00  0.00     0.016 C 
ATOM      2  H7  <0> d          -4.404  -3.082  -0.908  0.00  0.00     0.061 H 
ENDROOT
BRANCH   1   3
ATOM      3  C4  <0> d          -2.698  -2.358   0.015  0.00  0.00    -0.141 C 
BRANCH   3   4
ATOM      4  C3  <0> d          -1.498  -1.842   0.006  0.00  0.00     0.120 C 
ATOM      5  H6  <0> d          -0.632  -2.488  -0.005  0.00  0.00     0.107 H 
BRANCH   4   6
ATOM      6  O1  <0> d          -1.339  -0.499   0.012  0.00  0.00    -0.371 OA
BRANCH   6   7
ATOM      7  C2  <0> d           0.002  -0.004   0.002  0.00  0.00     0.018 C 
ATOM      8  H4  <0> d           0.512  -0.356  -0.895  0.00  0.00     0.073 H 
ATOM      9  H5  <0> d           0.529  -0.365   0.885  0.00  0.00     0.073 H 
BRANCH   7  10
ATOM     10  C1  <0> d          -0.019   1.526   0.010  0.00  0.00    -0.056 C 
ATOM     11  H1  <0> d           1.004   1.903   0.003  0.00  0.00     0.030 H 
ATOM     12  H2  <0> d          -0.546   1.887  -0.873  0.00  0.00     0.030 H 
ATOM     13  H3  <0> d          -0.529   1.877   0.907  0.00  0.00     0.030 H 
ENDBRANCH   7  10
ENDBRANCH   6   7
ENDBRANCH   4   6
ENDBRANCH   3   4
ENDBRANCH   1   3
BRANCH   1  14
ATOM     14  C6  <0> d          -4.579  -3.179   1.334  0.00  0.00    -0.037 C 
BRANCH  14  15
ATOM     15  C7  <0> d          -3.655  -2.792   2.490  0.00  0.00    -0.069 C 
ATOM     16  H8  <0> d          -3.431  -1.727   2.436  0.00  0.00     0.028 H 
ATOM     17  H9  <0> d          -4.146  -3.013   3.438  0.00  0.00     0.028 H 
ATOM     18  H10 <0> d          -2.728  -3.362   2.421  0.00  0.00     0.028 H 
ENDBRANCH  14  15
BRANCH  14  19
ATOM     19  C8  <0> d          -5.880  -2.378   1.432  0.00  0.00    -0.069 C 
ATOM     20  H11 <0> d          -6.538  -2.654   0.608  0.00  0.00     0.028 H 
ATOM     21  H12 <0> d          -6.371  -2.599   2.379  0.00  0.00     0.028 H 
ATOM     22  H13 <0> d          -5.656  -1.313   1.377  0.00  0.00     0.028 H 
ENDBRANCH  14  19
BRANCH  14  23
ATOM     23  C9  <0> d          -4.893  -4.674   1.410  0.00  0.00    -0.069 C 
ATOM     24  H14 <0> d          -3.967  -5.244   1.340  0.00  0.00     0.028 H 
ATOM     25  H15 <0> d          -5.385  -4.894   2.357  0.00  0.00     0.028 H 
ATOM     26  H16 <0> d          -5.552  -4.949   0.586  0.00  0.00     0.028 H 
ENDBRANCH  14  23
ENDBRANCH   1  14
TORSDOF 9
