REMARK  2 active torsions:
REMARK  status: ('A' for Active; 'I' for Inactive)
REMARK    1  A    between atoms: C1_1  and  C2_2 
REMARK    2  A    between atoms: C4_4  and  C6_7 
ROOT
ATOM      1  C2  <0> d          -0.718   1.572   1.248  0.00  0.00    -0.037 A 
ATOM      2  C3  <0> d          -2.096   1.837   1.379  0.00  0.00    -0.042 A 
ATOM      3  C4  <0> d          -2.296   2.248   2.659  0.00  0.00     0.085 A 
ATOM      4  O1  <0> d          -1.106   2.249   3.290  0.00  0.00    -0.321 OA
ATOM      5  C5  <0> d          -0.150   1.841   2.440  0.00  0.00     0.025 A 
ATOM      6  H4  <0> d          -2.848   1.731   0.611  0.00  0.00     0.088 H 
ATOM      7  H5  <0> d           0.900   1.744   2.673  0.00  0.00     0.124 H 
ENDROOT
BRANCH   3   8
ATOM      8  C6  <0> d          -3.593   2.634   3.253  0.00  0.00    -0.002 A 
ATOM      9  C11 <0> d          -3.659   3.046   4.585  0.00  0.00    -0.070 A 
ATOM     10  C10 <0> d          -4.872   3.405   5.134  0.00  0.00    -0.082 A 
ATOM     11  H10 <0> d          -2.761   3.084   5.185  0.00  0.00     0.084 H 
ATOM     12  C9  <0> d          -6.023   3.357   4.367  0.00  0.00    -0.083 A 
ATOM     13  H9  <0> d          -4.925   3.724   6.164  0.00  0.00     0.083 H 
ATOM     14  C8  <0> d          -5.965   2.949   3.046  0.00  0.00    -0.082 A 
ATOM     15  H8  <0> d          -6.971   3.639   4.801  0.00  0.00     0.083 H 
ATOM     16  C7  <0> d          -4.757   2.593   2.484  0.00  0.00    -0.070 A 
ATOM     17  H7  <0> d          -6.867   2.913   2.453  0.00  0.00     0.083 H 
ATOM     18  H6  <0> d          -4.712   2.279   1.451  0.00  0.00     0.084 H 
ENDBRANCH   3   8
BRANCH   1  19
ATOM     19  C1  <0> d          -0.013   1.086   0.008  0.00  0.00    -0.049 C 
ATOM     20  H1  <0> d           0.002  -0.004   0.002  0.00  0.00     0.033 H 
ATOM     21  H2  <0> d           1.010   1.463   0.000  0.00  0.00     0.033 H 
ATOM     22  H3  <0> d          -0.540   1.447  -0.875  0.00  0.00     0.033 H 
ENDBRANCH   1  19
TORSDOF 2
