REMARK  4 active torsions:
REMARK  status: ('A' for Active; 'I' for Inactive)
REMARK    1  A    between atoms: C1_1  and  C2_2 
REMARK    2  A    between atoms: C4_5  and  O1_12 
REMARK    3  A    between atoms: C6_8  and  C8_10 
REMARK    4  A    between atoms: C6_8  and  C9_11 
ROOT
ATOM      1  C2  <0> d           0.051  -0.141  -0.225  0.00  0.00    -0.055 C 
ATOM      2  H1  <0> d          -0.972  -0.518  -0.217  0.00  0.00     0.039 H 
ATOM      3  C3  <0> d           0.813  -0.757  -1.400  0.00  0.00    -0.038 C 
ATOM      4  C4  <0> d           0.832  -2.280  -1.253  0.00  0.00     0.036 C 
ATOM      5  H2  <0> d           1.375  -2.719  -2.090  0.00  0.00     0.083 H 
ATOM      6  C5  <0> d           1.525  -2.657   0.058  0.00  0.00    -0.035 C 
ATOM      7  C6  <0> d           0.763  -2.041   1.233  0.00  0.00    -0.045 C 
ATOM      8  C7  <0> d           0.744  -0.518   1.086  0.00  0.00    -0.056 C 
ATOM      9  H6  <0> d           0.319  -0.488  -2.334  0.00  0.00     0.037 H 
ATOM     10  H7  <0> d           1.835  -0.380  -1.408  0.00  0.00     0.037 H 
ATOM     11  H8  <0> d           1.539  -3.742   0.163  0.00  0.00     0.037 H 
ATOM     12  H9  <0> d           2.547  -2.280   0.050  0.00  0.00     0.037 H 
ATOM     13  H10 <0> d           1.766  -0.141   1.079  0.00  0.00     0.034 H 
ATOM     14  H11 <0> d           0.201  -0.079   1.923  0.00  0.00     0.034 H 
ENDROOT
BRANCH   7  15
ATOM     15  C8  <0> d          -0.673  -2.570   1.244  0.00  0.00    -0.069 C 
ATOM     16  H12 <0> d          -0.660  -3.656   1.149  0.00  0.00     0.028 H 
ATOM     17  H13 <0> d          -1.155  -2.294   2.182  0.00  0.00     0.028 H 
ATOM     18  H14 <0> d          -1.226  -2.139   0.410  0.00  0.00     0.028 H 
ENDBRANCH   7  15
BRANCH   7  19
ATOM     19  C9  <0> d           1.456  -2.418   2.544  0.00  0.00    -0.069 C 
ATOM     20  H15 <0> d           2.478  -2.041   2.537  0.00  0.00     0.028 H 
ATOM     21  H16 <0> d           0.913  -1.979   3.381  0.00  0.00     0.028 H 
ATOM     22  H17 <0> d           1.469  -3.503   2.649  0.00  0.00     0.028 H 
ENDBRANCH   7  19
BRANCH   4  23
ATOM     23  O1  <0> d          -0.508  -2.774  -1.243  0.00  0.00    -0.396 OA
ATOM     24  H18 <0> d          -1.009  -2.571  -2.045  0.00  0.00     0.210 HD
ENDBRANCH   4  23
BRANCH   1  25
ATOM     25  C1  <0> d           0.032   1.382  -0.372  0.00  0.00    -0.073 C 
ATOM     26  H3  <0> d           1.054   1.759  -0.380  0.00  0.00     0.028 H 
ATOM     27  H4  <0> d          -0.462   1.651  -1.306  0.00  0.00     0.028 H 
ATOM     28  H5  <0> d          -0.511   1.821   0.465  0.00  0.00     0.028 H 
ENDBRANCH   1  25
TORSDOF 4
