REMARK  7 active torsions:
REMARK  status: ('A' for Active; 'I' for Inactive)
REMARK    1  A    between atoms: C1_1  and  C2_2 
REMARK    2  A    between atoms: C2_2  and  O1_3 
REMARK    3  A    between atoms: C2_2  and  O2_7 
REMARK    4  A    between atoms: O1_3  and  C3_4 
REMARK    5  A    between atoms: C3_4  and  C4_5 
REMARK    6  A    between atoms: O2_7  and  C6_8 
REMARK    7  A    between atoms: C6_8  and  C7_9 
ROOT
ATOM      1  C2  <0> d           0.066   1.035   0.156  0.00  0.00     0.128 C 
ATOM      2  H4  <0> d           0.163  -0.003   0.473  0.00  0.00     0.128 H 
ENDROOT
BRANCH   1   3
ATOM      3  C1  <0> d          -0.913   1.761   1.081  0.00  0.00    -0.031 C 
ATOM      4  H1  <0> d          -1.887   1.274   1.034  0.00  0.00     0.034 H 
ATOM      5  H2  <0> d          -0.539   1.726   2.105  0.00  0.00     0.034 H 
ATOM      6  H3  <0> d          -1.010   2.799   0.765  0.00  0.00     0.034 H 
ENDBRANCH   1   3
BRANCH   1   7
ATOM      7  O1  <0> d           1.343   1.674   0.219  0.00  0.00    -0.358 OA
BRANCH   7   8
ATOM      8  C3  <0> d           2.438   0.816  -0.107  0.00  0.00     0.037 C 
ATOM      9  H5  <0> d           2.397  -0.079   0.514  0.00  0.00     0.080 H 
ATOM     10  H6  <0> d           2.378   0.532  -1.157  0.00  0.00     0.080 H 
BRANCH   8  11
ATOM     11  C4  <0> d           3.736   1.541   0.144  0.00  0.00    -0.089 C 
ATOM     12  C5  <0> d           4.716   0.933   0.765  0.00  0.00    -0.123 C 
ATOM     13  H8  <0> d           4.595  -0.087   1.097  0.00  0.00     0.066 H 
ATOM     14  H9  <0> d           5.646   1.453   0.944  0.00  0.00     0.066 H 
ATOM     15  H7  <0> d           3.857   2.561  -0.189  0.00  0.00     0.078 H 
ENDBRANCH   8  11
ENDBRANCH   7   8
ENDBRANCH   1   7
BRANCH   1  16
ATOM     16  O2  <0> d          -0.424   1.081  -1.185  0.00  0.00    -0.358 OA
BRANCH  16  17
ATOM     17  C6  <0> d           0.218   0.160  -2.070  0.00  0.00     0.037 C 
ATOM     18  H10 <0> d           1.261   0.450  -2.202  0.00  0.00     0.080 H 
ATOM     19  H11 <0> d           0.172  -0.844  -1.646  0.00  0.00     0.080 H 
BRANCH  17  20
ATOM     20  C7  <0> d          -0.481   0.175  -3.405  0.00  0.00    -0.089 C 
ATOM     21  C8  <0> d           0.220   0.213  -4.511  0.00  0.00    -0.123 C 
ATOM     22  H13 <0> d           1.299   0.234  -4.466  0.00  0.00     0.066 H 
ATOM     23  H14 <0> d          -0.281   0.224  -5.467  0.00  0.00     0.066 H 
ATOM     24  H12 <0> d          -1.560   0.154  -3.449  0.00  0.00     0.078 H 
ENDBRANCH  17  20
ENDBRANCH  16  17
ENDBRANCH   1  16
TORSDOF 7
