REMARK  3 active torsions:
REMARK  status: ('A' for Active; 'I' for Inactive)
REMARK    1  A    between atoms: C1_1  and  C2_2 
REMARK    2  A    between atoms: C2_2  and  O1_3 
REMARK    3  A    between atoms: O1_3  and  C3_4 
ROOT
ATOM      1  C3  <0> d           1.204   2.088   0.002  0.00  0.00     0.185 A 
ATOM      2  C4  <0> d          -0.017   1.395   0.010  0.00  0.00     0.097 A 
ATOM      3  C5  <0> d           0.002  -0.004   0.002  0.00  0.00    -0.057 A 
ATOM      4  C6  <0> d           1.229  -0.645  -0.013  0.00  0.00    -0.064 A 
ATOM      5  C7  <0> d           2.389   0.108  -0.020  0.00  0.00     0.005 A 
ATOM      6  N1  <0> d           2.348   1.427  -0.013  0.00  0.00    -0.236 NA
ATOM      7  C8  <0> d          -1.259   2.107   0.019  0.00  0.00     0.104 C 
ATOM      8  N2  <0> d          -2.245   2.672   0.027  0.00  0.00    -0.191 NA
ATOM      9  H6  <0> d          -0.918  -0.570   0.007  0.00  0.00     0.086 H 
ATOM     10  H7  <0> d           1.280  -1.723  -0.020  0.00  0.00     0.085 H 
ATOM     11  H8  <0> d           3.346  -0.393  -0.032  0.00  0.00     0.114 H 
ENDROOT
BRANCH   1  12
ATOM     12  O1  <0> d           1.209   3.443   0.009  0.00  0.00    -0.334 OA
BRANCH  12  13
ATOM     13  C2  <0> d           2.485   4.087   0.000  0.00  0.00     0.024 C 
ATOM     14  H4  <0> d           3.049   3.787   0.883  0.00  0.00     0.074 H 
ATOM     15  H5  <0> d           3.032   3.796  -0.896  0.00  0.00     0.074 H 
BRANCH  13  16
ATOM     16  C1  <0> d           2.290   5.604   0.010  0.00  0.00    -0.056 C 
ATOM     17  H1  <0> d           1.726   5.904  -0.873  0.00  0.00     0.030 H 
ATOM     18  H2  <0> d           1.743   5.894   0.907  0.00  0.00     0.030 H 
ATOM     19  H3  <0> d           3.263   6.095   0.004  0.00  0.00     0.030 H 
ENDBRANCH  13  16
ENDBRANCH  12  13
ENDBRANCH   1  12
TORSDOF 3
