REMARK  1 active torsions:
REMARK  status: ('A' for Active; 'I' for Inactive)
REMARK    1  A    between atoms: C1_1  and  N6_9 
REMARK       I    between atoms: N4_5  and  C2_6 
REMARK       I    between atoms: C2_6  and  N5_8 
ROOT
ATOM      1  C1  <0> d          -2.445   1.328   0.021  0.00  0.00     0.746 A 
ATOM      2  N1  <0> d          -3.293   2.333   0.030  0.00  0.00     0.065 NA
ATOM      3  N2  <0> d          -2.667   3.453   0.033  0.00  0.00    -0.007 NA
ATOM      4  N3  <0> d          -1.393   3.260   0.033  0.00  0.00    -0.021 NA
ATOM      5  N4  <0> d          -1.191   1.869   0.018  0.00  0.00     0.014 N 
ATOM      6  C2  <0> d          -0.014   1.211   0.009  0.00  0.00     0.358 C 
ATOM      7  O1  <0> d           0.002  -0.004   0.002  0.00  0.00    -0.245 OA
ATOM      8  N5  <0> d           1.143   1.900   0.001  0.00  0.00    -0.350 N 
ATOM      9  H1  <0> d           1.990   1.427  -0.009  0.00  0.00     0.160 HD
ATOM     10  H2  <0> d           1.130   2.870   0.007  0.00  0.00     0.160 HD
ENDROOT
BRANCH   1  11
ATOM     11  N6  <0> d          -2.761  -0.016   0.015  0.00  0.00    -0.229 N 
ATOM     12  H3  <0> d          -2.055  -0.680   0.009  0.00  0.00     0.174 HD
ATOM     13  H4  <0> d          -3.690  -0.295   0.018  0.00  0.00     0.174 HD
ENDBRANCH   1  11
TORSDOF 1
