REMARK  4 active torsions:
REMARK  status: ('A' for Active; 'I' for Inactive)
REMARK    1  A    between atoms: C1_1  and  C2_2 
REMARK    2  A    between atoms: C1_1  and  C4_6 
REMARK    3  A    between atoms: C2_2  and  C3_3 
REMARK       I    between atoms: C3_3  and  N1_5 
REMARK    4  A    between atoms: C5_10  and  N5_12 
ROOT
ATOM      1  C1  <0> d          -0.019   1.526   0.010  0.00  0.00     0.002 C 
ATOM      2  H2  <0> d           1.004   1.903   0.003  0.00  0.00     0.045 H 
ATOM      3  H3  <0> d          -0.546   1.887  -0.873  0.00  0.00     0.045 H 
ENDROOT
BRANCH   1   4
ATOM      4  C2  <0> d           0.002  -0.004   0.002  0.00  0.00     0.015 C 
ATOM      5  H4  <0> d           0.529  -0.365   0.885  0.00  0.00     0.047 H 
ATOM      6  H5  <0> d          -1.020  -0.381   0.010  0.00  0.00     0.047 H 
BRANCH   4   7
ATOM      7  C3  <0> d           0.707  -0.490  -1.238  0.00  0.00     0.215 C 
ATOM      8  O1  <0> d           1.150   0.308  -2.036  0.00  0.00    -0.274 OA
ATOM      9  N1  <0> d           0.847  -1.812  -1.460  0.00  0.00    -0.370 N 
ATOM     10  H6  <0> d           0.493  -2.451  -0.821  0.00  0.00     0.159 HD
ATOM     11  H7  <0> d           1.300  -2.125  -2.258  0.00  0.00     0.159 HD
ENDBRANCH   4   7
ENDBRANCH   1   4
BRANCH   1  12
ATOM     12  C4  <0> d          -0.724   2.012   1.250  0.00  0.00     0.166 A 
ATOM     13  N4  <0> d          -0.140   2.271   2.421  0.00  0.00    -0.046 NA
ATOM     14  C5  <0> d          -1.043   2.679   3.286  0.00  0.00     0.716 A 
ATOM     15  N3  <0> d          -2.242   2.676   2.666  0.00  0.00    -0.106 N 
ATOM     16  N2  <0> d          -2.006   2.241   1.352  0.00  0.00    -0.144 NA
ATOM     17  H1  <0> d          -3.097   2.925   3.051  0.00  0.00     0.208 HD
BRANCH  14  18
ATOM     18  N5  <0> d          -0.807   3.042   4.600  0.00  0.00    -0.231 N 
ATOM     19  H8  <0> d          -1.543   3.327   5.164  0.00  0.00     0.174 HD
ATOM     20  H9  <0> d           0.094   3.011   4.957  0.00  0.00     0.174 HD
ENDBRANCH  14  18
ENDBRANCH   1  12
TORSDOF 4
