REMARK  1 active torsions:
REMARK  status: ('A' for Active; 'I' for Inactive)
REMARK    1  A    between atoms: C1_1  and  C2_2 
ROOT
ATOM      1  C2  <0> d           0.002  -0.004   0.002  0.00  0.00     0.062 A 
ATOM      2  C3  <0> d           1.236  -0.655  -0.013  0.00  0.00     0.106 A 
ATOM      3  C4  <0> d           2.405   0.132  -0.019  0.00  0.00     0.180 A 
ATOM      4  N1  <0> d           3.455  -0.751  -0.034  0.00  0.00    -0.222 NA
ATOM      5  H1  <0> d           0.880  -2.756  -0.021  0.00  0.00     0.167 HD
ATOM      6  C5  <0> d           2.931  -2.009  -0.036  0.00  0.00     0.067 A 
ATOM      7  N2  <0> d           1.631  -1.952  -0.024  0.00  0.00    -0.346 N 
ATOM      8  N3  <0> d           2.291   1.453  -0.011  0.00  0.00    -0.220 NA
ATOM      9  C6  <0> d           1.103   2.020   0.002  0.00  0.00     0.089 A 
ATOM     10  N4  <0> d          -0.016   1.318   0.009  0.00  0.00    -0.244 NA
ATOM     11  H5  <0> d           3.538  -2.804  -0.046  0.00  0.00     0.143 H 
ATOM     12  H6  <0> d           1.025   3.017   0.008  0.00  0.00     0.146 H 
ENDROOT
BRANCH   1  13
ATOM     13  C1  <0> d          -1.283  -0.791   0.010  0.00  0.00    -0.033 C 
ATOM     14  H2  <0> d          -1.054  -1.867   0.002  0.00  0.00     0.035 H 
ATOM     15  H3  <0> d          -1.875  -0.535  -0.882  0.00  0.00     0.035 H 
ATOM     16  H4  <0> d          -1.858  -0.545   0.914  0.00  0.00     0.035 H 
ENDBRANCH   1  13
TORSDOF 1
