REMARK  2 active torsions:
REMARK  status: ('A' for Active; 'I' for Inactive)
REMARK    1  A    between atoms: C3_3  and  N1_4 
REMARK       I    between atoms: N1_4  and  C4_5 
REMARK    2  A    between atoms: C4_5  and  C5_7 
ROOT
ATOM      1  N1  <0> d          -0.367  -0.692   1.241  0.00  0.00    -0.356 N 
ATOM      2  C4  <0> d          -0.854  -1.948   1.195  0.00  0.00     0.223 C 
ATOM      3  O1  <0> d          -0.986  -2.509   0.128  0.00  0.00    -0.273 OA
ATOM      4  H6  <0> d          -0.262  -0.244   2.095  0.00  0.00     0.162 HD
ENDROOT
BRANCH   2   5
ATOM      5  C5  <0> d          -1.234  -2.656   2.470  0.00  0.00     0.036 C 
ATOM      6  C8  <0> d          -1.772  -4.080   2.248  0.00  0.00     0.002 C 
ATOM      7  C7  <0> d          -0.965  -4.482   3.467  0.00  0.00     0.128 C 
ATOM      8  H10 <0> d          -2.850  -4.168   2.389  0.00  0.00     0.045 H 
ATOM      9  H11 <0> d          -1.426  -4.540   1.323  0.00  0.00     0.045 H 
ATOM     10  C6  <0> d          -0.043  -3.311   3.191  0.00  0.00     0.002 C 
ATOM     11  O2  <0> d          -1.029  -5.357   4.298  0.00  0.00    -0.298 OA
ATOM     12  H8  <0> d           0.788  -3.555   2.530  0.00  0.00     0.045 H 
ATOM     13  H9  <0> d           0.270  -2.780   4.090  0.00  0.00     0.045 H 
ATOM     14  H7  <0> d          -1.861  -2.048   3.122  0.00  0.00     0.055 H 
ENDBRANCH   2   5
BRANCH   1  15
ATOM     15  C3  <0> d           0.002  -0.004   0.002  0.00  0.00     0.012 A 
ATOM     16  C1  <0> d          -0.019   1.526   0.010  0.00  0.00    -0.044 A 
ATOM     17  C2  <0> d           1.317   0.779  -0.006  0.00  0.00    -0.044 A 
ATOM     18  H1  <0> d          -0.307   2.020   0.938  0.00  0.00     0.036 H 
ATOM     19  H2  <0> d          -0.325   2.030  -0.906  0.00  0.00     0.036 H 
ATOM     20  H3  <0> d           1.889   0.792  -0.934  0.00  0.00     0.036 H 
ATOM     21  H4  <0> d           1.906   0.782   0.910  0.00  0.00     0.036 H 
ATOM     22  H5  <0> d          -0.290  -0.506  -0.920  0.00  0.00     0.072 H 
ENDBRANCH   1  15
TORSDOF 2
