REMARK  4 active torsions:
REMARK  status: ('A' for Active; 'I' for Inactive)
REMARK    1  A    between atoms: C1_1  and  C2_2 
REMARK    2  A    between atoms: C2_2  and  C3_3 
REMARK    3  A    between atoms: C5_6  and  N4_10 
REMARK    4  A    between atoms: C6_8  and  N3_9 
ROOT
ATOM      1  C3  <0> d          -0.017   1.377   0.010  0.00  0.00     0.006 A 
ATOM      2  C4  <0> d           0.002  -0.004   0.002  0.00  0.00     0.031 A 
ATOM      3  N1  <0> d           1.166  -0.636  -0.013  0.00  0.00    -0.075 NA
ATOM      4  C5  <0> d           2.307   0.037  -0.020  0.00  0.00     0.721 A 
ATOM      5  N2  <0> d           2.332   1.361  -0.013  0.00  0.00    -0.045 NA
ATOM      6  C6  <0> d           1.201   2.060   0.002  0.00  0.00     0.148 A 
ATOM      7  H6  <0> d          -0.922  -0.562   0.007  0.00  0.00     0.116 H 
ENDROOT
BRANCH   1   8
ATOM      8  C2  <0> d          -1.322   2.130   0.020  0.00  0.00    -0.039 C 
ATOM      9  H4  <0> d          -2.100   1.502   0.455  0.00  0.00     0.039 H 
ATOM     10  H5  <0> d          -1.213   3.038   0.614  0.00  0.00     0.039 H 
BRANCH   8  11
ATOM     11  C1  <0> d          -1.708   2.502  -1.413  0.00  0.00    -0.072 C 
ATOM     12  H1  <0> d          -0.930   3.129  -1.848  0.00  0.00     0.028 H 
ATOM     13  H2  <0> d          -1.817   1.594  -2.007  0.00  0.00     0.028 H 
ATOM     14  H3  <0> d          -2.652   3.046  -1.406  0.00  0.00     0.028 H 
ENDBRANCH   8  11
ENDBRANCH   1   8
BRANCH   6  15
ATOM     15  N3  <0> d           1.231   3.445   0.009  0.00  0.00    -0.383 N 
ATOM     16  H7  <0> d           0.401   3.947   0.019  0.00  0.00     0.157 HD
ATOM     17  H8  <0> d           2.081   3.912   0.003  0.00  0.00     0.157 HD
ENDBRANCH   6  15
BRANCH   4  18
ATOM     18  N4  <0> d           3.502  -0.660  -0.035  0.00  0.00    -0.231 N 
ATOM     19  H9  <0> d           3.498  -1.630  -0.040  0.00  0.00     0.174 HD
ATOM     20  H10 <0> d           4.345  -0.179  -0.040  0.00  0.00     0.174 HD
ENDBRANCH   4  18
TORSDOF 4
