REMARK  2 active torsions:
REMARK  status: ('A' for Active; 'I' for Inactive)
REMARK    1  A    between atoms: C1_1  and  O1_2 
REMARK    2  A    between atoms: O1_2  and  C2_3 
ROOT
ATOM      1  C2  <0> d           0.605  -0.606  -1.054  0.00  0.00     0.183 A 
ATOM      2  C3  <0> d           0.654  -1.997  -1.128  0.00  0.00     0.053 A 
ATOM      3  N1  <0> d           1.240  -2.586  -2.154  0.00  0.00    -0.266 NA
ATOM      4  C4  <0> d           1.782  -1.859  -3.115  0.00  0.00     0.040 A 
ATOM      5  C5  <0> d           1.736  -0.468  -3.048  0.00  0.00     0.157 A 
ATOM      6  N2  <0> d           1.140   0.127  -2.015  0.00  0.00    -0.211 NA
ATOM      7  C6  <0> d           2.324   0.321  -4.089  0.00  0.00     0.121 C 
ATOM      8  N3  <0> d           2.789   0.947  -4.915  0.00  0.00    -0.190 NA
ATOM      9  H4  <0> d           0.213  -2.595  -0.344  0.00  0.00     0.121 H 
ATOM     10  H5  <0> d           2.260  -2.344  -3.954  0.00  0.00     0.119 H 
ENDROOT
BRANCH   1  11
ATOM     11  O1  <0> d           0.002  -0.004   0.002  0.00  0.00    -0.338 OA
BRANCH  11  12
ATOM     12  C1  <0> d          -0.017   1.425   0.010  0.00  0.00     0.012 C 
ATOM     13  H1  <0> d           1.005   1.802   0.002  0.00  0.00     0.067 H 
ATOM     14  H2  <0> d          -0.544   1.786  -0.873  0.00  0.00     0.067 H 
ATOM     15  H3  <0> d          -0.527   1.776   0.907  0.00  0.00     0.067 H 
ENDBRANCH  11  12
ENDBRANCH   1  11
TORSDOF 2
