REMARK  2 active torsions:
REMARK  status: ('A' for Active; 'I' for Inactive)
REMARK    1  A    between atoms: C3_4  and  C4_6 
REMARK    2  A    between atoms: C4_6  and  O2_7 
ROOT
ATOM      1  C1  <0> d          -0.973   1.702  -1.027  0.00  0.00    -0.019 C 
ATOM      2  C2  <0> d          -2.024   1.674   0.099  0.00  0.00     0.022 C 
ATOM      3  O1  <0> d          -0.893   1.652   1.000  0.00  0.00    -0.384 OA
ATOM      4  C3  <0> d          -0.013   1.086   0.008  0.00  0.00     0.060 C 
ATOM      5  H1  <0> d           0.002  -0.004   0.002  0.00  0.00     0.086 H 
ATOM      6  H2  <0> d          -0.694   2.707  -1.343  0.00  0.00     0.040 H 
ATOM      7  H3  <0> d          -1.203   1.040  -1.862  0.00  0.00     0.040 H 
ATOM      8  H4  <0> d          -2.623   2.583   0.166  0.00  0.00     0.074 H 
ATOM      9  H5  <0> d          -2.623   0.764   0.121  0.00  0.00     0.074 H 
ENDROOT
BRANCH   4  10
ATOM     10  C4  <0> d           1.387   1.704  -0.002  0.00  0.00     0.041 C 
ATOM     11  H6  <0> d           1.820   1.607  -0.998  0.00  0.00     0.077 H 
ATOM     12  H7  <0> d           1.321   2.758   0.265  0.00  0.00     0.077 H 
BRANCH  10  13
ATOM     13  O2  <0> d           2.214   1.024   0.945  0.00  0.00    -0.398 OA
ATOM     14  H8  <0> d           3.118   1.364   0.992  0.00  0.00     0.209 HD
ENDBRANCH  10  13
ENDBRANCH   4  10
TORSDOF 2
