REMARK  2 active torsions:
REMARK  status: ('A' for Active; 'I' for Inactive)
REMARK    1  A    between atoms: C4_5  and  O2_9 
REMARK    2  A    between atoms: C5_6  and  C6_7 
ROOT
ATOM      1  C1  <0> d           3.134   2.403   1.180  0.00  0.00    -0.023 A 
ATOM      2  C2  <0> d           3.701   2.676  -0.055  0.00  0.00     0.135 A 
ATOM      3  C3  <0> d           3.000   2.365  -1.208  0.00  0.00     0.042 A 
ATOM      4  N1  <0> d           1.804   1.812  -1.153  0.00  0.00    -0.233 NA
ATOM      5  C4  <0> d           1.219   1.531  -0.001  0.00  0.00     0.179 A 
ATOM      6  C5  <0> d           1.861   1.821   1.212  0.00  0.00     0.096 A 
ATOM      7  F1  <0> d           4.925   3.242  -0.132  0.00  0.00    -0.205 F 
ATOM      8  H1  <0> d           3.660   2.636   2.094  0.00  0.00     0.090 H 
ATOM      9  H2  <0> d           3.442   2.578  -2.171  0.00  0.00     0.119 H 
ENDROOT
BRANCH   6  10
ATOM     10  C6  <0> d           1.209   1.515   2.498  0.00  0.00     0.213 C 
ATOM     11  O1  <0> d           0.106   1.005   2.514  0.00  0.00    -0.644 OA
ATOM     12  O3  <0> d           1.836   1.799   3.656  0.00  0.00    -0.644 OA
ENDBRANCH   6  10
BRANCH   5  13
ATOM     13  O2  <0> d          -0.011   0.963   0.007  0.00  0.00    -0.344 OA
ATOM     14  H3  <0> d           0.002  -0.004   0.002  0.00  0.00     0.219 HD
ENDBRANCH   5  13
TORSDOF 2
