REMARK  4 active torsions:
REMARK  status: ('A' for Active; 'I' for Inactive)
REMARK    1  A    between atoms: C2_2  and  C4_7 
REMARK    2  A    between atoms: C4_7  and  C5_8 
REMARK    3  A    between atoms: C5_8  and  C6_9 
REMARK    4  A    between atoms: C6_9  and  C7_10 
ROOT
ATOM      1  C4  <0> d           1.817  -1.851  -0.025  0.00  0.00    -0.038 C 
ATOM      2  H4  <0> d           2.782  -1.914   0.480  0.00  0.00     0.040 H 
ATOM      3  H5  <0> d           1.095  -2.482   0.492  0.00  0.00     0.040 H 
ENDROOT
BRANCH   1   4
ATOM      4  C2  <0> d           1.337  -0.423  -0.013  0.00  0.00    -0.022 A 
ATOM      5  C1  <0> d           2.119   0.681  -0.015  0.00  0.00     0.003 A 
ATOM      6  N2  <0> d           1.309   1.760  -0.001  0.00  0.00    -0.289 N 
ATOM      7  H2  <0> d           3.199   0.696  -0.025  0.00  0.00     0.114 H 
ATOM      8  N1  <0> d          -0.016   1.304   0.009  0.00  0.00    -0.187 NA
ATOM      9  H1  <0> d           1.602   2.716   0.001  0.00  0.00     0.188 HD
ATOM     10  C3  <0> d           0.002  -0.004   0.002  0.00  0.00     0.029 A 
ATOM     11  H3  <0> d          -0.864  -0.649   0.006  0.00  0.00     0.118 H 
ENDBRANCH   1   4
BRANCH   1  12
ATOM     12  C5  <0> d           1.967  -2.327  -1.471  0.00  0.00    -0.052 C 
ATOM     13  H6  <0> d           1.003  -2.264  -1.976  0.00  0.00     0.034 H 
ATOM     14  H7  <0> d           2.690  -1.696  -1.988  0.00  0.00     0.034 H 
BRANCH  12  15
ATOM     15  C6  <0> d           2.455  -3.777  -1.483  0.00  0.00     0.016 C 
ATOM     16  H8  <0> d           3.419  -3.840  -0.979  0.00  0.00     0.049 H 
ATOM     17  H9  <0> d           1.733  -4.408  -0.966  0.00  0.00     0.049 H 
BRANCH  15  18
ATOM     18  C7  <0> d           2.603  -4.245  -2.908  0.00  0.00     0.172 C 
ATOM     19  O1  <0> d           2.343  -3.497  -3.820  0.00  0.00    -0.648 OA
ATOM     20  O2  <0> d           3.022  -5.495  -3.163  0.00  0.00    -0.648 OA
ENDBRANCH  15  18
ENDBRANCH  12  15
ENDBRANCH   1  12
TORSDOF 4
