REMARK  1 active torsions:
REMARK  status: ('A' for Active; 'I' for Inactive)
REMARK    1  A    between atoms: C1_1  and  C2_2 
ROOT
ATOM      1  C2  <0> d           0.002  -0.004   0.002  0.00  0.00     0.133 C 
ATOM      2  H1  <0> d           0.512  -0.358  -0.894  0.00  0.00     0.087 H 
ATOM      3  C3  <0> d          -1.431  -0.537   0.023  0.00  0.00    -0.012 C 
ATOM      4  C4  <0> d          -1.422  -2.026   0.258  0.00  0.00    -0.048 A 
ATOM      5  C5  <0> d          -2.567  -2.749  -0.040  0.00  0.00    -0.076 A 
ATOM      6  C6  <0> d          -2.603  -4.114   0.165  0.00  0.00    -0.082 A 
ATOM      7  C7  <0> d          -1.492  -4.763   0.669  0.00  0.00    -0.082 A 
ATOM      8  C8  <0> d          -0.351  -4.045   0.964  0.00  0.00    -0.075 A 
ATOM      9  C9  <0> d          -0.312  -2.673   0.757  0.00  0.00    -0.024 A 
ATOM     10  C10 <0> d           0.959  -1.934   1.083  0.00  0.00     0.136 C 
ATOM     11  N1  <0> d           0.705  -0.495   1.198  0.00  0.00     0.092 N 
ATOM     12  H5  <0> d          -1.988  -0.048   0.822  0.00  0.00     0.043 H 
ATOM     13  H6  <0> d          -1.910  -0.325  -0.933  0.00  0.00     0.043 H 
ATOM     14  H7  <0> d          -3.436  -2.242  -0.433  0.00  0.00     0.084 H 
ATOM     15  H8  <0> d          -3.497  -4.673  -0.068  0.00  0.00     0.083 H 
ATOM     16  H9  <0> d          -1.516  -5.830   0.833  0.00  0.00     0.083 H 
ATOM     17  H10 <0> d           0.517  -4.553   1.358  0.00  0.00     0.084 H 
ATOM     18  H11 <0> d           1.360  -2.306   2.026  0.00  0.00     0.086 H 
ATOM     19  H12 <0> d           1.689  -2.106   0.292  0.00  0.00     0.086 H 
ATOM     20  H13 <0> d           1.563   0.014   1.348  0.00  0.00     0.316 HD
ENDROOT
BRANCH   1  21
ATOM     21  C1  <0> d          -0.019   1.526   0.010  0.00  0.00    -0.047 C 
ATOM     22  H2  <0> d           1.004   1.903   0.003  0.00  0.00     0.030 H 
ATOM     23  H3  <0> d          -0.546   1.887  -0.873  0.00  0.00     0.030 H 
ATOM     24  H4  <0> d          -0.529   1.877   0.907  0.00  0.00     0.030 H 
ENDBRANCH   1  21
TORSDOF 1
