REMARK  0 active torsions:
REMARK  status: ('A' for Active; 'I' for Inactive)
ROOT
ATOM      1  C1  <0> d           1.172   1.783   0.000  0.00  0.00    -0.079 A 
ATOM      2  C2  <0> d          -0.013   1.076   0.008  0.00  0.00    -0.063 A 
ATOM      3  C3  <0> d          -1.230   1.758   0.017  0.00  0.00     0.047 A 
ATOM      4  C4  <0> d          -1.241   3.155   0.030  0.00  0.00    -0.026 A 
ATOM      5  C5  <0> d          -0.048   3.851   0.022  0.00  0.00     0.117 A 
ATOM      6  C6  <0> d           1.157   3.166   0.007  0.00  0.00    -0.046 A 
ATOM      7  F1  <0> d          -0.056   5.202   0.029  0.00  0.00    -0.206 F 
ATOM      8  C7  <0> d          -2.463   1.030   0.020  0.00  0.00     0.099 C 
ATOM      9  N1  <0> d          -3.441   0.452   0.022  0.00  0.00    -0.191 NA
ATOM     10  H1  <0> d           2.114   1.255  -0.011  0.00  0.00     0.083 H 
ATOM     11  H2  <0> d           0.002  -0.004   0.002  0.00  0.00     0.085 H 
ATOM     12  H3  <0> d          -2.180   3.689   0.043  0.00  0.00     0.090 H 
ATOM     13  H4  <0> d           2.087   3.714   0.001  0.00  0.00     0.088 H 
ENDROOT
TORSDOF 0
