REMARK  8 active torsions:
REMARK  status: ('A' for Active; 'I' for Inactive)
REMARK    1  A    between atoms: C1_1  and  C2_2 
REMARK    2  A    between atoms: C2_2  and  C3_3 
REMARK    3  A    between atoms: C2_2  and  C4_4 
REMARK    4  A    between atoms: C2_2  and  C5_5 
REMARK    5  A    between atoms: C5_5  and  C6_7 
REMARK    6  A    between atoms: C6_7  and  C7_8 
REMARK    7  A    between atoms: C6_7  and  C8_9 
REMARK    8  A    between atoms: C6_7  and  C9_10 
ROOT
ATOM      1  C5  <0> d          -0.223   0.799   0.548  0.00  0.00     0.018 C 
ATOM      2  N1  <0> d          -0.486  -0.129   1.389  0.00  0.00    -0.307 NA
ATOM      3  H10 <0> d          -1.491  -0.202   1.831  0.00  0.00     0.186 HD
ENDROOT
BRANCH   1   4
ATOM      4  C2  <0> d           1.153   0.899  -0.058  0.00  0.00    -0.010 C 
BRANCH   4   5
ATOM      5  C1  <0> d           1.095   0.478  -1.528  0.00  0.00    -0.065 C 
ATOM      6  H1  <0> d           0.738  -0.560  -1.598  0.00  0.00     0.028 H 
ATOM      7  H2  <0> d           2.099   0.551  -1.970  0.00  0.00     0.028 H 
ATOM      8  H3  <0> d           0.405   1.140  -2.072  0.00  0.00     0.028 H 
ENDBRANCH   4   5
BRANCH   4   9
ATOM      9  C3  <0> d           1.649   2.343   0.039  0.00  0.00    -0.065 C 
ATOM     10  H4  <0> d           1.691   2.646   1.096  0.00  0.00     0.028 H 
ATOM     11  H5  <0> d           0.960   3.005  -0.505  0.00  0.00     0.028 H 
ATOM     12  H6  <0> d           2.654   2.416  -0.403  0.00  0.00     0.028 H 
ENDBRANCH   4   9
BRANCH   4  13
ATOM     13  C4  <0> d           2.111  -0.022   0.699  0.00  0.00    -0.065 C 
ATOM     14  H7  <0> d           2.153   0.281   1.756  0.00  0.00     0.028 H 
ATOM     15  H8  <0> d           3.116   0.051   0.257  0.00  0.00     0.028 H 
ATOM     16  H9  <0> d           1.754  -1.060   0.629  0.00  0.00     0.028 H 
ENDBRANCH   4  13
ENDBRANCH   1   4
BRANCH   1  17
ATOM     17  C6  <0> d          -1.292   1.788   0.158  0.00  0.00    -0.010 C 
BRANCH  17  18
ATOM     18  C7  <0> d          -2.655   1.276   0.627  0.00  0.00    -0.065 C 
ATOM     19  H11 <0> d          -3.435   1.998   0.343  0.00  0.00     0.028 H 
ATOM     20  H12 <0> d          -2.647   1.158   1.721  0.00  0.00     0.028 H 
ATOM     21  H13 <0> d          -2.865   0.305   0.155  0.00  0.00     0.028 H 
ENDBRANCH  17  18
BRANCH  17  22
ATOM     22  C8  <0> d          -1.000   3.138   0.816  0.00  0.00    -0.065 C 
ATOM     23  H14 <0> d          -1.780   3.860   0.531  0.00  0.00     0.028 H 
ATOM     24  H15 <0> d          -0.020   3.506   0.479  0.00  0.00     0.028 H 
ATOM     25  H16 <0> d          -0.992   3.020   1.909  0.00  0.00     0.028 H 
ENDBRANCH  17  22
BRANCH  17  26
ATOM     26  C9  <0> d          -1.304   1.953  -1.363  0.00  0.00    -0.065 C 
ATOM     27  H17 <0> d          -2.084   2.675  -1.647  0.00  0.00     0.028 H 
ATOM     28  H18 <0> d          -1.514   0.982  -1.835  0.00  0.00     0.028 H 
ATOM     29  H19 <0> d          -0.324   2.321  -1.700  0.00  0.00     0.028 H 
ENDBRANCH  17  26
ENDBRANCH   1  17
TORSDOF 8
