REMARK  3 active torsions:
REMARK  status: ('A' for Active; 'I' for Inactive)
REMARK    1  A    between atoms: C1_1  and  O1_2 
REMARK    2  A    between atoms: O1_2  and  C2_3 
REMARK    3  A    between atoms: C3_4  and  N1_11 
ROOT
ATOM      1  C2  <0> d          -0.148   1.182   2.381  0.00  0.00     0.136 A 
ATOM      2  C3  <0> d          -0.561   0.004   2.999  0.00  0.00     0.062 A 
ATOM      3  C4  <0> d          -0.011  -0.367   4.217  0.00  0.00    -0.052 A 
ATOM      4  C5  <0> d           0.938   0.437   4.822  0.00  0.00    -0.040 A 
ATOM      5  C6  <0> d           1.345   1.610   4.212  0.00  0.00     0.157 A 
ATOM      6  C7  <0> d           0.803   1.984   2.991  0.00  0.00     0.190 A 
ATOM      7  F1  <0> d           1.202   3.130   2.397  0.00  0.00    -0.200 F 
ATOM      8  F2  <0> d           2.272   2.393   4.806  0.00  0.00    -0.203 F 
ATOM      9  H4  <0> d          -0.327  -1.282   4.696  0.00  0.00     0.087 H 
ATOM     10  H5  <0> d           1.362   0.148   5.772  0.00  0.00     0.088 H 
ENDROOT
BRANCH   1  11
ATOM     11  O1  <0> d          -0.682   1.547   1.184  0.00  0.00    -0.351 OA
BRANCH  11  12
ATOM     12  C1  <0> d          -0.013   1.086   0.008  0.00  0.00     0.011 C 
ATOM     13  H1  <0> d           0.002  -0.004   0.002  0.00  0.00     0.067 H 
ATOM     14  H2  <0> d           1.010   1.463   0.000  0.00  0.00     0.067 H 
ATOM     15  H3  <0> d          -0.540   1.447  -0.875  0.00  0.00     0.067 H 
ENDBRANCH  11  12
ENDBRANCH   1  11
BRANCH   2  16
ATOM     16  N1  <0> d          -1.527  -0.807   2.389  0.00  0.00    -0.397 N 
ATOM     17  H6  <0> d          -1.908  -0.549   1.535  0.00  0.00     0.156 HD
ATOM     18  H7  <0> d          -1.814  -1.627   2.820  0.00  0.00     0.156 HD
ENDBRANCH   2  16
TORSDOF 3
