REMARK  5 active torsions:
REMARK  status: ('A' for Active; 'I' for Inactive)
REMARK    1  A    between atoms: C1_1  and  O1_2 
REMARK    2  A    between atoms: O1_2  and  C2_3 
REMARK    3  A    between atoms: C2_3  and  C3_5 
REMARK    4  A    between atoms: C3_5  and  C4_6 
REMARK    5  A    between atoms: C5_9  and  N4_12 
ROOT
ATOM      1  C3  <0> d          -1.244  -2.135   0.003  0.00  0.00     0.074 C 
ATOM      2  H5  <0> d          -0.753  -2.514  -0.894  0.00  0.00     0.060 H 
ATOM      3  H6  <0> d          -0.736  -2.523   0.886  0.00  0.00     0.060 H 
ENDROOT
BRANCH   1   4
ATOM      4  C2  <0> d          -1.185  -0.630   0.010  0.00  0.00     0.265 C 
ATOM      5  O2  <0> d          -2.208   0.015   0.023  0.00  0.00    -0.265 OA
BRANCH   4   6
ATOM      6  O1  <0> d           0.002  -0.004   0.002  0.00  0.00    -0.326 OA
BRANCH   6   7
ATOM      7  C1  <0> d          -0.017   1.425   0.010  0.00  0.00     0.013 C 
ATOM      8  H2  <0> d           1.005   1.802   0.002  0.00  0.00     0.067 H 
ATOM      9  H3  <0> d          -0.544   1.786  -0.873  0.00  0.00     0.067 H 
ATOM     10  H4  <0> d          -0.527   1.776   0.907  0.00  0.00     0.067 H 
ENDBRANCH   6   7
ENDBRANCH   4   6
ENDBRANCH   1   4
BRANCH   1  11
ATOM     11  C4  <0> d          -2.683  -2.582   0.014  0.00  0.00     0.174 A 
ATOM     12  N1  <0> d          -3.432  -2.806  -1.067  0.00  0.00    -0.046 NA
ATOM     13  C5  <0> d          -4.638  -3.184  -0.700  0.00  0.00     0.716 A 
ATOM     14  N2  <0> d          -4.672  -3.206   0.649  0.00  0.00    -0.106 N 
ATOM     15  H1  <0> d          -5.428  -3.445   1.208  0.00  0.00     0.208 HD
ATOM     16  N3  <0> d          -3.394  -2.818   1.083  0.00  0.00    -0.143 NA
BRANCH  13  17
ATOM     17  N4  <0> d          -5.685  -3.502  -1.547  0.00  0.00    -0.231 N 
ATOM     18  H7  <0> d          -5.562  -3.455  -2.508  0.00  0.00     0.174 HD
ATOM     19  H8  <0> d          -6.541  -3.771  -1.180  0.00  0.00     0.174 HD
ENDBRANCH  13  17
ENDBRANCH   1  11
TORSDOF 5
