REMARK  3 active torsions:
REMARK  status: ('A' for Active; 'I' for Inactive)
REMARK    1  A    between atoms: C1_1  and  C2_2 
REMARK    2  A    between atoms: C2_2  and  C3_3 
REMARK    3  A    between atoms: C4_4  and  N1_5 
ROOT
ATOM      1  C3  <0> d           1.121   1.728   0.004  0.00  0.00    -0.086 C 
ATOM      2  C4  <0> d          -0.019   1.065   0.015  0.00  0.00     0.001 C 
ATOM      3  H6  <0> d           2.057   1.193   0.069  0.00  0.00     0.079 H 
ATOM      4  H7  <0> d          -0.016  -0.015  -0.003  0.00  0.00     0.114 H 
ENDROOT
BRANCH   1   5
ATOM      5  C2  <0> d           1.117   3.231  -0.100  0.00  0.00    -0.052 C 
ATOM      6  H4  <0> d           0.557   3.533  -0.985  0.00  0.00     0.038 H 
ATOM      7  H5  <0> d           0.649   3.656   0.788  0.00  0.00     0.038 H 
BRANCH   5   8
ATOM      8  C1  <0> d           2.557   3.738  -0.209  0.00  0.00    -0.073 C 
ATOM      9  H1  <0> d           3.116   3.436   0.676  0.00  0.00     0.027 H 
ATOM     10  H2  <0> d           3.025   3.314  -1.097  0.00  0.00     0.027 H 
ATOM     11  H3  <0> d           2.554   4.826  -0.284  0.00  0.00     0.027 H 
ENDBRANCH   5   8
ENDBRANCH   1   5
BRANCH   2  12
ATOM     12  N1  <0> d          -1.229   1.759   0.046  0.00  0.00    -0.238 N 
ATOM     13  N3  <0> d          -1.404   3.151  -0.028  0.00  0.00    -0.160 NA
ATOM     14  C6  <0> d          -2.691   3.374   0.035  0.00  0.00     0.107 A 
ATOM     15  N2  <0> d          -3.329   2.209   0.144  0.00  0.00    -0.233 NA
ATOM     16  H9  <0> d          -3.161   4.346   0.005  0.00  0.00     0.149 H 
ATOM     17  C5  <0> d          -2.464   1.227   0.145  0.00  0.00     0.089 A 
ATOM     18  H8  <0> d          -2.698   0.175   0.217  0.00  0.00     0.146 H 
ENDBRANCH   2  12
TORSDOF 3
