REMARK  4 active torsions:
REMARK  status: ('A' for Active; 'I' for Inactive)
REMARK    1  A    between atoms: C6_8  and  C9_14 
REMARK    2  A    between atoms: C7_10  and  C8_12 
REMARK    3  A    between atoms: C8_12  and  O1_13 
REMARK    4  A    between atoms: C9_14  and  O2_15 
ROOT
ATOM      1  C1  <0> d          -0.019   1.568   0.011  0.00  0.00    -0.051 C 
ATOM      2  C2  <0> d           1.549   1.681  -0.004  0.00  0.00    -0.032 C 
ATOM      3  H1  <0> d           1.967   2.685  -0.077  0.00  0.00     0.046 H 
ATOM      4  C3  <0> d           1.869   0.725  -1.160  0.00  0.00    -0.102 C 
ATOM      5  C4  <0> d           0.977  -0.245  -1.157  0.00  0.00    -0.102 C 
ATOM      6  C5  <0> d           0.002  -0.004   0.002  0.00  0.00    -0.032 C 
ATOM      7  H2  <0> d          -0.963  -0.506  -0.066  0.00  0.00     0.046 H 
ATOM      8  C6  <0> d           0.855  -0.281   1.281  0.00  0.00    -0.021 C 
ATOM      9  H3  <0> d           0.234  -0.228   2.175  0.00  0.00     0.044 H 
ATOM     10  C7  <0> d           1.901   0.878   1.289  0.00  0.00    -0.021 C 
ATOM     11  H4  <0> d           1.797   1.508   2.172  0.00  0.00     0.044 H 
ATOM     12  H5  <0> d          -0.459   1.975   0.921  0.00  0.00     0.035 H 
ATOM     13  H6  <0> d          -0.476   1.985  -0.887  0.00  0.00     0.035 H 
ATOM     14  H7  <0> d           2.685   0.830  -1.859  0.00  0.00     0.077 H 
ATOM     15  H8  <0> d           0.940  -1.071  -1.852  0.00  0.00     0.077 H 
ENDROOT
BRANCH   8  16
ATOM     16  C9  <0> d           1.541  -1.646   1.184  0.00  0.00     0.021 C 
ATOM     17  H12 <0> d           2.104  -1.704   0.253  0.00  0.00     0.074 H 
ATOM     18  H13 <0> d           2.219  -1.772   2.028  0.00  0.00     0.074 H 
BRANCH  16  19
ATOM     19  O2  <0> d           0.553  -2.678   1.209  0.00  0.00    -0.400 OA
ATOM     20  H14 <0> d           0.916  -3.572   1.151  0.00  0.00     0.209 HD
ENDBRANCH  16  19
ENDBRANCH   8  16
BRANCH  10  21
ATOM     21  C8  <0> d           3.317   0.306   1.198  0.00  0.00     0.021 C 
ATOM     22  H9  <0> d           3.503  -0.344   2.054  0.00  0.00     0.074 H 
ATOM     23  H10 <0> d           3.419  -0.268   0.277  0.00  0.00     0.074 H 
BRANCH  21  24
ATOM     24  O1  <0> d           4.264   1.376   1.199  0.00  0.00    -0.400 OA
ATOM     25  H11 <0> d           5.185   1.087   1.143  0.00  0.00     0.209 HD
ENDBRANCH  21  24
ENDBRANCH  10  21
TORSDOF 4
