REMARK  1 active torsions:
REMARK  status: ('A' for Active; 'I' for Inactive)
REMARK    1  A    between atoms: N2_4  and  C4_6 
ROOT
ATOM      1  C1  <0> d           3.232  -3.316  -0.048  0.00  0.00    -0.047 A 
ATOM      2  C2  <0> d           1.929  -3.828  -0.039  0.00  0.00     0.024 A 
ATOM      3  N1  <0> d           1.091  -2.823  -0.025  0.00  0.00    -0.165 NA
ATOM      4  N2  <0> d           1.832  -1.634  -0.025  0.00  0.00    -0.069 N 
ATOM      5  C3  <0> d           3.150  -1.966  -0.044  0.00  0.00     0.024 A 
ATOM      6  H1  <0> d           4.142  -3.897  -0.060  0.00  0.00     0.087 H 
ATOM      7  H2  <0> d           1.661  -4.874  -0.042  0.00  0.00     0.117 H 
ATOM      8  H3  <0> d           3.982  -1.277  -0.053  0.00  0.00     0.115 H 
ENDROOT
BRANCH   4   9
ATOM      9  C4  <0> d           1.311  -0.342  -0.012  0.00  0.00     0.788 A 
ATOM     10  N5  <0> d           2.000   0.776  -0.013  0.00  0.00     0.069 NA
ATOM     11  N4  <0> d           1.212   1.790   0.000  0.00  0.00    -0.006 NA
ATOM     12  N3  <0> d          -0.017   1.402   0.010  0.00  0.00    -0.006 NA
ATOM     13  N6  <0> d           0.024   0.013   0.002  0.00  0.00     0.069 NA
ENDBRANCH   4   9
TORSDOF 1
