REMARK  2 active torsions:
REMARK  status: ('A' for Active; 'I' for Inactive)
REMARK    1  A    between atoms: C1_1  and  C6_7 
REMARK    2  A    between atoms: C2_2  and  C3_3 
ROOT
ATOM      1  C3  <0> d           0.071  -5.106  -0.026  0.00  0.00     0.002 C 
ATOM      2  C4  <0> d           0.087  -6.279  -0.033  0.00  0.00     0.027 C 
ATOM      3  C5  <0> d           0.106  -7.656  -0.040  0.00  0.00     0.153 C 
ATOM      4  N1  <0> d           0.121  -8.792  -0.046  0.00  0.00    -0.182 NA
ENDROOT
BRANCH   1   5
ATOM      5  C2  <0> d           0.053  -3.729  -0.018  0.00  0.00     0.000 C 
ATOM      6  C1  <0> d           0.037  -2.555  -0.012  0.00  0.00     0.000 C 
BRANCH   6   7
ATOM      7  C6  <0> d           0.018  -1.178  -0.004  0.00  0.00     0.002 C 
ATOM      8  C7  <0> d           0.002  -0.004   0.002  0.00  0.00     0.027 C 
ATOM      9  C8  <0> d          -0.017   1.373   0.010  0.00  0.00     0.153 C 
ATOM     10  N2  <0> d          -0.032   2.509   0.016  0.00  0.00    -0.182 NA
ENDBRANCH   6   7
ENDBRANCH   1   5
TORSDOF 2
