REMARK  2 active torsions:
REMARK  status: ('A' for Active; 'I' for Inactive)
REMARK    1  A    between atoms: C1_1  and  C2_2 
REMARK    2  A    between atoms: C5_6  and  C8_10 
ROOT
ATOM      1  C2  <0> d           1.159   2.039   0.002  0.00  0.00    -0.023 A 
ATOM      2  C3  <0> d          -0.016   1.314   0.009  0.00  0.00     0.009 A 
ATOM      3  N1  <0> d           0.002  -0.004   0.002  0.00  0.00    -0.272 NA
ATOM      4  C4  <0> d           1.129  -0.689  -0.012  0.00  0.00     0.009 A 
ATOM      5  C5  <0> d           2.350  -0.045  -0.021  0.00  0.00    -0.023 A 
ATOM      6  C6  <0> d           2.379   1.354  -0.013  0.00  0.00     0.059 A 
ATOM      7  C7  <0> d           3.622   2.065  -0.021  0.00  0.00     0.100 C 
ATOM      8  N2  <0> d           4.609   2.628  -0.027  0.00  0.00    -0.191 NA
ATOM      9  H4  <0> d          -0.963   1.834   0.017  0.00  0.00     0.115 H 
ATOM     10  H5  <0> d           1.096  -1.768  -0.018  0.00  0.00     0.115 H 
ENDROOT
BRANCH   1  11
ATOM     11  C1  <0> d           1.128   3.546   0.010  0.00  0.00    -0.048 C 
ATOM     12  H1  <0> d           0.084   3.891   0.022  0.00  0.00     0.033 H 
ATOM     13  H2  <0> d           1.630   3.928  -0.891  0.00  0.00     0.033 H 
ATOM     14  H3  <0> d           1.647   3.919   0.905  0.00  0.00     0.033 H 
ENDBRANCH   1  11
BRANCH   5  15
ATOM     15  C8  <0> d           3.632  -0.836  -0.037  0.00  0.00    -0.048 C 
ATOM     16  H6  <0> d           4.489  -0.146  -0.042  0.00  0.00     0.033 H 
ATOM     17  H7  <0> d           3.663  -1.465  -0.940  0.00  0.00     0.033 H 
ATOM     18  H8  <0> d           3.680  -1.475   0.857  0.00  0.00     0.033 H 
ENDBRANCH   5  15
TORSDOF 2
