REMARK  1 active torsions:
REMARK  status: ('A' for Active; 'I' for Inactive)
REMARK    1  A    between atoms: N1_4  and  C5_6 
ROOT
ATOM      1  C1  <0> d          -0.016   1.344   0.009  0.00  0.00    -0.066 A 
ATOM      2  C2  <0> d           1.322   1.786  -0.001  0.00  0.00    -0.066 A 
ATOM      3  C3  <0> d           2.110   0.691  -0.014  0.00  0.00    -0.014 A 
ATOM      4  N1  <0> d           1.305  -0.413  -0.013  0.00  0.00    -0.318 N 
ATOM      5  C4  <0> d           0.002  -0.004   0.002  0.00  0.00    -0.014 A 
ATOM      6  H2  <0> d          -0.895   1.971   0.025  0.00  0.00     0.085 H 
ATOM      7  H3  <0> d           1.656   2.813   0.001  0.00  0.00     0.085 H 
ATOM      8  H4  <0> d           3.190   0.688  -0.025  0.00  0.00     0.112 H 
ATOM      9  H5  <0> d          -0.864  -0.649   0.007  0.00  0.00     0.112 H 
ENDROOT
BRANCH   4  10
ATOM     10  C5  <0> d           1.743  -1.740  -0.024  0.00  0.00     0.129 A 
ATOM     11  N3  <0> d           3.030  -2.157  -0.039  0.00  0.00    -0.263 N 
ATOM     12  N2  <0> d           3.028  -3.558  -0.044  0.00  0.00    -0.185 NA
ATOM     13  H1  <0> d           3.814  -1.587  -0.043  0.00  0.00     0.191 HD
ATOM     14  C7  <0> d           1.786  -3.969  -0.040  0.00  0.00     0.025 A 
ATOM     15  C6  <0> d           0.952  -2.847  -0.028  0.00  0.00    -0.020 A 
ATOM     16  H7  <0> d           1.460  -4.999  -0.046  0.00  0.00     0.117 H 
ATOM     17  H6  <0> d          -0.128  -2.857  -0.022  0.00  0.00     0.091 H 
ENDBRANCH   4  10
TORSDOF 1
