REMARK  0 active torsions:
REMARK  status: ('A' for Active; 'I' for Inactive)
ROOT
ATOM      1  C1  <0> d           1.204  -0.680  -0.013  0.00  0.00    -0.060 A 
ATOM      2  C2  <0> d           0.002  -0.004   0.002  0.00  0.00    -0.041 A 
ATOM      3  C3  <0> d          -0.017   1.381   0.010  0.00  0.00     0.154 A 
ATOM      4  C4  <0> d           1.173   2.097   0.002  0.00  0.00     0.156 A 
ATOM      5  C5  <0> d           2.382   1.429  -0.013  0.00  0.00    -0.023 A 
ATOM      6  C6  <0> d           2.404   0.033  -0.021  0.00  0.00     0.047 A 
ATOM      7  C7  <0> d           3.655  -0.665  -0.038  0.00  0.00     0.099 C 
ATOM      8  N1  <0> d           4.646  -1.219  -0.051  0.00  0.00    -0.191 NA
ATOM      9  F1  <0> d           1.149   3.447   0.009  0.00  0.00    -0.203 F 
ATOM     10  F2  <0> d          -1.197   2.038   0.019  0.00  0.00    -0.203 F 
ATOM     11  H1  <0> d           1.216  -1.760  -0.020  0.00  0.00     0.086 H 
ATOM     12  H2  <0> d          -0.926  -0.555   0.008  0.00  0.00     0.088 H 
ATOM     13  H3  <0> d           3.307   1.986  -0.019  0.00  0.00     0.090 H 
ENDROOT
TORSDOF 0
