REMARK  3 active torsions:
REMARK  status: ('A' for Active; 'I' for Inactive)
REMARK    1  A    between atoms: C1_1  and  C2_2 
REMARK    2  A    between atoms: C4_5  and  N2_7 
REMARK    3  A    between atoms: N2_7  and  C5_8 
ROOT
ATOM      1  C2  <0> d           2.188   0.709  -0.015  0.00  0.00     0.040 A 
ATOM      2  C3  <0> d           1.747   1.989  -0.004  0.00  0.00    -0.018 A 
ATOM      3  S1  <0> d          -0.021   1.732   0.012  0.00  0.00    -0.062 SA
ATOM      4  C4  <0> d           0.002  -0.004   0.002  0.00  0.00     0.167 A 
ATOM      5  N1  <0> d           1.296  -0.264  -0.012  0.00  0.00    -0.229 NA
ATOM      6  H4  <0> d           2.309   2.911  -0.004  0.00  0.00     0.098 H 
ENDROOT
BRANCH   4   7
ATOM      7  N2  <0> d          -1.064  -0.890   0.007  0.00  0.00    -0.364 N 
ATOM      8  H5  <0> d          -0.879  -1.974  -0.001  0.00  0.00     0.162 HD
BRANCH   7   9
ATOM      9  C5  <0> d          -2.438  -0.382   0.023  0.00  0.00     0.011 A 
ATOM     10  C7  <0> d          -3.533  -1.288  -0.544  0.00  0.00    -0.044 A 
ATOM     11  C6  <0> d          -3.432  -1.061   0.967  0.00  0.00    -0.044 A 
ATOM     12  H9  <0> d          -4.170  -0.709  -1.228  0.00  0.00     0.036 H 
ATOM     13  H10 <0> d          -3.071  -2.123  -1.090  0.00  0.00     0.036 H 
ATOM     14  H7  <0> d          -2.886  -1.710   1.669  0.00  0.00     0.036 H 
ATOM     15  H8  <0> d          -3.985  -0.295   1.530  0.00  0.00     0.036 H 
ATOM     16  H6  <0> d          -2.088   0.646  -0.154  0.00  0.00     0.072 H 
ENDBRANCH   7   9
ENDBRANCH   4   7
BRANCH   1  17
ATOM     17  C1  <0> d           3.663   0.402  -0.031  0.00  0.00    -0.035 C 
ATOM     18  H1  <0> d           4.233   1.342  -0.031  0.00  0.00     0.035 H 
ATOM     19  H2  <0> d           3.907  -0.176  -0.934  0.00  0.00     0.035 H 
ATOM     20  H3  <0> d           3.925  -0.186   0.862  0.00  0.00     0.035 H 
ENDBRANCH   1  17
TORSDOF 3
