REMARK  0 active torsions:
REMARK  status: ('A' for Active; 'I' for Inactive)
ROOT
ATOM      1  C1  <0> d          -0.019   1.534   0.011  0.00  0.00    -0.007 C 
ATOM      2  C2  <0> d           1.518   1.476  -0.004  0.00  0.00     0.005 C 
ATOM      3  C3  <0> d           1.394   0.090   0.649  0.00  0.00     0.293 C 
ATOM      4  C4  <0> d           0.002  -0.004   0.002  0.00  0.00     0.243 C 
ATOM      5  F1  <0> d          -0.964  -0.582   0.833  0.00  0.00    -0.219 F 
ATOM      6 Cl1  <0> d           0.022  -0.717  -1.654  0.00  0.00    -0.076 Cl
ATOM      7  F2  <0> d           2.307  -0.847   0.152  0.00  0.00    -0.201 F 
ATOM      8  F3  <0> d           1.361   0.130   2.047  0.00  0.00    -0.201 F 
ATOM      9  H1  <0> d          -0.431   1.960   0.925  0.00  0.00     0.040 H 
ATOM     10  H2  <0> d          -0.448   1.969  -0.892  0.00  0.00     0.040 H 
ATOM     11  H3  <0> d           1.944   1.450  -1.007  0.00  0.00     0.042 H 
ATOM     12  H4  <0> d           1.989   2.221   0.637  0.00  0.00     0.042 H 
ENDROOT
TORSDOF 0
