REMARK  0 active torsions:
REMARK  status: ('A' for Active; 'I' for Inactive)
ROOT
ATOM      1  C1  <0> d          -0.016   1.317   0.009  0.00  0.00     0.027 A 
ATOM      2  C2  <0> d           1.200   2.011   0.001  0.00  0.00     0.102 A 
ATOM      3  C3  <0> d           2.386   1.264  -0.014  0.00  0.00     0.149 A 
ATOM      4  N1  <0> d           2.309  -0.057  -0.020  0.00  0.00    -0.228 NA
ATOM      5  C4  <0> d           1.141  -0.668  -0.012  0.00  0.00     0.087 A 
ATOM      6  N2  <0> d           0.002  -0.004   0.002  0.00  0.00    -0.252 NA
ATOM      7 Cl1  <0> d           3.929   2.059  -0.025  0.00  0.00    -0.061 Cl
ATOM      8  C5  <0> d           1.231   3.443   0.008  0.00  0.00     0.104 C 
ATOM      9  N3  <0> d           1.256   4.578   0.014  0.00  0.00    -0.191 NA
ATOM     10  H1  <0> d          -0.953   1.853   0.026  0.00  0.00     0.117 H 
ATOM     11  H2  <0> d           1.117  -1.748  -0.018  0.00  0.00     0.146 H 
ENDROOT
TORSDOF 0
