REMARK  1 active torsions:
REMARK  status: ('A' for Active; 'I' for Inactive)
REMARK    1  A    between atoms: C2_2  and  C3_7 
ROOT
ATOM      1  C1  <0> d          -0.016   1.307   0.009  0.00  0.00     0.059 A 
ATOM      2  C2  <0> d           1.335   1.709  -0.002  0.00  0.00     0.173 A 
ATOM      3  N1  <0> d           2.039   0.586  -0.014  0.00  0.00    -0.149 NA
ATOM      4  N2  <0> d           1.222  -0.407  -0.012  0.00  0.00    -0.196 N 
ATOM      5  H1  <0> d           1.500  -1.368  -0.020  0.00  0.00     0.212 HD
ATOM      6  N3  <0> d           0.002  -0.004   0.002  0.00  0.00    -0.167 NA
ATOM      7  H2  <0> d          -0.886   1.947   0.017  0.00  0.00     0.121 H 
ENDROOT
BRANCH   2   8
ATOM      8  C3  <0> d           1.857   3.090   0.001  0.00  0.00     0.232 C 
ATOM      9  O1  <0> d           1.088   4.030   0.013  0.00  0.00    -0.643 OA
ATOM     10  O2  <0> d           3.187   3.308  -0.011  0.00  0.00    -0.643 OA
ENDBRANCH   2   8
TORSDOF 1
