REMARK  2 active torsions:
REMARK  status: ('A' for Active; 'I' for Inactive)
REMARK    1  A    between atoms: C1_1  and  N1_2 
REMARK       I    between atoms: N1_2  and  C2_3 
REMARK    2  A    between atoms: C2_3  and  C3_5 
ROOT
ATOM      1  C3  <0> d          -0.136   3.797   0.024  0.00  0.00     0.123 A 
ATOM      2  C4  <0> d           1.111   3.176   0.009  0.00  0.00    -0.050 A 
ATOM      3  C5  <0> d           1.174   1.792   0.001  0.00  0.00    -0.079 A 
ATOM      4  C6  <0> d          -0.013   1.076   0.008  0.00  0.00    -0.066 A 
ATOM      5  C7  <0> d          -1.218   1.759   0.017  0.00  0.00     0.003 A 
ATOM      6  N2  <0> d          -1.249   3.074   0.030  0.00  0.00    -0.256 NA
ATOM      7  H5  <0> d           2.016   3.766   0.003  0.00  0.00     0.087 H 
ATOM      8  H6  <0> d           2.127   1.283  -0.011  0.00  0.00     0.083 H 
ATOM      9  H7  <0> d           0.002  -0.004   0.002  0.00  0.00     0.085 H 
ATOM     10  H8  <0> d          -2.145   1.204   0.019  0.00  0.00     0.114 H 
ENDROOT
BRANCH   1  11
ATOM     11  C2  <0> d          -0.221   5.276   0.033  0.00  0.00     0.269 C 
ATOM     12  N1  <0> d          -1.425   5.882   0.047  0.00  0.00    -0.360 N 
ATOM     13  H4  <0> d          -2.344   5.278   0.053  0.00  0.00     0.162 HD
ATOM     14  O1  <0> d           0.795   5.943   0.026  0.00  0.00    -0.266 OA
BRANCH  12  15
ATOM     15  C1  <0> d          -1.508   7.345   0.056  0.00  0.00    -0.018 C 
ATOM     16  H1  <0> d          -2.564   7.651   0.068  0.00  0.00     0.056 H 
ATOM     17  H2  <0> d          -1.020   7.745  -0.845  0.00  0.00     0.056 H 
ATOM     18  H3  <0> d          -1.003   7.735   0.952  0.00  0.00     0.056 H 
ENDBRANCH  12  15
ENDBRANCH   1  11
TORSDOF 2
