REMARK  0 active torsions:
REMARK  status: ('A' for Active; 'I' for Inactive)
ROOT
ATOM      1  C1  <0> d           1.192   2.069   0.002  0.00  0.00    -0.064 A 
ATOM      2  C2  <0> d          -0.017   1.396   0.010  0.00  0.00    -0.057 A 
ATOM      3  C3  <0> d           0.002  -0.004   0.002  0.00  0.00     0.102 A 
ATOM      4  C4  <0> d           1.237  -0.662  -0.013  0.00  0.00     0.230 A 
ATOM      5  N1  <0> d           2.362   0.026  -0.020  0.00  0.00    -0.232 NA
ATOM      6  C5  <0> d           2.371   1.346  -0.013  0.00  0.00     0.005 A 
ATOM      7  F1  <0> d           1.278  -2.013  -0.021  0.00  0.00    -0.183 F 
ATOM      8  C6  <0> d          -1.221  -0.749   0.010  0.00  0.00     0.104 C 
ATOM      9  N2  <0> d          -2.191  -1.341   0.017  0.00  0.00    -0.191 NA
ATOM     10  H1  <0> d           1.215   3.148   0.007  0.00  0.00     0.085 H 
ATOM     11  H2  <0> d          -0.952   1.937   0.017  0.00  0.00     0.086 H 
ATOM     12  H3  <0> d           3.315   1.870  -0.020  0.00  0.00     0.114 H 
ENDROOT
TORSDOF 0
