REMARK  1 active torsions:
REMARK  status: ('A' for Active; 'I' for Inactive)
REMARK    1  A    between atoms: N1_3  and  C4_6 
ROOT
ATOM      1  C1  <0> d          -0.016   1.337   0.009  0.00  0.00     0.018 A 
ATOM      2  C2  <0> d           1.259   1.771  -0.000  0.00  0.00    -0.002 A 
ATOM      3  N1  <0> d           2.056   0.658  -0.014  0.00  0.00    -0.345 N 
ATOM      4  C3  <0> d           1.240  -0.418  -0.012  0.00  0.00     0.066 A 
ATOM      5  N2  <0> d           0.002  -0.004   0.002  0.00  0.00    -0.255 NA
ATOM      6  H1  <0> d          -0.898   1.960   0.025  0.00  0.00     0.117 H 
ATOM      7  H2  <0> d           1.589   2.799   0.002  0.00  0.00     0.113 H 
ATOM      8  H3  <0> d           1.558  -1.450  -0.021  0.00  0.00     0.143 H 
ENDROOT
BRANCH   3   9
ATOM      9  C4  <0> d           3.521   0.638  -0.028  0.00  0.00     0.017 A 
ATOM     10  C6  <0> d           4.206  -0.043  -1.214  0.00  0.00    -0.044 A 
ATOM     11  C5  <0> d           4.210  -0.714   0.162  0.00  0.00    -0.044 A 
ATOM     12  H7  <0> d           3.568  -0.477  -1.983  0.00  0.00     0.036 H 
ATOM     13  H8  <0> d           5.144   0.385  -1.567  0.00  0.00     0.036 H 
ATOM     14  H5  <0> d           5.151  -0.726   0.713  0.00  0.00     0.036 H 
ATOM     15  H6  <0> d           3.575  -1.589   0.297  0.00  0.00     0.036 H 
ATOM     16  H4  <0> d           4.007   1.516   0.398  0.00  0.00     0.073 H 
ENDBRANCH   3   9
TORSDOF 1
