REMARK  4 active torsions:
REMARK  status: ('A' for Active; 'I' for Inactive)
REMARK    1  A    between atoms: C1_1  and  O1_2 
REMARK    2  A    between atoms: O1_2  and  C2_3 
REMARK    3  A    between atoms: C2_3  and  C3_5 
REMARK    4  A    between atoms: C5_8  and  N2_10 
ROOT
ATOM      1  C3  <0> d          -3.340   2.067   0.030  0.00  0.00     0.158 A 
ATOM      2  C4  <0> d          -2.678   3.255   0.034  0.00  0.00     0.056 A 
ATOM      3  O3  <0> d          -1.362   2.975   0.030  0.00  0.00    -0.288 OA
ATOM      4  C5  <0> d          -1.216   1.640   0.017  0.00  0.00     0.244 A 
ATOM      5  N1  <0> d          -2.398   1.081   0.019  0.00  0.00    -0.201 NA
ATOM      6  H4  <0> d          -3.124   4.238   0.042  0.00  0.00     0.127 H 
ENDROOT
BRANCH   1   7
ATOM      7  C2  <0> d          -4.800   1.881   0.036  0.00  0.00     0.313 C 
ATOM      8  O2  <0> d          -5.536   2.849   0.045  0.00  0.00    -0.257 OA
BRANCH   7   9
ATOM      9  O1  <0> d          -5.321   0.638   0.031  0.00  0.00    -0.321 OA
BRANCH   9  10
ATOM     10  C1  <0> d          -6.769   0.530   0.037  0.00  0.00     0.013 C 
ATOM     11  H1  <0> d          -7.165   1.010   0.932  0.00  0.00     0.067 H 
ATOM     12  H2  <0> d          -7.174   1.021  -0.848  0.00  0.00     0.067 H 
ATOM     13  H3  <0> d          -7.055  -0.522   0.032  0.00  0.00     0.067 H 
ENDBRANCH   9  10
ENDBRANCH   7   9
ENDBRANCH   1   7
BRANCH   4  14
ATOM     14  N2  <0> d          -0.011   0.966   0.007  0.00  0.00    -0.363 N 
ATOM     15  H5  <0> d           0.002  -0.004   0.002  0.00  0.00     0.159 HD
ATOM     16  H6  <0> d           0.822   1.462   0.002  0.00  0.00     0.159 HD
ENDBRANCH   4  14
TORSDOF 4
