REMARK  6 active torsions:
REMARK  status: ('A' for Active; 'I' for Inactive)
REMARK    1  A    between atoms: C1_1  and  C2_2 
REMARK    2  A    between atoms: C2_2  and  C3_3 
REMARK    3  A    between atoms: C2_2  and  C4_4 
REMARK    4  A    between atoms: C4_4  and  N1_5 
REMARK       I    between atoms: N1_5  and  C5_6 
REMARK       I    between atoms: C5_6  and  N2_8 
REMARK    5  A    between atoms: N2_8  and  C6_9 
REMARK    6  A    between atoms: C6_9  and  C7_10 
ROOT
ATOM      1  N1  <0> d           2.125  -0.091  -1.209  0.00  0.00    -0.343 N 
ATOM      2  C5  <0> d           2.955  -0.418  -2.220  0.00  0.00     0.316 C 
ATOM      3  O1  <0> d           2.537  -1.050  -3.170  0.00  0.00    -0.247 OA
ATOM      4  N2  <0> d           4.249  -0.044  -2.176  0.00  0.00    -0.340 N 
ATOM      5  H10 <0> d           2.459   0.413  -0.451  0.00  0.00     0.164 HD
ATOM      6  H11 <0> d           4.583   0.460  -1.417  0.00  0.00     0.164 HD
ENDROOT
BRANCH   1   7
ATOM      7  C4  <0> d           0.718  -0.497  -1.257  0.00  0.00    -0.001 C 
ATOM      8  H8  <0> d           0.656  -1.585  -1.308  0.00  0.00     0.064 H 
ATOM      9  H9  <0> d           0.244  -0.064  -2.138  0.00  0.00     0.064 H 
BRANCH   7  10
ATOM     10  C2  <0> d           0.002  -0.004   0.002  0.00  0.00    -0.046 C 
ATOM     11  H4  <0> d           0.529  -0.365   0.885  0.00  0.00     0.041 H 
BRANCH  10  12
ATOM     12  C1  <0> d          -0.019   1.526   0.010  0.00  0.00    -0.072 C 
ATOM     13  H1  <0> d           1.004   1.903   0.003  0.00  0.00     0.028 H 
ATOM     14  H2  <0> d          -0.546   1.887  -0.873  0.00  0.00     0.028 H 
ATOM     15  H3  <0> d          -0.529   1.877   0.907  0.00  0.00     0.028 H 
ENDBRANCH  10  12
BRANCH  10  16
ATOM     16  C3  <0> d          -1.433  -0.534   0.013  0.00  0.00    -0.072 C 
ATOM     17  H5  <0> d          -1.960  -0.173  -0.870  0.00  0.00     0.028 H 
ATOM     18  H6  <0> d          -1.419  -1.623   0.007  0.00  0.00     0.028 H 
ATOM     19  H7  <0> d          -1.944  -0.182   0.910  0.00  0.00     0.028 H 
ENDBRANCH  10  16
ENDBRANCH   7  10
ENDBRANCH   1   7
BRANCH   4  20
ATOM     20  C6  <0> d           5.152  -0.399  -3.274  0.00  0.00     0.011 C 
ATOM     21  H12 <0> d           5.194  -1.484  -3.373  0.00  0.00     0.070 H 
ATOM     22  H13 <0> d           4.783   0.036  -4.202  0.00  0.00     0.070 H 
BRANCH  20  23
ATOM     23  C7  <0> d           6.531   0.133  -2.982  0.00  0.00    -0.095 C 
ATOM     24  C8  <0> d           7.560  -0.678  -2.984  0.00  0.00    -0.123 C 
ATOM     25  H15 <0> d           7.420  -1.728  -3.195  0.00  0.00     0.066 H 
ATOM     26  H16 <0> d           8.549  -0.296  -2.775  0.00  0.00     0.066 H 
ATOM     27  H14 <0> d           6.672   1.183  -2.772  0.00  0.00     0.078 H 
ENDBRANCH  20  23
ENDBRANCH   4  20
TORSDOF 6
