REMARK  1 active torsions:
REMARK  status: ('A' for Active; 'I' for Inactive)
REMARK    1  A    between atoms: C1_1  and  C2_2 
ROOT
ATOM      1  C2  <0> d          -0.718   1.572   1.248  0.00  0.00     0.032 A 
ATOM      2  C3  <0> d           0.009   1.803   2.400  0.00  0.00    -0.057 A 
ATOM      3  C4  <0> d          -0.648   2.250   3.536  0.00  0.00    -0.041 A 
ATOM      4  C5  <0> d          -2.020   2.450   3.471  0.00  0.00     0.156 A 
ATOM      5  C6  <0> d          -2.682   2.197   2.280  0.00  0.00     0.164 A 
ATOM      6  N1  <0> d          -2.021   1.776   1.218  0.00  0.00    -0.238 NA
ATOM      7 Cl1  <0> d          -4.397   2.442   2.182  0.00  0.00    -0.059 Cl
ATOM      8  F1  <0> d          -2.700   2.886   4.553  0.00  0.00    -0.203 F 
ATOM      9  H4  <0> d           1.076   1.637   2.415  0.00  0.00     0.086 H 
ATOM     10  H5  <0> d          -0.104   2.438   4.451  0.00  0.00     0.088 H 
ENDROOT
BRANCH   1  11
ATOM     11  C1  <0> d          -0.013   1.086   0.008  0.00  0.00    -0.035 C 
ATOM     12  H1  <0> d           0.002  -0.004   0.002  0.00  0.00     0.035 H 
ATOM     13  H2  <0> d           1.010   1.463   0.000  0.00  0.00     0.035 H 
ATOM     14  H3  <0> d          -0.540   1.447  -0.875  0.00  0.00     0.035 H 
ENDBRANCH   1  11
TORSDOF 1
