REMARK  3 active torsions:
REMARK  status: ('A' for Active; 'I' for Inactive)
REMARK    1  A    between atoms: C3_4  and  C6_9 
REMARK    2  A    between atoms: C4_6  and  C5_7 
REMARK    3  A    between atoms: C5_7  and  O1_8 
ROOT
ATOM      1  C1  <0> d          -0.017   1.382   0.010  0.00  0.00    -0.040 A 
ATOM      2  C2  <0> d           1.194   2.057   0.002  0.00  0.00     0.006 A 
ATOM      3  N1  <0> d           2.319   1.362  -0.013  0.00  0.00    -0.245 NA
ATOM      4  C3  <0> d           2.298   0.044  -0.020  0.00  0.00     0.130 A 
ATOM      5  N2  <0> d           1.167  -0.632  -0.013  0.00  0.00    -0.235 NA
ATOM      6  C4  <0> d           0.002  -0.004   0.002  0.00  0.00     0.061 A 
ATOM      7  H1  <0> d          -0.952   1.922   0.026  0.00  0.00     0.088 H 
ATOM      8  H2  <0> d           1.218   3.137   0.007  0.00  0.00     0.114 H 
ENDROOT
BRANCH   4   9
ATOM      9  C6  <0> d           3.603  -0.710  -0.037  0.00  0.00     0.005 A 
ATOM     10  C8  <0> d           4.542  -0.470  -1.220  0.00  0.00    -0.054 A 
ATOM     11  C7  <0> d           4.888   0.097   0.158  0.00  0.00    -0.054 A 
ATOM     12  H9  <0> d           5.128  -1.317  -1.577  0.00  0.00     0.034 H 
ATOM     13  H10 <0> d           4.217   0.234  -1.986  0.00  0.00     0.034 H 
ATOM     14  H7  <0> d           4.790   1.173   0.299  0.00  0.00     0.034 H 
ATOM     15  H8  <0> d           5.701  -0.377   0.708  0.00  0.00     0.034 H 
ATOM     16  H6  <0> d           3.571  -1.715   0.384  0.00  0.00     0.052 H 
ENDBRANCH   4   9
BRANCH   6  17
ATOM     17  C5  <0> d          -1.287  -0.785   0.011  0.00  0.00     0.057 C 
ATOM     18  H3  <0> d          -1.340  -1.408  -0.882  0.00  0.00     0.083 H 
ATOM     19  H4  <0> d          -1.322  -1.418   0.898  0.00  0.00     0.083 H 
BRANCH  17  20
ATOM     20  O1  <0> d          -2.392   0.120   0.026  0.00  0.00    -0.395 OA
ATOM     21  H5  <0> d          -3.256  -0.315   0.033  0.00  0.00     0.209 HD
ENDBRANCH  17  20
ENDBRANCH   6  17
TORSDOF 3
