REMARK  2 active torsions:
REMARK  status: ('A' for Active; 'I' for Inactive)
REMARK    1  A    between atoms: C1_1  and  C2_2 
REMARK    2  A    between atoms: C5_5  and  N3_12 
ROOT
ATOM      1  C2  <0> d           0.002  -0.004   0.002  0.00  0.00     0.054 A 
ATOM      2  C3  <0> d           0.006  -0.674  -1.191  0.00  0.00    -0.043 A 
ATOM      3  C4  <0> d           0.025  -2.078  -1.147  0.00  0.00     0.022 A 
ATOM      4  C5  <0> d           0.031  -2.865  -2.315  0.00  0.00     0.038 A 
ATOM      5  C6  <0> d           0.051  -4.240  -2.201  0.00  0.00    -0.057 A 
ATOM      6  C7  <0> d           0.065  -4.848  -0.949  0.00  0.00    -0.079 A 
ATOM      7  C8  <0> d           0.060  -4.110   0.195  0.00  0.00    -0.052 A 
ATOM      8  C9  <0> d           0.040  -2.708   0.125  0.00  0.00     0.091 A 
ATOM      9  N1  <0> d           0.035  -1.948   1.224  0.00  0.00    -0.149 NA
ATOM     10  N2  <0> d           0.022  -0.666   1.150  0.00  0.00    -0.155 NA
ATOM     11  H4  <0> d          -0.007  -0.143  -2.131  0.00  0.00     0.088 H 
ATOM     12  H5  <0> d           0.056  -4.851  -3.091  0.00  0.00     0.086 H 
ATOM     13  H6  <0> d           0.081  -5.926  -0.884  0.00  0.00     0.083 H 
ATOM     14  H7  <0> d           0.070  -4.603   1.157  0.00  0.00     0.087 H 
ENDROOT
BRANCH   1  15
ATOM     15  C1  <0> d          -0.018   1.503   0.010  0.00  0.00    -0.034 C 
ATOM     16  H1  <0> d           1.004   1.880   0.003  0.00  0.00     0.035 H 
ATOM     17  H2  <0> d          -0.545   1.864  -0.873  0.00  0.00     0.035 H 
ATOM     18  H3  <0> d          -0.529   1.854   0.907  0.00  0.00     0.035 H 
ENDBRANCH   1  15
BRANCH   4  19
ATOM     19  N3  <0> d           0.016  -2.263  -3.570  0.00  0.00    -0.398 N 
ATOM     20  H8  <0> d           0.002  -1.296  -3.644  0.00  0.00     0.156 HD
ATOM     21  H9  <0> d           0.021  -2.811  -4.371  0.00  0.00     0.156 HD
ENDBRANCH   4  19
TORSDOF 2
