REMARK  1 active torsions:
REMARK  status: ('A' for Active; 'I' for Inactive)
REMARK    1  A    between atoms: C2_2  and  C5_8 
ROOT
ATOM      1  C1  <0> d          -2.505   1.221   0.015  0.00  0.00     0.038 A 
ATOM      2  C2  <0> d          -1.306   1.933   0.019  0.00  0.00     0.150 A 
ATOM      3  N1  <0> d          -1.326   3.263   0.026  0.00  0.00    -0.249 NA
ATOM      4  C3  <0> d          -2.477   3.903   0.035  0.00  0.00     0.042 A 
ATOM      5  C4  <0> d          -3.671   3.192   0.036  0.00  0.00     0.143 A 
ATOM      6  N2  <0> d          -3.656   1.869   0.029  0.00  0.00    -0.245 NA
ATOM      7 Cl1  <0> d          -5.185   4.040   0.048  0.00  0.00    -0.061 Cl
ATOM      8  H1  <0> d          -2.493   0.141   0.004  0.00  0.00     0.118 H 
ATOM      9  H2  <0> d          -2.493   4.983   0.041  0.00  0.00     0.119 H 
ENDROOT
BRANCH   2  10
ATOM     10  C5  <0> d          -0.014   1.210   0.009  0.00  0.00     0.230 C 
ATOM     11  O1  <0> d           0.002  -0.004   0.002  0.00  0.00    -0.643 OA
ATOM     12  O2  <0> d           1.143   1.899   0.001  0.00  0.00    -0.643 OA
ENDBRANCH   2  10
TORSDOF 1
