REMARK  5 active torsions:
REMARK  status: ('A' for Active; 'I' for Inactive)
REMARK    1  A    between atoms: C1_1  and  C2_2 
REMARK    2  A    between atoms: C2_2  and  C3_3 
REMARK    3  A    between atoms: C3_3  and  C4_5 
REMARK    4  A    between atoms: C3_3  and  O2_14 
REMARK    5  A    between atoms: C9_11  and  O1_13 
ROOT
ATOM      1  C4  <0> d           1.417   2.055  -0.000  0.00  0.00    -0.004 C 
ATOM      2  H2  <0> d           1.944   1.694   0.883  0.00  0.00     0.047 H 
ATOM      3  C5  <0> d          -0.019   1.526   0.010  0.00  0.00    -0.057 C 
ATOM      4  C6  <0> d           0.002  -0.004   0.002  0.00  0.00    -0.064 C 
ATOM      5  C7  <0> d           0.718  -0.497  -1.257  0.00  0.00    -0.063 C 
ATOM      6  C8  <0> d           2.154   0.032  -1.268  0.00  0.00    -0.041 C 
ATOM      7  C9  <0> d           2.133   1.562  -1.259  0.00  0.00     0.041 C 
ATOM      8  H3  <0> d           1.606   1.923  -2.142  0.00  0.00     0.083 H 
ATOM      9  H9  <0> d          -0.546   1.887  -0.873  0.00  0.00     0.033 H 
ATOM     10  H10 <0> d          -0.529   1.877   0.907  0.00  0.00     0.033 H 
ATOM     11  H11 <0> d           0.529  -0.365   0.885  0.00  0.00     0.033 H 
ATOM     12  H12 <0> d          -1.020  -0.381   0.010  0.00  0.00     0.033 H 
ATOM     13  H13 <0> d           0.733  -1.587  -1.263  0.00  0.00     0.033 H 
ATOM     14  H14 <0> d           0.191  -0.136  -2.140  0.00  0.00     0.033 H 
ATOM     15  H15 <0> d           2.681  -0.329  -0.385  0.00  0.00     0.036 H 
ATOM     16  H16 <0> d           2.664  -0.319  -2.164  0.00  0.00     0.036 H 
ENDROOT
BRANCH   1  17
ATOM     17  C3  <0> d           1.396   3.585   0.008  0.00  0.00     0.041 C 
ATOM     18  H1  <0> d           0.869   3.946  -0.875  0.00  0.00     0.083 H 
BRANCH  17  19
ATOM     19  C2  <0> d           0.680   4.079   1.267  0.00  0.00    -0.044 C 
ATOM     20  H7  <0> d          -0.312   3.630   1.320  0.00  0.00     0.036 H 
ATOM     21  H8  <0> d           1.255   3.793   2.147  0.00  0.00     0.036 H 
BRANCH  19  22
ATOM     22  C1  <0> d           0.549   5.602   1.215  0.00  0.00    -0.074 C 
ATOM     23  H4  <0> d           1.541   6.051   1.162  0.00  0.00     0.027 H 
ATOM     24  H5  <0> d          -0.026   5.888   0.334  0.00  0.00     0.027 H 
ATOM     25  H6  <0> d           0.039   5.954   2.112  0.00  0.00     0.027 H 
ENDBRANCH  19  22
ENDBRANCH  17  19
BRANCH  17  26
ATOM     26  O2  <0> d           2.737   4.080  -0.002  0.00  0.00    -0.395 OA
ATOM     27  H18 <0> d           3.266   3.797   0.756  0.00  0.00     0.210 HD
ENDBRANCH  17  26
ENDBRANCH   1  17
BRANCH   7  28
ATOM     28  O1  <0> d           3.474   2.057  -1.269  0.00  0.00    -0.395 OA
ATOM     29  H17 <0> d           3.988   1.782  -2.041  0.00  0.00     0.210 HD
ENDBRANCH   7  28
TORSDOF 5
