REMARK  3 active torsions:
REMARK  status: ('A' for Active; 'I' for Inactive)
REMARK    1  A    between atoms: C1_1  and  C2_2 
REMARK    2  A    between atoms: C2_2  and  C3_4 
REMARK    3  A    between atoms: N1_7  and  C7_9 
ROOT
ATOM      1  C3  <0> d          -1.292   1.924   0.019  0.00  0.00     0.026 A 
ATOM      2  C4  <0> d          -1.493   3.379   0.034  0.00  0.00    -0.053 A 
ATOM      3  C5  <0> d          -2.822   3.578   0.036  0.00  0.00    -0.020 A 
ATOM      4  N1  <0> d          -3.456   2.370   0.032  0.00  0.00    -0.370 N 
ATOM      5  C6  <0> d          -2.558   1.368   0.022  0.00  0.00    -0.008 A 
ATOM      6  H4  <0> d          -0.725   4.138   0.040  0.00  0.00     0.087 H 
ATOM      7  H5  <0> d          -3.310   4.541   0.044  0.00  0.00     0.111 H 
ATOM      8  H6  <0> d          -2.786   0.313   0.016  0.00  0.00     0.113 H 
ENDROOT
BRANCH   1   9
ATOM      9  C2  <0> d          -0.014   1.209   0.009  0.00  0.00     0.157 C 
ATOM     10  O1  <0> d           0.002  -0.004   0.002  0.00  0.00    -0.293 OA
BRANCH   9  11
ATOM     11  C1  <0> d           1.280   1.980   0.001  0.00  0.00    -0.017 C 
ATOM     12  H1  <0> d           1.558   2.156  -0.944  0.00  0.00     0.038 H 
ATOM     13  H2  <0> d           1.142   2.928   0.521  0.00  0.00     0.038 H 
ATOM     14  H3  <0> d           2.053   1.399   0.504  0.00  0.00     0.038 H 
ENDBRANCH   9  11
ENDBRANCH   1   9
BRANCH   4  15
ATOM     15  C7  <0> d          -4.909   2.189   0.038  0.00  0.00    -0.015 C 
ATOM     16  H7  <0> d          -5.265   2.138   1.067  0.00  0.00     0.057 H 
ATOM     17  H8  <0> d          -5.382   3.030  -0.468  0.00  0.00     0.057 H 
ATOM     18  H9  <0> d          -5.163   1.264  -0.480  0.00  0.00     0.057 H 
ENDBRANCH   4  15
TORSDOF 3
