REMARK  3 active torsions:
REMARK  status: ('A' for Active; 'I' for Inactive)
REMARK    1  A    between atoms: C1_1  and  C2_2 
REMARK    2  A    between atoms: C5_6  and  C6_7 
REMARK    3  A    between atoms: C6_7  and  C7_9 
ROOT
ATOM      1  C2  <0> d           2.238   1.062  -0.014  0.00  0.00    -0.041 A 
ATOM      2  C3  <0> d           1.299   2.059   0.001  0.00  0.00    -0.070 A 
ATOM      3  C4  <0> d          -0.021   1.729   0.012  0.00  0.00    -0.044 A 
ATOM      4  S1  <0> d           0.002  -0.004   0.002  0.00  0.00    -0.098 SA
ATOM      5  C5  <0> d           1.769  -0.248  -0.016  0.00  0.00     0.056 A 
ATOM      6  H4  <0> d           1.603   3.096   0.003  0.00  0.00     0.085 H 
ATOM      7  H5  <0> d          -0.877   2.388   0.019  0.00  0.00     0.095 H 
ENDROOT
BRANCH   5   8
ATOM      8  C6  <0> d           2.502  -1.456  -0.030  0.00  0.00     0.163 C 
ATOM      9  O1  <0> d           3.716  -1.429  -0.042  0.00  0.00    -0.292 OA
BRANCH   8  10
ATOM     10  C7  <0> d           1.776  -2.776  -0.030  0.00  0.00    -0.016 C 
ATOM     11  H6  <0> d           1.194  -2.837  -0.841  0.00  0.00     0.038 H 
ATOM     12  H7  <0> d           2.502  -3.590  -0.042  0.00  0.00     0.038 H 
ATOM     13  H8  <0> d           1.160  -2.853   0.866  0.00  0.00     0.038 H 
ENDBRANCH   8  10
ENDBRANCH   5   8
BRANCH   1  14
ATOM     14  C1  <0> d           3.713   1.370  -0.026  0.00  0.00    -0.050 C 
ATOM     15  H1  <0> d           4.059   1.450  -1.056  0.00  0.00     0.033 H 
ATOM     16  H2  <0> d           3.892   2.313   0.492  0.00  0.00     0.033 H 
ATOM     17  H3  <0> d           4.256   0.571   0.479  0.00  0.00     0.033 H 
ENDBRANCH   1  14
TORSDOF 3
