REMARK  3 active torsions:
REMARK  status: ('A' for Active; 'I' for Inactive)
REMARK    1  A    between atoms: C1_1  and  C2_2 
REMARK    2  A    between atoms: C3_4  and  N4_8 
REMARK    3  A    between atoms: N2_5  and  C4_7 
ROOT
ATOM      1  C2  <0> d          -0.732   3.424   0.026  0.00  0.00     0.162 A 
ATOM      2  N1  <0> d          -1.091   2.139   0.018  0.00  0.00    -0.047 NA
ATOM      3  C3  <0> d          -0.017   1.379   0.010  0.00  0.00     0.718 A 
ATOM      4  N2  <0> d           1.063   2.189   0.004  0.00  0.00    -0.102 N 
ATOM      5  N3  <0> d           0.572   3.504   0.015  0.00  0.00    -0.142 NA
ENDROOT
BRANCH   1   6
ATOM      6  C1  <0> d          -1.679   4.596   0.040  0.00  0.00    -0.017 C 
ATOM      7  H1  <0> d          -1.917   4.883  -0.985  0.00  0.00     0.038 H 
ATOM      8  H2  <0> d          -2.595   4.316   0.561  0.00  0.00     0.038 H 
ATOM      9  H3  <0> d          -1.211   5.436   0.553  0.00  0.00     0.038 H 
ENDBRANCH   1   6
BRANCH   4  10
ATOM     10  C4  <0> d           2.469   1.777  -0.012  0.00  0.00     0.020 C 
ATOM     11  H4  <0> d           2.808   1.681  -1.043  0.00  0.00     0.060 H 
ATOM     12  H5  <0> d           3.073   2.526   0.500  0.00  0.00     0.060 H 
ATOM     13  H6  <0> d           2.573   0.818   0.496  0.00  0.00     0.060 H 
ENDBRANCH   4  10
BRANCH   3  14
ATOM     14  N4  <0> d           0.002  -0.004   0.002  0.00  0.00    -0.231 N 
ATOM     15  H7  <0> d           0.849  -0.478  -0.009  0.00  0.00     0.174 HD
ATOM     16  H8  <0> d          -0.831  -0.500   0.007  0.00  0.00     0.174 HD
ENDBRANCH   3  14
TORSDOF 3
