REMARK  1 active torsions:
REMARK  status: ('A' for Active; 'I' for Inactive)
REMARK    1  A    between atoms: C2_2  and  C5_8 
REMARK       I    between atoms: C5_8  and  N3_10 
ROOT
ATOM      1  C1  <0> d          -2.506   1.222   0.015  0.00  0.00     0.037 A 
ATOM      2  C2  <0> d          -1.307   1.934   0.019  0.00  0.00     0.141 A 
ATOM      3  N1  <0> d          -1.327   3.264   0.026  0.00  0.00    -0.251 NA
ATOM      4  C3  <0> d          -2.478   3.905   0.035  0.00  0.00     0.042 A 
ATOM      5  C4  <0> d          -3.671   3.193   0.036  0.00  0.00     0.143 A 
ATOM      6  N2  <0> d          -3.656   1.871   0.030  0.00  0.00    -0.245 NA
ATOM      7 Cl1  <0> d          -5.186   4.042   0.048  0.00  0.00    -0.061 Cl
ATOM      8  H1  <0> d          -2.494   0.142   0.004  0.00  0.00     0.118 H 
ATOM      9  H2  <0> d          -2.494   4.984   0.041  0.00  0.00     0.119 H 
ENDROOT
BRANCH   2  10
ATOM     10  C5  <0> d          -0.014   1.211   0.009  0.00  0.00     0.269 C 
ATOM     11  O1  <0> d           0.002  -0.004   0.002  0.00  0.00    -0.266 OA
ATOM     12  N3  <0> d           1.143   1.901   0.001  0.00  0.00    -0.365 N 
ATOM     13  H3  <0> d           1.990   1.427  -0.009  0.00  0.00     0.159 HD
ATOM     14  H4  <0> d           1.130   2.871   0.007  0.00  0.00     0.159 HD
ENDBRANCH   2  10
TORSDOF 1
