REMARK  3 active torsions:
REMARK  status: ('A' for Active; 'I' for Inactive)
REMARK    1  A    between atoms: C1_1  and  O1_2 
REMARK    2  A    between atoms: O1_2  and  C2_3 
REMARK    3  A    between atoms: C5_6  and  C8_9 
ROOT
ATOM      1  C2  <0> d           1.175   2.087   0.002  0.00  0.00     0.068 A 
ATOM      2  C3  <0> d          -0.017   1.374   0.010  0.00  0.00    -0.050 A 
ATOM      3  C4  <0> d           0.002  -0.004   0.002  0.00  0.00    -0.070 A 
ATOM      4  C5  <0> d           1.221  -0.684  -0.013  0.00  0.00    -0.037 A 
ATOM      5  C6  <0> d           2.417   0.036  -0.021  0.00  0.00    -0.070 A 
ATOM      6  C7  <0> d           2.390   1.414  -0.013  0.00  0.00    -0.050 A 
ATOM      7  H4  <0> d          -0.960   1.901   0.017  0.00  0.00     0.087 H 
ATOM      8  H5  <0> d          -0.925  -0.557   0.008  0.00  0.00     0.084 H 
ATOM      9  H6  <0> d           3.362  -0.486  -0.032  0.00  0.00     0.084 H 
ATOM     10  H7  <0> d           3.315   1.972  -0.019  0.00  0.00     0.087 H 
ENDROOT
BRANCH   1  11
ATOM     11  O1  <0> d           1.153   3.445   0.009  0.00  0.00    -0.356 OA
BRANCH  11  12
ATOM     12  C1  <0> d           2.415   4.115   0.001  0.00  0.00     0.010 C 
ATOM     13  H1  <0> d           2.985   3.827   0.884  0.00  0.00     0.066 H 
ATOM     14  H2  <0> d           2.969   3.836  -0.896  0.00  0.00     0.066 H 
ATOM     15  H3  <0> d           2.254   5.193   0.008  0.00  0.00     0.066 H 
ENDBRANCH  11  12
ENDBRANCH   1  11
BRANCH   4  16
ATOM     16  C8  <0> d           1.246  -2.161  -0.021  0.00  0.00    -0.082 C 
ATOM     17  C9  <0> d           2.405  -2.805  -0.035  0.00  0.00    -0.120 C 
ATOM     18  H9  <0> d           3.331  -2.249  -0.042  0.00  0.00     0.066 H 
ATOM     19  H10 <0> d           2.423  -3.885  -0.041  0.00  0.00     0.066 H 
ATOM     20  H8  <0> d           0.320  -2.717  -0.015  0.00  0.00     0.083 H 
ENDBRANCH   4  16
TORSDOF 3
