REMARK  2 active torsions:
REMARK  status: ('A' for Active; 'I' for Inactive)
REMARK    1  A    between atoms: C1_1  and  C2_2 
REMARK    2  A    between atoms: C5_5  and  N2_9 
ROOT
ATOM      1  C2  <0> d           0.002  -0.004   0.002  0.00  0.00    -0.021 A 
ATOM      2  C3  <0> d           0.006  -0.699  -1.200  0.00  0.00    -0.071 A 
ATOM      3  C4  <0> d           0.025  -2.082  -1.163  0.00  0.00    -0.038 A 
ATOM      4  C5  <0> d           0.040  -2.726   0.069  0.00  0.00     0.122 A 
ATOM      5  N1  <0> d           0.036  -2.029   1.195  0.00  0.00    -0.219 NA
ATOM      6  C6  <0> d           0.023  -0.709   1.191  0.00  0.00     0.134 A 
ATOM      7 Cl1  <0> d           0.025   0.153   2.698  0.00  0.00    -0.062 Cl
ATOM      8  H4  <0> d          -0.006  -0.171  -2.142  0.00  0.00     0.084 H 
ATOM      9  H5  <0> d           0.029  -2.653  -2.080  0.00  0.00     0.089 H 
ENDROOT
BRANCH   1  10
ATOM     10  C1  <0> d          -0.018   1.503   0.010  0.00  0.00    -0.048 C 
ATOM     11  H1  <0> d           1.004   1.880   0.003  0.00  0.00     0.033 H 
ATOM     12  H2  <0> d          -0.545   1.864  -0.873  0.00  0.00     0.033 H 
ATOM     13  H3  <0> d          -0.529   1.854   0.907  0.00  0.00     0.033 H 
ENDBRANCH   1  10
BRANCH   4  14
ATOM     14  N2  <0> d           0.059  -4.115   0.119  0.00  0.00    -0.384 N 
ATOM     15  H6  <0> d           0.062  -4.630  -0.703  0.00  0.00     0.157 HD
ATOM     16  H7  <0> d           0.070  -4.569   0.976  0.00  0.00     0.157 HD
ENDBRANCH   4  14
TORSDOF 2
