REMARK  2 active torsions:
REMARK  status: ('A' for Active; 'I' for Inactive)
REMARK    1  A    between atoms: C1_1  and  N1_2 
REMARK    2  A    between atoms: N1_2  and  C2_3 
ROOT
ATOM      1  N1  <0> d          -0.011   0.966   0.007  0.00  0.00    -0.371 N 
ATOM      2  H4  <0> d           0.002  -0.004   0.002  0.00  0.00     0.161 HD
ENDROOT
BRANCH   1   3
ATOM      3  C1  <0> d           1.248   1.716  -0.001  0.00  0.00    -0.019 C 
ATOM      4  H1  <0> d           2.086   1.019  -0.012  0.00  0.00     0.056 H 
ATOM      5  H2  <0> d           1.288   2.348  -0.888  0.00  0.00     0.056 H 
ATOM      6  H3  <0> d           1.305   2.338   0.892  0.00  0.00     0.056 H 
ENDBRANCH   1   3
BRANCH   1   7
ATOM      7  C2  <0> d          -1.219   1.641   0.017  0.00  0.00     0.209 A 
ATOM      8  S1  <0> d          -2.839   1.016   0.021  0.00  0.00     0.076 SA
ATOM      9  N4  <0> d          -3.651   2.526   0.033  0.00  0.00    -0.087 NA
ATOM     10  N3  <0> d          -2.655   3.356   0.033  0.00  0.00    -0.033 NA
ATOM     11  N2  <0> d          -1.459   2.947   0.031  0.00  0.00    -0.103 NA
ENDBRANCH   1   7
TORSDOF 2
