REMARK  7 active torsions:
REMARK  status: ('A' for Active; 'I' for Inactive)
REMARK    1  A    between atoms: C1_1  and  C2_2 
REMARK    2  A    between atoms: C2_2  and  C3_4 
REMARK    3  A    between atoms: C2_2  and  C4_6 
REMARK    4  A    between atoms: C3_4  and  O1_5 
REMARK    5  A    between atoms: C4_6  and  C5_7 
REMARK    6  A    between atoms: C4_6  and  C6_8 
REMARK    7  A    between atoms: C4_6  and  O2_9 
ROOT
ATOM      1  C2  <0> d          -0.729   1.579   1.267  0.00  0.00    -0.008 C 
ATOM      2  H1  <0> d          -1.785   1.274   1.231  0.00  0.00     0.047 H 
ENDROOT
BRANCH   1   3
ATOM      3  C1  <0> d          -0.641   3.105   1.339  0.00  0.00    -0.068 C 
ATOM      4  H2  <0> d          -1.156   3.460   2.244  0.00  0.00     0.028 H 
ATOM      5  H3  <0> d          -1.119   3.542   0.450  0.00  0.00     0.028 H 
ATOM      6  H4  <0> d           0.415   3.410   1.374  0.00  0.00     0.028 H 
ENDBRANCH   1   3
BRANCH   1   7
ATOM      7  C3  <0> d          -0.013   1.086   0.008  0.00  0.00     0.022 C 
ATOM      8  H5  <0> d           1.019   1.466   0.000  0.00  0.00     0.074 H 
ATOM      9  H6  <0> d           0.002  -0.014   0.002  0.00  0.00     0.074 H 
BRANCH   7  10
ATOM     10  O1  <0> d          -0.704   1.559  -1.150  0.00  0.00    -0.400 OA
ATOM     11  H7  <0> d          -0.334   1.304  -2.154  0.00  0.00     0.209 HD
ENDBRANCH   7  10
ENDBRANCH   1   7
BRANCH   1  12
ATOM     12  C4  <0> d          -0.064   0.971   2.503  0.00  0.00     0.056 C 
BRANCH  12  13
ATOM     13  C5  <0> d           1.405   1.396   2.553  0.00  0.00    -0.048 C 
ATOM     14  H8  <0> d           1.883   0.959   3.442  0.00  0.00     0.031 H 
ATOM     15  H9  <0> d           1.468   2.493   2.604  0.00  0.00     0.031 H 
ATOM     16  H10 <0> d           1.920   1.041   1.648  0.00  0.00     0.031 H 
ENDBRANCH  12  13
BRANCH  12  17
ATOM     17  C6  <0> d          -0.780   1.465   3.762  0.00  0.00    -0.048 C 
ATOM     18  H11 <0> d          -0.302   1.028   4.651  0.00  0.00     0.031 H 
ATOM     19  H12 <0> d          -1.836   1.160   3.727  0.00  0.00     0.031 H 
ATOM     20  H13 <0> d          -0.717   2.562   3.814  0.00  0.00     0.031 H 
ENDBRANCH  12  17
BRANCH  12  21
ATOM     21  O2  <0> d          -0.146  -0.454   2.436  0.00  0.00    -0.390 OA
ATOM     22  H14 <0> d           0.281  -1.068   3.243  0.00  0.00     0.210 HD
ENDBRANCH  12  21
ENDBRANCH   1  12
TORSDOF 7
