REMARK  1 active torsions:
REMARK  status: ('A' for Active; 'I' for Inactive)
REMARK    1  A    between atoms: C4_6  and  C6_9 
ROOT
ATOM      1  C1  <0> d           3.426   2.607  -0.443  0.00  0.00    -0.043 C 
ATOM      2  C2  <0> d           2.007   3.035  -0.004  0.00  0.00    -0.006 C 
ATOM      3  C3  <0> d           1.213   1.746  -0.000  0.00  0.00     0.130 A 
ATOM      4  N1  <0> d          -0.015   1.281   0.009  0.00  0.00    -0.134 NA
ATOM      5  N2  <0> d           0.002  -0.004   0.002  0.00  0.00    -0.123 NA
ATOM      6  C4  <0> d           1.249  -0.425  -0.012  0.00  0.00     0.230 A 
ATOM      7  N3  <0> d           2.047   0.692  -0.011  0.00  0.00    -0.311 N 
ATOM      8  C5  <0> d           3.451   1.122  -0.017  0.00  0.00     0.003 C 
ATOM      9  H1  <0> d           3.547   2.705  -1.522  0.00  0.00     0.035 H 
ATOM     10  H2  <0> d           4.188   3.178   0.087  0.00  0.00     0.035 H 
ATOM     11  H3  <0> d           1.584   3.741  -0.719  0.00  0.00     0.044 H 
ATOM     12  H4  <0> d           2.030   3.472   0.994  0.00  0.00     0.044 H 
ATOM     13  H5  <0> d           3.879   1.024   0.981  0.00  0.00     0.065 H 
ATOM     14  H6  <0> d           4.023   0.534  -0.734  0.00  0.00     0.065 H 
ENDROOT
BRANCH   6  15
ATOM     15  C6  <0> d           1.702  -1.827  -0.025  0.00  0.00     0.249 C 
ATOM     16  O1  <0> d           2.890  -2.081  -0.038  0.00  0.00    -0.642 OA
ATOM     17  O2  <0> d           0.798  -2.827  -0.024  0.00  0.00    -0.642 OA
ENDBRANCH   6  15
TORSDOF 1
