REMARK  4 active torsions:
REMARK  status: ('A' for Active; 'I' for Inactive)
REMARK    1  A    between atoms: C1_1  and  O1_2 
REMARK    2  A    between atoms: O1_2  and  C2_3 
REMARK    3  A    between atoms: C2_3  and  C3_5 
REMARK    4  A    between atoms: C5_8  and  N3_11 
ROOT
ATOM      1  C3  <0> d          -3.555   2.948   0.035  0.00  0.00     0.075 A 
ATOM      2  C4  <0> d          -3.515   1.547   0.027  0.00  0.00     0.038 A 
ATOM      3  N1  <0> d          -2.343   0.941   0.018  0.00  0.00    -0.074 NA
ATOM      4  C5  <0> d          -1.215   1.639   0.017  0.00  0.00     0.719 A 
ATOM      5  N2  <0> d          -1.210   2.966   0.029  0.00  0.00    -0.074 NA
ATOM      6  C6  <0> d          -2.340   3.647   0.033  0.00  0.00     0.038 A 
ATOM      7  H4  <0> d          -4.429   0.973   0.029  0.00  0.00     0.117 H 
ATOM      8  H5  <0> d          -2.329   4.727   0.038  0.00  0.00     0.117 H 
ENDROOT
BRANCH   1   9
ATOM      9  C2  <0> d          -4.842   3.668   0.045  0.00  0.00     0.295 C 
ATOM     10  O2  <0> d          -5.886   3.046   0.047  0.00  0.00    -0.259 OA
BRANCH   9  11
ATOM     11  O1  <0> d          -4.860   5.015   0.053  0.00  0.00    -0.322 OA
BRANCH  11  12
ATOM     12  C1  <0> d          -6.163   5.657   0.063  0.00  0.00     0.013 C 
ATOM     13  H1  <0> d          -6.035   6.739   0.068  0.00  0.00     0.067 H 
ATOM     14  H2  <0> d          -6.720   5.361  -0.826  0.00  0.00     0.067 H 
ATOM     15  H3  <0> d          -6.711   5.352   0.954  0.00  0.00     0.067 H 
ENDBRANCH  11  12
ENDBRANCH   9  11
ENDBRANCH   1   9
BRANCH   4  16
ATOM     16  N3  <0> d          -0.011   0.966   0.007  0.00  0.00    -0.231 N 
ATOM     17  H6  <0> d           0.002  -0.004   0.002  0.00  0.00     0.174 HD
ATOM     18  H7  <0> d           0.822   1.462   0.002  0.00  0.00     0.174 HD
ENDBRANCH   4  16
TORSDOF 4
