REMARK  2 active torsions:
REMARK  status: ('A' for Active; 'I' for Inactive)
REMARK    1  A    between atoms: C2_2  and  N1_10 
REMARK    2  A    between atoms: C5_5  and  O1_8 
ROOT
ATOM      1  C1  <0> d          -0.013   1.076   0.008  0.00  0.00    -0.018 A 
ATOM      2  C2  <0> d           1.180   1.786   0.000  0.00  0.00     0.031 A 
ATOM      3  C3  <0> d           1.161   3.175   0.008  0.00  0.00    -0.018 A 
ATOM      4  C4  <0> d          -0.046   3.850   0.023  0.00  0.00     0.154 A 
ATOM      5  C5  <0> d          -1.239   3.139   0.031  0.00  0.00     0.143 A 
ATOM      6  C6  <0> d          -1.220   1.751   0.017  0.00  0.00     0.154 A 
ATOM      7  F1  <0> d          -2.381   1.060   0.019  0.00  0.00    -0.203 F 
ATOM      8  F2  <0> d          -0.065   5.200   0.031  0.00  0.00    -0.203 F 
ATOM      9  H1  <0> d           0.002  -0.004   0.002  0.00  0.00     0.091 H 
ATOM     10  H2  <0> d           2.089   3.728   0.002  0.00  0.00     0.091 H 
ENDROOT
BRANCH   2  11
ATOM     11  N1  <0> d           2.401   1.103  -0.015  0.00  0.00    -0.399 N 
ATOM     12  H4  <0> d           2.415   0.134  -0.020  0.00  0.00     0.156 HD
ATOM     13  H5  <0> d           3.235   1.600  -0.020  0.00  0.00     0.156 HD
ENDBRANCH   2  11
BRANCH   5  14
ATOM     14  O1  <0> d          -2.426   3.803   0.047  0.00  0.00    -0.355 OA
ATOM     15  H3  <0> d          -2.779   4.000  -0.832  0.00  0.00     0.218 HD
ENDBRANCH   5  14
TORSDOF 2
