REMARK  3 active torsions:
REMARK  status: ('A' for Active; 'I' for Inactive)
REMARK    1  A    between atoms: C2_2  and  C5_8 
REMARK    2  A    between atoms: C3_5  and  C4_6 
REMARK    3  A    between atoms: C5_8  and  O3_9 
ROOT
ATOM      1  C1  <0> d           1.374  -0.380  -0.013  0.00  0.00    -0.013 A 
ATOM      2  C2  <0> d           2.036   0.800  -0.013  0.00  0.00     0.104 A 
ATOM      3  O1  <0> d           1.104   1.763   0.001  0.00  0.00    -0.215 OA
ATOM      4  N1  <0> d          -0.016   1.306   0.009  0.00  0.00    -0.121 NA
ATOM      5  C3  <0> d           0.002  -0.004   0.002  0.00  0.00     0.163 A 
ATOM      6  H1  <0> d           1.791  -1.377  -0.022  0.00  0.00     0.091 H 
ENDROOT
BRANCH   2   7
ATOM      7  C5  <0> d           3.530   0.994  -0.026  0.00  0.00     0.063 C 
ATOM      8  H2  <0> d           3.780   1.921   0.490  0.00  0.00     0.084 H 
ATOM      9  H3  <0> d           4.010   0.156   0.478  0.00  0.00     0.084 H 
BRANCH   7  10
ATOM     10  O3  <0> d           3.989   1.063  -1.378  0.00  0.00    -0.394 OA
ATOM     11  H4  <0> d           4.945   1.188  -1.462  0.00  0.00     0.209 HD
ENDBRANCH   7  10
ENDBRANCH   2   7
BRANCH   5  12
ATOM     12  C4  <0> d          -1.171  -0.911   0.008  0.00  0.00     0.231 C 
ATOM     13  O2  <0> d          -1.007  -2.114   0.001  0.00  0.00    -0.643 OA
ATOM     14  O4  <0> d          -2.416  -0.401   0.022  0.00  0.00    -0.643 OA
ENDBRANCH   5  12
TORSDOF 3
