REMARK  4 active torsions:
REMARK  status: ('A' for Active; 'I' for Inactive)
REMARK    1  A    between atoms: C1_1  and  C2_2 
REMARK    2  A    between atoms: C3_3  and  C6_8 
REMARK    3  A    between atoms: N1_5  and  C5_7 
REMARK    4  A    between atoms: C6_8  and  O1_9 
ROOT
ATOM      1  C2  <0> d           2.197   3.986   0.003  0.00  0.00     0.060 A 
ATOM      2  C3  <0> d           1.147   3.062   0.008  0.00  0.00     0.008 A 
ATOM      3  C4  <0> d          -0.016   3.754   0.016  0.00  0.00     0.008 A 
ATOM      4  N1  <0> d           0.287   5.069   0.026  0.00  0.00    -0.284 N 
ATOM      5  N2  <0> d           1.683   5.189   0.013  0.00  0.00    -0.178 NA
ATOM      6  H4  <0> d          -1.009   3.329   0.018  0.00  0.00     0.115 H 
ENDROOT
BRANCH   2   7
ATOM      7  C6  <0> d           1.286   1.562  -0.002  0.00  0.00     0.044 C 
ATOM      8  H8  <0> d           1.840   1.243   0.881  0.00  0.00     0.081 H 
ATOM      9  H9  <0> d           1.823   1.252  -0.899  0.00  0.00     0.081 H 
BRANCH   7  10
ATOM     10  O1  <0> d          -0.011   0.963   0.007  0.00  0.00    -0.396 OA
ATOM     11  H10 <0> d           0.002  -0.004   0.002  0.00  0.00     0.209 HD
ENDBRANCH   7  10
ENDBRANCH   2   7
BRANCH   1  12
ATOM     12  C1  <0> d           3.667   3.654  -0.013  0.00  0.00    -0.033 C 
ATOM     13  H1  <0> d           4.011   3.579  -1.045  0.00  0.00     0.035 H 
ATOM     14  H2  <0> d           4.223   4.439   0.499  0.00  0.00     0.035 H 
ATOM     15  H3  <0> d           3.829   2.703   0.494  0.00  0.00     0.035 H 
ENDBRANCH   1  12
BRANCH   4  16
ATOM     16  C5  <0> d          -0.673   6.175   0.040  0.00  0.00     0.002 C 
ATOM     17  H5  <0> d          -0.921   6.454  -0.984  0.00  0.00     0.059 H 
ATOM     18  H6  <0> d          -1.579   5.863   0.561  0.00  0.00     0.059 H 
ATOM     19  H7  <0> d          -0.235   7.030   0.554  0.00  0.00     0.059 H 
ENDBRANCH   4  16
TORSDOF 4
