REMARK  4 active torsions:
REMARK  status: ('A' for Active; 'I' for Inactive)
REMARK    1  A    between atoms: C1_1  and  C2_2 
REMARK    2  A    between atoms: C2_2  and  C3_3 
REMARK    3  A    between atoms: C3_3  and  C4_5 
REMARK    4  A    between atoms: C3_3  and  N1_7 
ROOT
ATOM      1  C3  <0> d          -2.502   1.389   0.021  0.00  0.00     0.117 C 
ATOM      2  H1  <0> d          -3.141   2.153   0.462  0.00  0.00     0.093 H 
ENDROOT
BRANCH   1   3
ATOM      3  C2  <0> d          -2.951   1.114  -1.416  0.00  0.00    -0.038 C 
ATOM      4  H5  <0> d          -2.795   2.006  -2.022  0.00  0.00     0.036 H 
ATOM      5  H6  <0> d          -2.370   0.289  -1.827  0.00  0.00     0.036 H 
BRANCH   3   6
ATOM      6  C1  <0> d          -4.436   0.746  -1.424  0.00  0.00    -0.074 C 
ATOM      7  H2  <0> d          -4.593  -0.146  -0.817  0.00  0.00     0.027 H 
ATOM      8  H3  <0> d          -5.017   1.571  -1.013  0.00  0.00     0.027 H 
ATOM      9  H4  <0> d          -4.757   0.550  -2.447  0.00  0.00     0.027 H 
ENDBRANCH   3   6
ENDBRANCH   1   3
BRANCH   1  10
ATOM     10  C4  <0> d          -2.603   0.122   0.830  0.00  0.00     0.198 C 
ATOM     11  O1  <0> d          -1.616  -0.343   1.350  0.00  0.00    -0.646 OA
ATOM     12  O2  <0> d          -3.788  -0.491   0.973  0.00  0.00    -0.646 OA
ENDBRANCH   1  10
BRANCH   1  13
ATOM     13  N1  <0> d          -1.113   1.857   0.017  0.00  0.00    -0.266 N 
ATOM     14  N2  <0> d          -0.694   3.193   0.025  0.00  0.00    -0.184 NA
ATOM     15  C7  <0> d           0.614   3.211   0.013  0.00  0.00     0.023 A 
ATOM     16  C6  <0> d           1.069   1.888   0.002  0.00  0.00    -0.048 A 
ATOM     17  H9  <0> d           1.236   4.094   0.012  0.00  0.00     0.117 H 
ATOM     18  C5  <0> d          -0.013   1.076   0.008  0.00  0.00     0.001 A 
ATOM     19  H8  <0> d           2.102   1.572  -0.009  0.00  0.00     0.087 H 
ATOM     20  H7  <0> d           0.002  -0.004   0.002  0.00  0.00     0.114 H 
ENDBRANCH   1  13
TORSDOF 4
