REMARK  8 active torsions:
REMARK  status: ('A' for Active; 'I' for Inactive)
REMARK    1  A    between atoms: C1_1  and  C2_2 
REMARK    2  A    between atoms: C2_2  and  C3_3 
REMARK    3  A    between atoms: C2_2  and  C4_4 
REMARK    4  A    between atoms: C4_4  and  O1_5 
REMARK    5  A    between atoms: O1_5  and  C5_6 
REMARK    6  A    between atoms: C5_6  and  C6_7 
REMARK    7  A    between atoms: C6_7  and  C7_8 
REMARK    8  A    between atoms: C6_7  and  C8_9 
ROOT
ATOM      1  O1  <0> d           2.126   1.061  -1.116  0.00  0.00    -0.390 OA
ENDROOT
BRANCH   1   2
ATOM      2  C4  <0> d           1.423   1.615  -0.003  0.00  0.00     0.022 C 
ATOM      3  H8  <0> d           1.408   2.702  -0.086  0.00  0.00     0.074 H 
ATOM      4  H9  <0> d           1.923   1.329   0.922  0.00  0.00     0.074 H 
BRANCH   2   5
ATOM      5  C2  <0> d          -0.013   1.086   0.008  0.00  0.00    -0.041 C 
ATOM      6  H4  <0> d           0.002  -0.004   0.002  0.00  0.00     0.042 H 
BRANCH   5   7
ATOM      7  C1  <0> d          -0.753   1.593  -1.232  0.00  0.00    -0.071 C 
ATOM      8  H1  <0> d          -0.767   2.683  -1.226  0.00  0.00     0.028 H 
ATOM      9  H2  <0> d          -0.242   1.241  -2.128  0.00  0.00     0.028 H 
ATOM     10  H3  <0> d          -1.775   1.215  -1.224  0.00  0.00     0.028 H 
ENDBRANCH   5   7
BRANCH   5  11
ATOM     11  C3  <0> d          -0.729   1.579   1.267  0.00  0.00    -0.071 C 
ATOM     12  H5  <0> d          -0.744   2.669   1.273  0.00  0.00     0.028 H 
ATOM     13  H6  <0> d          -1.751   1.202   1.275  0.00  0.00     0.028 H 
ATOM     14  H7  <0> d          -0.202   1.218   2.150  0.00  0.00     0.028 H 
ENDBRANCH   5  11
ENDBRANCH   2   5
ENDBRANCH   1   2
BRANCH   1  15
ATOM     15  C5  <0> d           3.484   1.494  -1.219  0.00  0.00     0.022 C 
ATOM     16  H10 <0> d           3.513   2.578  -1.328  0.00  0.00     0.074 H 
ATOM     17  H11 <0> d           4.027   1.205  -0.319  0.00  0.00     0.074 H 
BRANCH  15  18
ATOM     18  C6  <0> d           4.136   0.842  -2.440  0.00  0.00    -0.041 C 
ATOM     19  H12 <0> d           4.029  -0.241  -2.374  0.00  0.00     0.042 H 
BRANCH  18  20
ATOM     20  C7  <0> d           3.453   1.345  -3.713  0.00  0.00    -0.071 C 
ATOM     21  H13 <0> d           3.561   2.428  -3.779  0.00  0.00     0.028 H 
ATOM     22  H14 <0> d           3.918   0.880  -4.583  0.00  0.00     0.028 H 
ATOM     23  H15 <0> d           2.395   1.086  -3.684  0.00  0.00     0.028 H 
ENDBRANCH  18  20
BRANCH  18  24
ATOM     24  C8  <0> d           5.622   1.206  -2.480  0.00  0.00    -0.071 C 
ATOM     25  H16 <0> d           6.109   0.847  -1.573  0.00  0.00     0.028 H 
ATOM     26  H17 <0> d           6.086   0.741  -3.350  0.00  0.00     0.028 H 
ATOM     27  H18 <0> d           5.729   2.288  -2.546  0.00  0.00     0.028 H 
ENDBRANCH  18  24
ENDBRANCH  15  18
ENDBRANCH   1  15
TORSDOF 8
