REMARK  6 active torsions:
REMARK  status: ('A' for Active; 'I' for Inactive)
REMARK    1  A    between atoms: C1_1  and  C2_2 
REMARK    2  A    between atoms: C2_2  and  C3_3 
REMARK    3  A    between atoms: C2_2  and  C4_4 
REMARK    4  A    between atoms: C2_2  and  O2_12 
REMARK    5  A    between atoms: C4_4  and  C5_5 
REMARK    6  A    between atoms: C5_5  and  C6_6 
ROOT
ATOM      1  C5  <0> d          -1.413  -2.059   0.130  0.00  0.00    -0.038 C 
ATOM      2  H10 <0> d          -0.876  -2.482  -0.719  0.00  0.00     0.036 H 
ATOM      3  H11 <0> d          -0.913  -2.346   1.055  0.00  0.00     0.036 H 
ENDROOT
BRANCH   1   4
ATOM      4  C4  <0> d          -1.433  -0.534   0.013  0.00  0.00    -0.035 C 
ATOM      5  H8  <0> d          -1.970  -0.111   0.862  0.00  0.00     0.037 H 
ATOM      6  H9  <0> d          -1.933  -0.247  -0.912  0.00  0.00     0.037 H 
BRANCH   4   7
ATOM      7  C2  <0> d           0.002  -0.004   0.002  0.00  0.00     0.051 C 
BRANCH   7   8
ATOM      8  C1  <0> d          -0.019   1.526   0.010  0.00  0.00    -0.048 C 
ATOM      9  H2  <0> d           1.004   1.903   0.003  0.00  0.00     0.031 H 
ATOM     10  H3  <0> d          -0.546   1.887  -0.873  0.00  0.00     0.031 H 
ATOM     11  H4  <0> d          -0.529   1.877   0.907  0.00  0.00     0.031 H 
ENDBRANCH   7   8
BRANCH   7  12
ATOM     12  C3  <0> d           0.742  -0.511   1.242  0.00  0.00    -0.048 C 
ATOM     13  H5  <0> d           0.232  -0.159   2.138  0.00  0.00     0.031 H 
ATOM     14  H6  <0> d           0.757  -1.601   1.236  0.00  0.00     0.031 H 
ATOM     15  H7  <0> d           1.765  -0.134   1.234  0.00  0.00     0.031 H 
ENDBRANCH   7  12
BRANCH   7  16
ATOM     16  O2  <0> d           0.671  -0.465  -1.174  0.00  0.00    -0.391 OA
ATOM     17  H18 <0> d           1.588  -0.167  -1.247  0.00  0.00     0.210 HD
ENDBRANCH   7  16
ENDBRANCH   4   7
ENDBRANCH   1   4
BRANCH   1  18
ATOM     18  C6  <0> d          -2.849  -2.589   0.141  0.00  0.00     0.038 C 
ATOM     19  H1  <0> d          -3.419  -2.093   0.927  0.00  0.00     0.083 H 
ATOM     20  O1  <0> d          -3.464  -2.351  -1.130  0.00  0.00    -0.386 OA
ATOM     21  C9  <0> d          -3.816  -3.602  -1.745  0.00  0.00     0.020 C 
ATOM     22  C8  <0> d          -3.969  -4.601  -0.571  0.00  0.00    -0.043 C 
ATOM     23  H16 <0> d          -3.023  -3.930  -2.419  0.00  0.00     0.074 H 
ATOM     24  H17 <0> d          -4.757  -3.506  -2.286  0.00  0.00     0.074 H 
ATOM     25  C7  <0> d          -2.842  -4.114   0.380  0.00  0.00    -0.039 C 
ATOM     26  H14 <0> d          -3.791  -5.625  -0.899  0.00  0.00     0.036 H 
ATOM     27  H15 <0> d          -4.948  -4.507  -0.100  0.00  0.00     0.036 H 
ATOM     28  H12 <0> d          -1.883  -4.547   0.098  0.00  0.00     0.036 H 
ATOM     29  H13 <0> d          -3.083  -4.345   1.418  0.00  0.00     0.036 H 
ENDBRANCH   1  18
TORSDOF 6
