REMARK  2 active torsions:
REMARK  status: ('A' for Active; 'I' for Inactive)
REMARK    1  A    between atoms: C3_3  and  C7_10 
REMARK    2  A    between atoms: C5_6  and  C6_8 
ROOT
ATOM      1  C1  <0> d          -0.019   1.571   0.011  0.00  0.00    -0.060 C 
ATOM      2  C2  <0> d           1.498   1.898  -0.002  0.00  0.00    -0.059 C 
ATOM      3  C3  <0> d           2.230   0.567  -0.315  0.00  0.00    -0.033 C 
ATOM      4  H1  <0> d           3.180   0.682  -0.837  0.00  0.00     0.043 H 
ATOM      5  C4  <0> d           1.082  -0.185  -1.120  0.00  0.00    -0.056 C 
ATOM      6  C5  <0> d           0.002  -0.004   0.002  0.00  0.00    -0.040 C 
ATOM      7  H2  <0> d          -0.947  -0.521  -0.138  0.00  0.00     0.041 H 
ATOM      8  H5  <0> d          -0.494   1.951   0.915  0.00  0.00     0.033 H 
ATOM      9  H6  <0> d          -0.511   1.961  -0.881  0.00  0.00     0.033 H 
ATOM     10  H7  <0> d           1.716   2.635  -0.775  0.00  0.00     0.033 H 
ATOM     11  H8  <0> d           1.808   2.275   0.973  0.00  0.00     0.033 H 
ATOM     12  H9  <0> d           0.814   0.335  -2.040  0.00  0.00     0.034 H 
ATOM     13  H10 <0> d           1.321  -1.234  -1.299  0.00  0.00     0.034 H 
ENDROOT
BRANCH   6  14
ATOM     14  C6  <0> d           0.754  -0.237   1.328  0.00  0.00     0.047 C 
ATOM     15  H3  <0> d           0.595   0.554   2.061  0.00  0.00     0.058 H 
ATOM     16  C8  <0> d           1.081  -1.554   1.919  0.00  0.00     0.224 C 
ATOM     17  N1  <0> d           2.289  -0.840   2.123  0.00  0.00    -0.355 N 
ATOM     18  O1  <0> d           0.591  -2.644   2.121  0.00  0.00    -0.273 OA
ATOM     19  C7  <0> d           2.263  -0.368   0.835  0.00  0.00     0.028 C 
ATOM     20  H11 <0> d           2.899  -0.726   2.868  0.00  0.00     0.162 HD
ATOM     21  H4  <0> d           2.559  -1.273   0.304  0.00  0.00     0.074 H 
BRANCH  19  22
ENDBRANCH  19  22
ENDBRANCH   6  14
TORSDOF 2
