REMARK  2 active torsions:
REMARK  status: ('A' for Active; 'I' for Inactive)
REMARK    1  A    between atoms: C1_1  and  N1_2 
REMARK    2  A    between atoms: C3_4  and  C7_9 
ROOT
ATOM      1  N1  <0> d          -3.666   1.882   0.028  0.00  0.00    -0.328 N 
ATOM      2  C2  <0> d          -2.490   1.229   0.015  0.00  0.00    -0.001 A 
ATOM      3  C3  <0> d          -1.300   1.930   0.019  0.00  0.00     0.056 A 
ATOM      4  C4  <0> d          -1.326   3.346   0.026  0.00  0.00    -0.060 A 
ATOM      5  C5  <0> d          -2.527   3.984   0.035  0.00  0.00    -0.016 A 
ATOM      6  C6  <0> d          -3.713   3.227   0.036  0.00  0.00     0.246 A 
ATOM      7  O1  <0> d          -4.793   3.794   0.044  0.00  0.00    -0.268 OA
ATOM      8  H4  <0> d          -2.476   0.149   0.004  0.00  0.00     0.113 H 
ATOM      9  H5  <0> d          -0.405   3.911   0.026  0.00  0.00     0.085 H 
ATOM     10  H6  <0> d          -2.570   5.063   0.041  0.00  0.00     0.092 H 
ENDROOT
BRANCH   1  11
ATOM     11  C1  <0> d          -4.915   1.117   0.029  0.00  0.00    -0.012 C 
ATOM     12  H1  <0> d          -5.762   1.804   0.036  0.00  0.00     0.057 H 
ATOM     13  H2  <0> d          -4.960   0.494  -0.864  0.00  0.00     0.057 H 
ATOM     14  H3  <0> d          -4.953   0.484   0.916  0.00  0.00     0.057 H 
ENDBRANCH   1  11
BRANCH   3  15
ATOM     15  C7  <0> d          -0.014   1.211   0.009  0.00  0.00     0.210 C 
ATOM     16  O2  <0> d           0.002  -0.004   0.002  0.00  0.00    -0.644 OA
ATOM     17  O3  <0> d           1.143   1.901   0.001  0.00  0.00    -0.644 OA
ENDBRANCH   3  15
TORSDOF 2
