REMARK  3 active torsions:
REMARK  status: ('A' for Active; 'I' for Inactive)
REMARK    1  A    between atoms: C3_3  and  N1_10 
REMARK    2  A    between atoms: C4_4  and  C7_8 
REMARK    3  A    between atoms: C7_8  and  O1_9 
ROOT
ATOM      1  C1  <0> d           0.002  -0.004   0.002  0.00  0.00    -0.079 A 
ATOM      2  C2  <0> d           1.206  -0.680  -0.013  0.00  0.00    -0.057 A 
ATOM      3  C3  <0> d           2.400   0.030  -0.020  0.00  0.00     0.035 A 
ATOM      4  C4  <0> d           2.379   1.419  -0.013  0.00  0.00     0.013 A 
ATOM      5  C5  <0> d           1.171   2.089   0.002  0.00  0.00     0.044 A 
ATOM      6  C6  <0> d          -0.017   1.378   0.010  0.00  0.00    -0.061 A 
ATOM      7 Cl1  <0> d           1.143   3.825   0.011  0.00  0.00    -0.084 Cl
ATOM      8  H1  <0> d          -0.926  -0.556   0.008  0.00  0.00     0.083 H 
ATOM      9  H2  <0> d           1.220  -1.760  -0.019  0.00  0.00     0.086 H 
ATOM     10  H3  <0> d          -0.960   1.904   0.017  0.00  0.00     0.086 H 
ENDROOT
BRANCH   4  11
ATOM     11  C7  <0> d           3.672   2.193  -0.022  0.00  0.00     0.044 C 
ATOM     12  H4  <0> d           3.530   3.149   0.503  0.00  0.00     0.081 H 
ATOM     13  H5  <0> d           4.453   1.609   0.486  0.00  0.00     0.081 H 
BRANCH  11  14
ATOM     14  O1  <0> d           4.067   2.445  -1.372  0.00  0.00    -0.396 OA
ATOM     15  H6  <0> d           4.993   3.001  -1.579  0.00  0.00     0.209 HD
ENDBRANCH  11  14
ENDBRANCH   4  11
BRANCH   3  16
ATOM     16  N1  <0> d           3.620  -0.651  -0.035  0.00  0.00    -0.399 N 
ATOM     17  H7  <0> d           4.564  -0.088  -0.041  0.00  0.00     0.156 HD
ATOM     18  H8  <0> d           3.635  -1.751  -0.040  0.00  0.00     0.156 HD
ENDBRANCH   3  16
TORSDOF 3
