REMARK  4 active torsions:
REMARK  status: ('A' for Active; 'I' for Inactive)
REMARK    1  A    between atoms: C1_1  and  C2_2 
REMARK    2  A    between atoms: C2_2  and  C3_3 
REMARK    3  A    between atoms: C2_2  and  C5_5 
REMARK    4  A    between atoms: C2_2  and  O1_7 
ROOT
ATOM      1  C5  <0> d           0.002  -0.004   0.002  0.00  0.00    -0.075 C 
ATOM      2  C6  <0> d           0.018  -1.178  -0.004  0.00  0.00    -0.151 C 
ATOM      3  H7  <0> d           0.032  -2.228  -0.010  0.00  0.00     0.166 H 
ENDROOT
BRANCH   1   4
ATOM      4  C2  <0> d          -0.018   1.468   0.010  0.00  0.00     0.134 C 
BRANCH   4   5
ATOM      5  C1  <0> d           1.417   1.997  -0.001  0.00  0.00    -0.034 C 
ATOM      6  H1  <0> d           1.928   1.646  -0.897  0.00  0.00     0.033 H 
ATOM      7  H2  <0> d           1.403   3.087   0.005  0.00  0.00     0.033 H 
ATOM      8  H3  <0> d           1.945   1.636   0.882  0.00  0.00     0.033 H 
ENDBRANCH   4   5
BRANCH   4   9
ATOM      9  C3  <0> d          -0.723   1.954   1.250  0.00  0.00    -0.068 C 
ATOM     10  C4  <0> d          -1.800   2.693   1.144  0.00  0.00    -0.121 C 
ATOM     11  H5  <0> d          -2.305   3.041   2.033  0.00  0.00     0.066 H 
ATOM     12  H6  <0> d          -2.181   2.954   0.168  0.00  0.00     0.066 H 
ATOM     13  H4  <0> d          -0.341   1.693   2.226  0.00  0.00     0.081 H 
ENDBRANCH   4   9
BRANCH   4  14
ATOM     14  O1  <0> d          -0.709   1.941  -1.148  0.00  0.00    -0.374 OA
ATOM     15  H8  <0> d          -1.627   1.644  -1.206  0.00  0.00     0.212 HD
ENDBRANCH   4  14
ENDBRANCH   1   4
TORSDOF 4
