REMARK  5 active torsions:
REMARK  status: ('A' for Active; 'I' for Inactive)
REMARK    1  A    between atoms: C1_1  and  C2_2 
REMARK    2  A    between atoms: C4_5  and  C6_9 
REMARK    3  A    between atoms: C5_6  and  N3_8 
REMARK    4  A    between atoms: C6_9  and  O1_10 
REMARK    5  A    between atoms: O1_10  and  C7_11 
ROOT
ATOM      1  C2  <0> d           0.002  -0.004   0.002  0.00  0.00     0.124 A 
ATOM      2  N1  <0> d           0.005  -0.638  -1.153  0.00  0.00    -0.245 NA
ATOM      3  C3  <0> d           0.023  -1.963  -1.205  0.00  0.00     0.016 A 
ATOM      4  C4  <0> d           0.039  -2.683  -0.027  0.00  0.00     0.028 A 
ATOM      5  C5  <0> d           0.035  -1.980   1.180  0.00  0.00     0.133 A 
ATOM      6  N2  <0> d           0.022  -0.651   1.150  0.00  0.00    -0.216 NA
ATOM      7  H4  <0> d           0.025  -2.472  -2.157  0.00  0.00     0.116 H 
ENDROOT
BRANCH   4   8
ATOM      8  C6  <0> d           0.060  -4.190  -0.043  0.00  0.00     0.048 C 
ATOM      9  H7  <0> d           0.957  -4.546   0.463  0.00  0.00     0.082 H 
ATOM     10  H8  <0> d          -0.823  -4.571   0.472  0.00  0.00     0.082 H 
BRANCH   8  11
ATOM     11  O1  <0> d           0.059  -4.652  -1.395  0.00  0.00    -0.391 OA
BRANCH  11  12
ATOM     12  C7  <0> d           0.078  -6.075  -1.523  0.00  0.00     0.004 C 
ATOM     13  H9  <0> d           0.976  -6.471  -1.048  0.00  0.00     0.066 H 
ATOM     14  H10 <0> d          -0.804  -6.495  -1.039  0.00  0.00     0.066 H 
ATOM     15  H11 <0> d           0.076  -6.345  -2.579  0.00  0.00     0.066 H 
ENDBRANCH  11  12
ENDBRANCH   8  11
ENDBRANCH   4   8
BRANCH   5  16
ATOM     16  N3  <0> d           0.050  -2.657   2.389  0.00  0.00    -0.383 N 
ATOM     17  H5  <0> d           0.064  -3.627   2.401  0.00  0.00     0.157 HD
ATOM     18  H6  <0> d           0.048  -2.161   3.222  0.00  0.00     0.157 HD
ENDBRANCH   5  16
BRANCH   1  19
ATOM     19  C1  <0> d          -0.018   1.503   0.010  0.00  0.00    -0.019 C 
ATOM     20  H1  <0> d           1.004   1.880   0.003  0.00  0.00     0.037 H 
ATOM     21  H2  <0> d          -0.545   1.864  -0.873  0.00  0.00     0.037 H 
ATOM     22  H3  <0> d          -0.529   1.854   0.907  0.00  0.00     0.037 H 
ENDBRANCH   1  19
TORSDOF 5
