REMARK  2 active torsions:
REMARK  status: ('A' for Active; 'I' for Inactive)
REMARK    1  A    between atoms: C3_3  and  C6_9 
REMARK    2  A    between atoms: C4_5  and  C5_7 
ROOT
ATOM      1  C1  <0> d           0.643   2.366   1.099  0.00  0.00    -0.117 C 
ATOM      2  C2  <0> d          -0.546   2.421   0.552  0.00  0.00    -0.058 A 
ATOM      3  C3  <0> d          -1.678   1.732  -0.165  0.00  0.00     0.069 A 
ATOM      4  H1  <0> d          -2.290   1.036   0.409  0.00  0.00     0.065 H 
ATOM      5  C4  <0> d          -1.774   3.216   0.193  0.00  0.00     0.069 A 
ATOM      6  H2  <0> d          -2.451   3.493   1.002  0.00  0.00     0.065 H 
ATOM      7  H3  <0> d           1.191   1.436   1.109  0.00  0.00     0.067 H 
ATOM      8  H4  <0> d           1.078   3.253   1.536  0.00  0.00     0.067 H 
ENDROOT
BRANCH   3   9
ATOM      9  C6  <0> d          -1.468   1.371  -1.613  0.00  0.00     0.182 C 
ATOM     10  O2  <0> d          -0.483   1.759  -2.196  0.00  0.00    -0.647 OA
ATOM     11  O4  <0> d          -2.374   0.618  -2.256  0.00  0.00    -0.647 OA
ENDBRANCH   3   9
BRANCH   5  12
ATOM     12  C5  <0> d          -1.653   4.218  -0.927  0.00  0.00     0.182 C 
ATOM     13  O1  <0> d          -2.301   4.077  -1.937  0.00  0.00    -0.647 OA
ATOM     14  O3  <0> d          -0.825   5.267  -0.802  0.00  0.00    -0.647 OA
ENDBRANCH   5  12
TORSDOF 2
