REMARK  4 active torsions:
REMARK  status: ('A' for Active; 'I' for Inactive)
REMARK    1  A    between atoms: C1_1  and  C2_2 
REMARK    2  A    between atoms: C2_2  and  C3_3 
REMARK    3  A    between atoms: C3_3  and  C4_4 
REMARK    4  A    between atoms: C3_3  and  C5_5 
ROOT
ATOM      1  C5  <0> d          -0.758   1.975  -1.229  0.00  0.00     0.033 C 
ATOM      2  C6  <0> d          -0.069   1.500  -2.441  0.00  0.00     0.060 C 
ATOM      3  N1  <0> d           0.463   1.133  -3.375  0.00  0.00    -0.197 NA
ATOM      4  H9  <0> d          -1.780   1.597  -1.222  0.00  0.00     0.057 H 
ATOM      5  H10 <0> d          -0.773   3.064  -1.223  0.00  0.00     0.057 H 
ENDROOT
BRANCH   1   6
ATOM      6  C3  <0> d          -0.018   1.468   0.010  0.00  0.00     0.057 C 
ATOM      7  C7  <0> d           0.002  -0.004   0.002  0.00  0.00     0.070 C 
ATOM      8  N2  <0> d           0.018  -1.140  -0.004  0.00  0.00    -0.196 NA
BRANCH   6   9
ATOM      9  C2  <0> d          -0.734   1.961   1.269  0.00  0.00    -0.049 C 
ATOM     10  H4  <0> d          -0.749   3.051   1.275  0.00  0.00     0.035 H 
ATOM     11  H5  <0> d          -1.757   1.584   1.277  0.00  0.00     0.035 H 
BRANCH   9  12
ATOM     12  C1  <0> d           0.006   1.454   2.508  0.00  0.00    -0.075 C 
ATOM     13  H1  <0> d          -0.504   1.806   3.405  0.00  0.00     0.027 H 
ATOM     14  H2  <0> d           0.021   0.364   2.502  0.00  0.00     0.027 H 
ATOM     15  H3  <0> d           1.029   1.832   2.501  0.00  0.00     0.027 H 
ENDBRANCH   9  12
ENDBRANCH   6   9
BRANCH   6  16
ATOM     16  C4  <0> d           1.417   1.997  -0.001  0.00  0.00    -0.056 C 
ATOM     17  H6  <0> d           1.928   1.646  -0.897  0.00  0.00     0.029 H 
ATOM     18  H7  <0> d           1.403   3.087   0.005  0.00  0.00     0.029 H 
ATOM     19  H8  <0> d           1.945   1.636   0.882  0.00  0.00     0.029 H 
ENDBRANCH   6  16
ENDBRANCH   1   6
TORSDOF 4
