REMARK  0 active torsions:
REMARK  status: ('A' for Active; 'I' for Inactive)
ROOT
ATOM      1  C1  <0> d           3.796  -0.369  -0.036  0.00  0.00    -0.051 A 
ATOM      2  C2  <0> d           4.511   0.769  -0.037  0.00  0.00    -0.021 A 
ATOM      3  N1  <0> d           3.665   1.846  -0.023  0.00  0.00    -0.365 N 
ATOM      4  H1  <0> d           4.074   2.867  -0.022  0.00  0.00     0.165 HD
ATOM      5  C3  <0> d           2.369   1.421  -0.013  0.00  0.00     0.049 A 
ATOM      6  C4  <0> d           2.387   0.019  -0.021  0.00  0.00     0.060 A 
ATOM      7  C5  <0> d           1.164  -0.688  -0.013  0.00  0.00     0.257 A 
ATOM      8  O1  <0> d           1.160  -1.907  -0.020  0.00  0.00    -0.267 OA
ATOM      9  N2  <0> d           0.002  -0.004   0.002  0.00  0.00    -0.333 N 
ATOM     10  H2  <0> d          -0.955  -0.546   0.008  0.00  0.00     0.168 HD
ATOM     11  C6  <0> d          -0.016   1.360   0.009  0.00  0.00    -0.018 A 
ATOM     12  C7  <0> d           1.122   2.081   0.003  0.00  0.00    -0.041 A 
ATOM     13  H3  <0> d           4.186  -1.376  -0.046  0.00  0.00     0.087 H 
ATOM     14  H4  <0> d           5.590   0.826  -0.047  0.00  0.00     0.111 H 
ATOM     15  H5  <0> d          -0.966   1.875   0.017  0.00  0.00     0.111 H 
ATOM     16  H6  <0> d           1.080   3.160   0.009  0.00  0.00     0.089 H 
ENDROOT
TORSDOF 0
