REMARK  5 active torsions:
REMARK  status: ('A' for Active; 'I' for Inactive)
REMARK    1  A    between atoms: C1_1  and  C2_2 
REMARK    2  A    between atoms: C2_2  and  C3_3 
REMARK    3  A    between atoms: C3_3  and  C4_5 
REMARK    4  A    between atoms: C3_3  and  C5_6 
REMARK    5  A    between atoms: C7_8  and  N3_12 
ROOT
ATOM      1  C3  <0> d          -1.433  -0.534   0.013  0.00  0.00    -0.016 C 
ATOM      2  H1  <0> d          -1.986  -0.102  -0.821  0.00  0.00     0.049 H 
ENDROOT
BRANCH   1   3
ATOM      3  C2  <0> d           0.002  -0.004   0.002  0.00  0.00    -0.060 C 
ATOM      4  H6  <0> d           0.512  -0.356  -0.895  0.00  0.00     0.033 H 
ATOM      5  H7  <0> d           0.529  -0.365   0.885  0.00  0.00     0.033 H 
BRANCH   3   6
ATOM      6  C1  <0> d          -0.019   1.526   0.010  0.00  0.00    -0.076 C 
ATOM      7  H3  <0> d           1.004   1.903   0.003  0.00  0.00     0.027 H 
ATOM      8  H4  <0> d          -0.546   1.887  -0.873  0.00  0.00     0.027 H 
ATOM      9  H5  <0> d          -0.529   1.877   0.907  0.00  0.00     0.027 H 
ENDBRANCH   3   6
ENDBRANCH   1   3
BRANCH   1  10
ATOM     10  C4  <0> d          -2.110  -0.145   1.329  0.00  0.00    -0.068 C 
ATOM     11  H8  <0> d          -3.133  -0.522   1.337  0.00  0.00     0.028 H 
ATOM     12  H9  <0> d          -1.557  -0.577   2.163  0.00  0.00     0.028 H 
ATOM     13  H10 <0> d          -2.123   0.941   1.424  0.00  0.00     0.028 H 
ENDBRANCH   1  10
BRANCH   1  14
ATOM     14  C5  <0> d          -1.416  -2.035  -0.119  0.00  0.00     0.033 A 
ATOM     15  C6  <0> d          -2.360  -2.807  -0.802  0.00  0.00    -0.016 A 
ATOM     16  H11 <0> d          -3.228  -2.435  -1.326  0.00  0.00     0.092 H 
ATOM     17  C7  <0> d          -1.990  -4.113  -0.689  0.00  0.00     0.115 A 
ATOM     18  N1  <0> d          -0.852  -4.153   0.041  0.00  0.00    -0.286 N 
ATOM     19  H2  <0> d          -0.357  -4.951   0.284  0.00  0.00     0.188 HD
ATOM     20  N2  <0> d          -0.512  -2.837   0.381  0.00  0.00    -0.303 N 
ATOM     21  H14 <0> d           0.262  -2.567   0.901  0.00  0.00     0.186 HD
BRANCH  17  22
ATOM     22  N3  <0> d          -2.661  -5.207  -1.226  0.00  0.00    -0.384 N 
ATOM     23  H12 <0> d          -3.475  -5.074  -1.738  0.00  0.00     0.157 HD
ATOM     24  H13 <0> d          -2.316  -6.103  -1.090  0.00  0.00     0.157 HD
ENDBRANCH  17  22
ENDBRANCH   1  14
TORSDOF 5
