REMARK  2 active torsions:
REMARK  status: ('A' for Active; 'I' for Inactive)
REMARK    1  A    between atoms: C1_1  and  C2_2 
REMARK    2  A    between atoms: C4_4  and  C9_12 
ROOT
ATOM      1  C2  <0> d           1.197  -0.663  -0.013  0.00  0.00    -0.060 A 
ATOM      2  C3  <0> d           2.394   0.043  -0.021  0.00  0.00    -0.069 A 
ATOM      3  C4  <0> d           2.402   1.409  -0.013  0.00  0.00    -0.032 A 
ATOM      4  C5  <0> d           1.197   2.108   0.002  0.00  0.00     0.067 A 
ATOM      5  C6  <0> d          -0.017   1.395   0.010  0.00  0.00     0.012 A 
ATOM      6  C7  <0> d           0.002  -0.004   0.002  0.00  0.00    -0.064 A 
ATOM      7  C8  <0> d          -1.080   2.395   0.019  0.00  0.00     0.034 A 
ATOM      8  N1  <0> d          -0.520   3.571   0.025  0.00  0.00    -0.186 NA
ATOM      9  N2  <0> d           0.873   3.440   0.012  0.00  0.00    -0.277 N 
ATOM     10  H1  <0> d           1.527   4.196   0.010  0.00  0.00     0.189 HD
ATOM     11  H5  <0> d           3.331  -0.495  -0.033  0.00  0.00     0.085 H 
ATOM     12  H6  <0> d          -0.924  -0.560   0.007  0.00  0.00     0.085 H 
ATOM     13  H7  <0> d          -2.141   2.196   0.023  0.00  0.00     0.118 H 
ENDROOT
BRANCH   1  14
ATOM     14  C1  <0> d           1.219  -2.170  -0.022  0.00  0.00    -0.051 C 
ATOM     15  H2  <0> d           1.214  -2.527  -1.052  0.00  0.00     0.033 H 
ATOM     16  H3  <0> d           2.119  -2.523   0.482  0.00  0.00     0.033 H 
ATOM     17  H4  <0> d           0.339  -2.549   0.498  0.00  0.00     0.033 H 
ENDBRANCH   1  14
BRANCH   3  18
ATOM     18  C9  <0> d           3.710   2.157  -0.022  0.00  0.00    -0.049 C 
ATOM     19  H8  <0> d           4.015   2.343  -1.052  0.00  0.00     0.033 H 
ATOM     20  H9  <0> d           3.588   3.107   0.498  0.00  0.00     0.033 H 
ATOM     21  H10 <0> d           4.472   1.562   0.481  0.00  0.00     0.033 H 
ENDBRANCH   3  18
TORSDOF 2
