REMARK  2 active torsions:
REMARK  status: ('A' for Active; 'I' for Inactive)
REMARK    1  A    between atoms: C2_2  and  C3_3 
REMARK    2  A    between atoms: C3_3  and  O1_10 
ROOT
ATOM      1  C1  <0> d           2.545   0.844  -2.216  0.00  0.00    -0.151 C 
ATOM      2  C2  <0> d           1.986   1.163  -1.234  0.00  0.00    -0.079 C 
ATOM      3  H1  <0> d           3.044   0.559  -3.095  0.00  0.00     0.166 H 
ENDROOT
BRANCH   2   4
ATOM      4  C3  <0> d           1.286   1.562  -0.002  0.00  0.00     0.120 C 
ATOM      5  C9  <0> d           1.137   3.010   0.007  0.00  0.00    -0.026 C 
ATOM      6  C8  <0> d           2.493   3.741  -0.069  0.00  0.00    -0.061 C 
ATOM      7  H12 <0> d           0.527   3.307  -0.846  0.00  0.00     0.038 H 
ATOM      8  H13 <0> d           0.627   3.306   0.924  0.00  0.00     0.038 H 
ATOM      9  C7  <0> d           3.110   3.748   1.304  0.00  0.00    -0.065 C 
ATOM     10  H10 <0> d           3.152   3.219  -0.763  0.00  0.00     0.033 H 
ATOM     11  H11 <0> d           2.338   4.764  -0.409  0.00  0.00     0.033 H 
ATOM     12  C6  <0> d           4.080   2.572   1.521  0.00  0.00    -0.065 C 
ATOM     13  H8  <0> d           3.652   4.683   1.442  0.00  0.00     0.033 H 
ATOM     14  H9  <0> d           2.315   3.689   2.048  0.00  0.00     0.033 H 
ATOM     15  C5  <0> d           3.550   1.246   0.943  0.00  0.00    -0.061 C 
ATOM     16  H6  <0> d           5.031   2.808   1.043  0.00  0.00     0.033 H 
ATOM     17  H7  <0> d           4.247   2.446   2.591  0.00  0.00     0.033 H 
ATOM     18  C4  <0> d           2.084   1.045   1.213  0.00  0.00    -0.026 C 
ATOM     19  H4  <0> d           3.714   1.240  -0.135  0.00  0.00     0.033 H 
ATOM     20  H5  <0> d           4.107   0.420   1.387  0.00  0.00     0.033 H 
ATOM     21  H2  <0> d           1.796   1.603   2.104  0.00  0.00     0.038 H 
ATOM     22  H3  <0> d           1.880  -0.015   1.361  0.00  0.00     0.038 H 
BRANCH   4  23
ATOM     23  O1  <0> d          -0.011   0.963   0.007  0.00  0.00    -0.378 OA
ATOM     24  H14 <0> d           0.002  -0.004   0.002  0.00  0.00     0.211 HD
ENDBRANCH   4  23
ENDBRANCH   2   4
TORSDOF 2
