REMARK  7 active torsions:
REMARK  status: ('A' for Active; 'I' for Inactive)
REMARK    1  A    between atoms: C1_1  and  C2_2 
REMARK    2  A    between atoms: C2_2  and  C3_3 
REMARK    3  A    between atoms: C3_3  and  C4_4 
REMARK    4  A    between atoms: C4_4  and  C5_5 
REMARK    5  A    between atoms: C5_5  and  C6_7 
REMARK    6  A    between atoms: C5_5  and  C8_9 
REMARK    7  A    between atoms: C6_7  and  C7_8 
REMARK       I    between atoms: C8_9  and  N1_11 
ROOT
ATOM      1  C5  <0> d          -0.763   3.101   1.151  0.00  0.00     0.023 C 
ATOM      2  H1  <0> d           0.241   2.908   0.773  0.00  0.00     0.054 H 
ENDROOT
BRANCH   1   3
ATOM      3  C4  <0> d          -0.711   4.231   2.181  0.00  0.00    -0.054 C 
ATOM      4  H9  <0> d          -0.404   5.155   1.691  0.00  0.00     0.034 H 
ATOM      5  H10 <0> d          -1.698   4.365   2.623  0.00  0.00     0.034 H 
BRANCH   3   6
ATOM      6  C3  <0> d           0.295   3.876   3.277  0.00  0.00    -0.065 C 
ATOM      7  H7  <0> d          -0.012   2.952   3.767  0.00  0.00     0.033 H 
ATOM      8  H8  <0> d           1.282   3.743   2.835  0.00  0.00     0.033 H 
BRANCH   6   9
ATOM      9  C2  <0> d           0.347   5.007   4.307  0.00  0.00    -0.069 C 
ATOM     10  H5  <0> d           0.654   5.931   3.818  0.00  0.00     0.032 H 
ATOM     11  H6  <0> d          -0.640   5.140   4.750  0.00  0.00     0.032 H 
BRANCH   9  12
ATOM     12  C1  <0> d           1.353   4.652   5.404  0.00  0.00    -0.077 C 
ATOM     13  H2  <0> d           1.390   5.457   6.138  0.00  0.00     0.027 H 
ATOM     14  H3  <0> d           1.046   3.728   5.894  0.00  0.00     0.027 H 
ATOM     15  H4  <0> d           2.340   4.518   4.961  0.00  0.00     0.027 H 
ENDBRANCH   9  12
ENDBRANCH   6   9
ENDBRANCH   3   6
ENDBRANCH   1   3
BRANCH   1  16
ATOM     16  C6  <0> d          -1.312   1.835   1.810  0.00  0.00    -0.057 C 
ATOM     17  H11 <0> d          -0.628   1.506   2.593  0.00  0.00     0.033 H 
ATOM     18  H12 <0> d          -1.411   1.049   1.062  0.00  0.00     0.033 H 
BRANCH  16  19
ATOM     19  C7  <0> d          -2.683   2.132   2.422  0.00  0.00    -0.076 C 
ATOM     20  H13 <0> d          -3.124   1.206   2.792  0.00  0.00     0.027 H 
ATOM     21  H14 <0> d          -3.333   2.566   1.663  0.00  0.00     0.027 H 
ATOM     22  H15 <0> d          -2.568   2.835   3.247  0.00  0.00     0.027 H 
ENDBRANCH  16  19
ENDBRANCH   1  16
BRANCH   1  23
ATOM     23  C8  <0> d          -1.660   3.503   0.009  0.00  0.00     0.219 C 
ATOM     24  O1  <0> d          -2.576   4.274   0.200  0.00  0.00    -0.273 OA
ATOM     25  N1  <0> d          -1.445   3.005  -1.225  0.00  0.00    -0.370 N 
ATOM     26  H16 <0> d          -0.669   2.448  -1.395  0.00  0.00     0.159 HD
ATOM     27  H17 <0> d          -2.066   3.203  -1.943  0.00  0.00     0.159 HD
ENDBRANCH   1  23
TORSDOF 7
