REMARK  1 active torsions:
REMARK  status: ('A' for Active; 'I' for Inactive)
REMARK    1  A    between atoms: C1_1  and  C2_2 
ROOT
ATOM      1  C2  <0> d          -0.507   3.582   0.025  0.00  0.00     0.006 A 
ATOM      2  C3  <0> d           0.833   3.522   0.013  0.00  0.00    -0.050 A 
ATOM      3  C4  <0> d           1.198   2.103   0.002  0.00  0.00    -0.006 A 
ATOM      4  C5  <0> d           2.409   1.415  -0.013  0.00  0.00    -0.051 A 
ATOM      5  C6  <0> d           2.405   0.024  -0.020  0.00  0.00     0.045 A 
ATOM      6  C7  <0> d           1.189  -0.675  -0.013  0.00  0.00    -0.061 A 
ATOM      7  C8  <0> d           0.002  -0.004   0.002  0.00  0.00    -0.055 A 
ATOM      8  C9  <0> d          -0.017   1.389   0.010  0.00  0.00     0.042 A 
ATOM      9  N1  <0> d          -1.031   2.317   0.019  0.00  0.00    -0.359 N 
ATOM     10  H1  <0> d          -1.978   2.107   0.022  0.00  0.00     0.166 HD
ATOM     11  C10 <0> d           3.643  -0.696  -0.035  0.00  0.00     0.099 C 
ATOM     12  N2  <0> d           4.625  -1.266  -0.047  0.00  0.00    -0.191 NA
ATOM     13  H5  <0> d           1.514   4.361   0.011  0.00  0.00     0.087 H 
ATOM     14  H6  <0> d           3.343   1.958  -0.019  0.00  0.00     0.087 H 
ATOM     15  H7  <0> d           1.193  -1.755  -0.018  0.00  0.00     0.085 H 
ATOM     16  H8  <0> d          -0.927  -0.555   0.008  0.00  0.00     0.087 H 
ENDROOT
BRANCH   1  17
ATOM     17  C1  <0> d          -1.317   4.853   0.039  0.00  0.00    -0.037 C 
ATOM     18  H2  <0> d          -1.521   5.165  -0.985  0.00  0.00     0.035 H 
ATOM     19  H3  <0> d          -2.257   4.679   0.561  0.00  0.00     0.035 H 
ATOM     20  H4  <0> d          -0.756   5.635   0.552  0.00  0.00     0.035 H 
ENDBRANCH   1  17
TORSDOF 1
