REMARK  0 active torsions:
REMARK  status: ('A' for Active; 'I' for Inactive)
ROOT
ATOM      1  C1  <0> d          -3.190   3.661   0.050  0.00  0.00    -0.062 A 
ATOM      2  C2  <0> d          -1.862   4.040   0.039  0.00  0.00    -0.073 A 
ATOM      3  C3  <0> d          -0.870   3.084   0.025  0.00  0.00    -0.023 A 
ATOM      4  C4  <0> d          -1.181   1.728   0.017  0.00  0.00     0.043 A 
ATOM      5  C5  <0> d          -2.516   1.340   0.032  0.00  0.00    -0.037 A 
ATOM      6  C6  <0> d          -3.522   2.304   0.046  0.00  0.00     0.046 A 
ATOM      7  C7  <0> d          -4.897   1.904   0.058  0.00  0.00     0.099 C 
ATOM      8  N1  <0> d          -5.987   1.586   0.067  0.00  0.00    -0.191 NA
ATOM      9  N2  <0> d          -0.011   0.966   0.007  0.00  0.00    -0.326 N 
ATOM     10  C8  <0> d           1.094   1.730   0.001  0.00  0.00     0.226 A 
ATOM     11  O1  <0> d           2.241   1.336  -0.011  0.00  0.00    -0.273 OA
ATOM     12  C9  <0> d           0.639   3.174   0.012  0.00  0.00     0.035 A 
ATOM     13  H1  <0> d          -3.969   4.409   0.061  0.00  0.00     0.085 H 
ATOM     14  H2  <0> d          -1.601   5.088   0.042  0.00  0.00     0.084 H 
ATOM     15  H3  <0> d          -2.773   0.291   0.029  0.00  0.00     0.089 H 
ATOM     16  H4  <0> d           0.002  -0.004   0.002  0.00  0.00     0.169 HD
ATOM     17  H5  <0> d           0.999   3.680   0.907  0.00  0.00     0.054 H 
ATOM     18  H6  <0> d           0.983   3.689  -0.885  0.00  0.00     0.054 H 
ENDROOT
TORSDOF 0
