REMARK  4 active torsions:
REMARK  status: ('A' for Active; 'I' for Inactive)
REMARK    1  A    between atoms: C1_1  and  C2_2 
REMARK    2  A    between atoms: C5_5  and  C8_9 
REMARK    3  A    between atoms: C8_9  and  C9_10 
REMARK    4  A    between atoms: C9_10  and  O1_11 
ROOT
ATOM      1  C2  <0> d           1.175   1.783   0.000  0.00  0.00    -0.023 A 
ATOM      2  C3  <0> d          -0.013   1.076   0.008  0.00  0.00    -0.074 A 
ATOM      3  C4  <0> d          -1.219   1.750   0.017  0.00  0.00    -0.076 A 
ATOM      4  C5  <0> d          -1.239   3.133   0.030  0.00  0.00    -0.053 A 
ATOM      5  C6  <0> d          -0.053   3.842   0.022  0.00  0.00    -0.039 A 
ATOM      6  C7  <0> d           1.156   3.167   0.008  0.00  0.00     0.122 A 
ATOM      7  F1  <0> d           2.316   3.859   0.001  0.00  0.00    -0.206 F 
ATOM      8  H4  <0> d           0.002  -0.004   0.002  0.00  0.00     0.084 H 
ATOM      9  H5  <0> d          -2.147   1.197   0.019  0.00  0.00     0.084 H 
ATOM     10  H6  <0> d          -0.069   4.922   0.028  0.00  0.00     0.089 H 
ENDROOT
BRANCH   4  11
ATOM     11  C8  <0> d          -2.555   3.867   0.046  0.00  0.00    -0.021 C 
ATOM     12  H7  <0> d          -3.301   3.264   0.564  0.00  0.00     0.043 H 
ATOM     13  H8  <0> d          -2.434   4.818   0.563  0.00  0.00     0.043 H 
BRANCH  11  14
ATOM     14  C9  <0> d          -3.014   4.122  -1.391  0.00  0.00     0.020 C 
ATOM     15  H9  <0> d          -2.268   4.725  -1.909  0.00  0.00     0.074 H 
ATOM     16  H10 <0> d          -3.135   3.171  -1.909  0.00  0.00     0.074 H 
BRANCH  14  17
ATOM     17  O1  <0> d          -4.262   4.818  -1.376  0.00  0.00    -0.401 OA
ATOM     18  H11 <0> d          -4.614   5.014  -2.255  0.00  0.00     0.209 HD
ENDBRANCH  14  17
ENDBRANCH  11  14
ENDBRANCH   4  11
BRANCH   1  19
ATOM     19  C1  <0> d           2.490   1.047  -0.016  0.00  0.00    -0.048 C 
ATOM     20  H1  <0> d           2.797   0.875  -1.048  0.00  0.00     0.033 H 
ATOM     21  H2  <0> d           3.247   1.644   0.494  0.00  0.00     0.033 H 
ATOM     22  H3  <0> d           2.378   0.090   0.494  0.00  0.00     0.033 H 
ENDBRANCH   1  19
TORSDOF 4
