REMARK  2 active torsions:
REMARK  status: ('A' for Active; 'I' for Inactive)
REMARK    1  A    between atoms: C4_5  and  N3_8 
REMARK    2  A    between atoms: C5_6  and  N2_7 
ROOT
ATOM      1  C1  <0> d          -0.017   1.406   0.010  0.00  0.00    -0.040 A 
ATOM      2  C2  <0> d           1.144   2.093   0.002  0.00  0.00    -0.018 A 
ATOM      3  N1  <0> d           2.341   1.446  -0.013  0.00  0.00    -0.332 N 
ATOM      4  C3  <0> d           2.405   0.102  -0.021  0.00  0.00     0.273 A 
ATOM      5  C4  <0> d           1.226  -0.659  -0.014  0.00  0.00     0.121 A 
ATOM      6  C5  <0> d           0.002  -0.004   0.002  0.00  0.00     0.059 A 
ATOM      7  O1  <0> d           3.491  -0.457  -0.035  0.00  0.00    -0.266 OA
ATOM      8  H1  <0> d          -0.959   1.935   0.026  0.00  0.00     0.089 H 
ATOM      9  H2  <0> d           1.123   3.173   0.008  0.00  0.00     0.111 H 
ATOM     10  H7  <0> d           3.162   1.962  -0.019  0.00  0.00     0.168 HD
ENDROOT
BRANCH   5  11
ATOM     11  N3  <0> d           1.283  -2.064  -0.023  0.00  0.00    -0.393 N 
ATOM     12  H5  <0> d           2.142  -2.515  -0.034  0.00  0.00     0.156 HD
ATOM     13  H6  <0> d           0.464  -2.583  -0.018  0.00  0.00     0.156 HD
ENDBRANCH   5  11
BRANCH   6  14
ATOM     14  N2  <0> d          -1.184  -0.726   0.009  0.00  0.00    -0.397 N 
ATOM     15  H3  <0> d          -2.035  -0.260   0.020  0.00  0.00     0.156 HD
ATOM     16  H4  <0> d          -1.161  -1.695   0.004  0.00  0.00     0.156 HD
ENDBRANCH   6  14
TORSDOF 2
