REMARK  0 active torsions:
REMARK  status: ('A' for Active; 'I' for Inactive)
REMARK       I    between atoms: N1_3  and  C6_8 
REMARK       I    between atoms: C6_8  and  N2_10 
ROOT
ATOM      1  C1  <0> d          -0.015   1.082   0.003  0.00  0.00     0.005 C 
ATOM      2  C2  <0> d          -0.768   1.599  -1.229  0.00  0.00     0.005 C 
ATOM      3  N1  <0> d          -1.000   3.040  -1.071  0.00  0.00    -0.334 N 
ATOM      4  C3  <0> d          -1.737   3.524   0.103  0.00  0.00     0.005 C 
ATOM      5  C4  <0> d          -1.009   3.057   1.370  0.00  0.00     0.005 C 
ATOM      6  C5  <0> d          -0.729   1.575   1.243  0.00  0.00     0.130 C 
ATOM      7  O1  <0> d          -1.067   0.805   2.109  0.00  0.00    -0.298 OA
ATOM      8  C6  <0> d          -0.542   3.909  -1.994  0.00  0.00     0.316 C 
ATOM      9  O2  <0> d           0.148   3.513  -2.913  0.00  0.00    -0.247 OA
ATOM     10  N2  <0> d          -0.849   5.218  -1.897  0.00  0.00    -0.352 N 
ATOM     11  H1  <0> d          -0.000   0.082   0.003  0.00  0.00     0.046 H 
ATOM     12  H2  <0> d           1.007   1.460  -0.006  0.00  0.00     0.046 H 
ATOM     13  H3  <0> d          -0.172   1.420  -2.123  0.00  0.00     0.065 H 
ATOM     14  H4  <0> d          -1.723   1.080  -1.317  0.00  0.00     0.065 H 
ATOM     15  H5  <0> d          -1.778   4.613   0.086  0.00  0.00     0.065 H 
ATOM     16  H6  <0> d          -2.749   3.118   0.093  0.00  0.00     0.065 H 
ATOM     17  H7  <0> d          -0.150   3.561   1.466  0.00  0.00     0.046 H 
ATOM     18  H8  <0> d          -1.636   3.239   2.243  0.00  0.00     0.046 H 
ATOM     19  H9  <0> d          -1.338   5.546  -1.127  0.00  0.00     0.160 HD
ATOM     20  H10 <0> d          -0.581   5.832  -2.599  0.00  0.00     0.160 HD
ENDROOT
TORSDOF 0
