REMARK  2 active torsions:
REMARK  status: ('A' for Active; 'I' for Inactive)
REMARK    1  A    between atoms: C1_1  and  C2_2 
REMARK    2  A    between atoms: C2_2  and  C3_3 
ROOT
ATOM      1  C3  <0> d          -0.749   3.086   1.275  0.00  0.00     0.148 A 
ATOM      2  N1  <0> d           0.181   3.859   1.817  0.00  0.00    -0.212 NA
ATOM      3  C4  <0> d          -0.143   5.136   1.644  0.00  0.00     0.152 A 
ATOM      4  C5  <0> d           0.482   6.340   2.014  0.00  0.00    -0.037 A 
ATOM      5  C6  <0> d          -0.111   7.524   1.694  0.00  0.00    -0.078 A 
ATOM      6  C7  <0> d          -1.332   7.524   1.005  0.00  0.00    -0.066 A 
ATOM      7  C8  <0> d          -1.917   6.355   0.658  0.00  0.00     0.006 A 
ATOM      8  N2  <0> d          -1.333   5.169   0.973  0.00  0.00    -0.225 N 
ATOM      9  N3  <0> d          -1.694   3.832   0.752  0.00  0.00    -0.151 NA
ATOM     10  H6  <0> d           1.423   6.327   2.544  0.00  0.00     0.089 H 
ATOM     11  H7  <0> d           0.356   8.458   1.971  0.00  0.00     0.083 H 
ATOM     12  H8  <0> d          -1.807   8.460   0.750  0.00  0.00     0.085 H 
ATOM     13  H9  <0> d          -2.858   6.364   0.127  0.00  0.00     0.114 H 
ENDROOT
BRANCH   1  14
ATOM     14  C2  <0> d          -0.729   1.579   1.267  0.00  0.00    -0.010 C 
ATOM     15  H4  <0> d          -1.751   1.202   1.275  0.00  0.00     0.044 H 
ATOM     16  H5  <0> d          -0.202   1.218   2.150  0.00  0.00     0.044 H 
BRANCH  14  17
ATOM     17  C1  <0> d          -0.013   1.086   0.008  0.00  0.00    -0.070 C 
ATOM     18  H1  <0> d           0.002  -0.004   0.002  0.00  0.00     0.028 H 
ATOM     19  H2  <0> d           1.010   1.463   0.000  0.00  0.00     0.028 H 
ATOM     20  H3  <0> d          -0.540   1.447  -0.875  0.00  0.00     0.028 H 
ENDBRANCH  14  17
ENDBRANCH   1  14
TORSDOF 2
