REMARK  1 active torsions:
REMARK  status: ('A' for Active; 'I' for Inactive)
REMARK    1  A    between atoms: C3_3  and  C6_8 
ROOT
ATOM      1  C1  <0> d           2.513   5.099   0.006  0.00  0.00    -0.076 A 
ATOM      2  C2  <0> d           2.473   3.713   0.004  0.00  0.00    -0.048 A 
ATOM      3  C3  <0> d           1.238   3.070   0.007  0.00  0.00     0.136 A 
ATOM      4  N1  <0> d           0.111   3.773   0.021  0.00  0.00    -0.214 NA
ATOM      5  C4  <0> d           0.118   5.089   0.029  0.00  0.00     0.210 A 
ATOM      6  C5  <0> d           1.315   5.795   0.021  0.00  0.00    -0.027 A 
ATOM      7  F1  <0> d          -1.053   5.763   0.043  0.00  0.00    -0.184 F 
ATOM      8  H1  <0> d           3.456   5.625   0.000  0.00  0.00     0.083 H 
ATOM      9  H2  <0> d           3.388   3.139  -0.003  0.00  0.00     0.087 H 
ATOM     10  H3  <0> d           1.312   6.875   0.027  0.00  0.00     0.090 H 
ENDROOT
BRANCH   3  11
ATOM     11  C6  <0> d           1.181   1.591  -0.001  0.00  0.00     0.229 C 
ATOM     12  O1  <0> d           2.208   0.943  -0.014  0.00  0.00    -0.643 OA
ATOM     13  O2  <0> d          -0.011   0.963   0.007  0.00  0.00    -0.643 OA
ENDBRANCH   3  11
TORSDOF 1
