REMARK  9 active torsions:
REMARK  status: ('A' for Active; 'I' for Inactive)
REMARK    1  A    between atoms: C1_1  and  C2_2 
REMARK    2  A    between atoms: C2_2  and  C3_3 
REMARK    3  A    between atoms: C3_3  and  C4_4 
REMARK    4  A    between atoms: C4_4  and  C5_5 
REMARK    5  A    between atoms: C5_5  and  C6_7 
REMARK    6  A    between atoms: C5_5  and  C8_9 
REMARK    7  A    between atoms: C6_7  and  C7_8 
REMARK    8  A    between atoms: C8_9  and  O2_11 
REMARK    9  A    between atoms: O2_11  and  C9_12 
ROOT
ATOM      1  C5  <0> d          -1.339   1.909   0.040  0.00  0.00     0.030 C 
ATOM      2  H1  <0> d          -1.310   2.402   1.011  0.00  0.00     0.055 H 
ENDROOT
BRANCH   1   3
ATOM      3  C4  <0> d          -2.528   0.946  -0.007  0.00  0.00    -0.053 C 
ATOM      4  H9  <0> d          -3.457   1.515   0.025  0.00  0.00     0.034 H 
ATOM      5  H10 <0> d          -2.488   0.366  -0.929  0.00  0.00     0.034 H 
BRANCH   3   6
ATOM      6  C3  <0> d          -2.466   0.001   1.194  0.00  0.00    -0.065 C 
ATOM      7  H7  <0> d          -1.502  -0.506   1.209  0.00  0.00     0.033 H 
ATOM      8  H8  <0> d          -2.590   0.573   2.113  0.00  0.00     0.033 H 
BRANCH   6   9
ATOM      9  C2  <0> d          -3.586  -1.036   1.084  0.00  0.00    -0.069 C 
ATOM     10  H5  <0> d          -4.551  -0.530   1.069  0.00  0.00     0.032 H 
ATOM     11  H6  <0> d          -3.462  -1.609   0.165  0.00  0.00     0.032 H 
BRANCH   9  12
ATOM     12  C1  <0> d          -3.524  -1.982   2.286  0.00  0.00    -0.077 C 
ATOM     13  H2  <0> d          -4.322  -2.721   2.208  0.00  0.00     0.027 H 
ATOM     14  H3  <0> d          -2.559  -2.489   2.300  0.00  0.00     0.027 H 
ATOM     15  H4  <0> d          -3.648  -1.409   3.205  0.00  0.00     0.027 H 
ENDBRANCH   9  12
ENDBRANCH   6   9
ENDBRANCH   3   6
ENDBRANCH   1   3
BRANCH   1  16
ATOM     16  C6  <0> d          -1.490   2.960  -1.062  0.00  0.00    -0.057 C 
ATOM     17  H11 <0> d          -0.602   3.592  -1.085  0.00  0.00     0.033 H 
ATOM     18  H12 <0> d          -1.608   2.463  -2.024  0.00  0.00     0.033 H 
BRANCH  16  19
ATOM     19  C7  <0> d          -2.722   3.822  -0.778  0.00  0.00    -0.076 C 
ATOM     20  H13 <0> d          -2.647   4.245   0.224  0.00  0.00     0.027 H 
ATOM     21  H14 <0> d          -2.778   4.628  -1.510  0.00  0.00     0.027 H 
ATOM     22  H15 <0> d          -3.619   3.207  -0.846  0.00  0.00     0.027 H 
ENDBRANCH  16  19
ENDBRANCH   1  16
BRANCH   1  23
ATOM     23  C8  <0> d          -0.061   1.139  -0.172  0.00  0.00     0.262 C 
ATOM     24  O1  <0> d          -0.097  -0.056  -0.344  0.00  0.00    -0.265 OA
BRANCH  23  25
ATOM     25  O2  <0> d           1.117   1.783  -0.176  0.00  0.00    -0.326 OA
BRANCH  25  26
ATOM     26  C9  <0> d           2.307   0.979  -0.392  0.00  0.00     0.013 C 
ATOM     27  H16 <0> d           3.188   1.621  -0.372  0.00  0.00     0.067 H 
ATOM     28  H17 <0> d           2.386   0.228   0.394  0.00  0.00     0.067 H 
ATOM     29  H18 <0> d           2.240   0.484  -1.361  0.00  0.00     0.067 H 
ENDBRANCH  25  26
ENDBRANCH  23  25
ENDBRANCH   1  23
TORSDOF 9
