REMARK  3 active torsions:
REMARK  status: ('A' for Active; 'I' for Inactive)
REMARK    1  A    between atoms: C1_1  and  C2_2 
REMARK    2  A    between atoms: C7_7  and  C8_8 
REMARK    3  A    between atoms: C8_8  and  C9_9 
REMARK       I    between atoms: C9_9  and  N1_11 
ROOT
ATOM      1  C2  <0> d          -2.906   0.408   1.210  0.00  0.00    -0.055 A 
ATOM      2  C3  <0> d          -3.945  -0.504   1.210  0.00  0.00    -0.077 A 
ATOM      3  C4  <0> d          -4.539  -0.875   0.019  0.00  0.00    -0.082 A 
ATOM      4  C5  <0> d          -4.094  -0.334  -1.173  0.00  0.00    -0.082 A 
ATOM      5  C6  <0> d          -3.059   0.582  -1.173  0.00  0.00    -0.076 A 
ATOM      6  C7  <0> d          -2.462   0.950   0.019  0.00  0.00    -0.043 A 
ATOM      7  H4  <0> d          -4.293  -0.926   2.142  0.00  0.00     0.084 H 
ATOM      8  H5  <0> d          -5.351  -1.587   0.019  0.00  0.00     0.083 H 
ATOM      9  H6  <0> d          -4.559  -0.623  -2.104  0.00  0.00     0.083 H 
ATOM     10  H7  <0> d          -2.715   1.008  -2.103  0.00  0.00     0.084 H 
ENDROOT
BRANCH   6  11
ATOM     11  C8  <0> d          -1.330   1.944   0.019  0.00  0.00     0.033 C 
ATOM     12  H8  <0> d          -1.401   2.581  -0.875  0.00  0.00     0.054 H 
ATOM     13  H9  <0> d          -1.392   2.571   0.921  0.00  0.00     0.054 H 
BRANCH  11  14
ATOM     14  C9  <0> d          -0.014   1.209   0.009  0.00  0.00     0.219 C 
ATOM     15  O1  <0> d           0.002  -0.004   0.002  0.00  0.00    -0.273 OA
ATOM     16  N1  <0> d           1.143   1.898   0.001  0.00  0.00    -0.370 N 
ATOM     17  H10 <0> d           2.103   1.361  -0.006  0.00  0.00     0.159 HD
ATOM     18  H11 <0> d           1.129   2.998   0.003  0.00  0.00     0.159 HD
ENDBRANCH  11  14
ENDBRANCH   6  11
BRANCH   1  19
ATOM     19  C1  <0> d          -2.259   0.813   2.510  0.00  0.00    -0.051 C 
ATOM     20  H1  <0> d          -2.744   0.282   3.342  0.00  0.00     0.033 H 
ATOM     21  H2  <0> d          -2.371   1.898   2.652  0.00  0.00     0.033 H 
ATOM     22  H3  <0> d          -1.190   0.555   2.483  0.00  0.00     0.033 H 
ENDBRANCH   1  19
TORSDOF 3
