REMARK  3 active torsions:
REMARK  status: ('A' for Active; 'I' for Inactive)
REMARK    1  A    between atoms: C1_1  and  C2_2 
REMARK    2  A    between atoms: C4_6  and  N4_10 
REMARK    3  A    between atoms: N4_10  and  C5_11 
ROOT
ATOM      1  C2  <0> d           0.002  -0.004   0.002  0.00  0.00     0.121 A 
ATOM      2  C3  <0> d          -1.249  -0.766   0.004  0.00  0.00     0.309 A 
ATOM      3  O1  <0> d          -2.324  -0.186   0.012  0.00  0.00    -0.263 OA
ATOM      4  N1  <0> d          -1.205  -2.104  -0.004  0.00  0.00    -0.020 NA
ATOM      5  C4  <0> d          -0.048  -2.736  -0.013  0.00  0.00     0.719 A 
ATOM      6  N2  <0> d           1.125  -2.054  -0.015  0.00  0.00    -0.107 N 
ATOM      7  H1  <0> d           1.964  -2.541  -0.022  0.00  0.00     0.208 HD
ATOM      8  N3  <0> d           1.135  -0.653  -0.012  0.00  0.00    -0.159 NA
ENDROOT
BRANCH   5   9
ATOM      9  N4  <0> d          -0.030  -4.105  -0.021  0.00  0.00    -0.227 N 
ATOM     10  H5  <0> d           0.817  -4.579  -0.028  0.00  0.00     0.177 HD
BRANCH   9  11
ATOM     11  C5  <0> d          -1.289  -4.854  -0.019  0.00  0.00    -0.005 C 
ATOM     12  H6  <0> d          -1.859  -4.604   0.875  0.00  0.00     0.057 H 
ATOM     13  H7  <0> d          -1.868  -4.594  -0.904  0.00  0.00     0.057 H 
ATOM     14  H8  <0> d          -1.075  -5.923  -0.026  0.00  0.00     0.057 H 
ENDBRANCH   9  11
ENDBRANCH   5   9
BRANCH   1  15
ATOM     15  C1  <0> d          -0.018   1.503   0.010  0.00  0.00    -0.029 C 
ATOM     16  H2  <0> d           1.004   1.880   0.003  0.00  0.00     0.036 H 
ATOM     17  H3  <0> d          -0.545   1.864  -0.873  0.00  0.00     0.036 H 
ATOM     18  H4  <0> d          -0.529   1.854   0.907  0.00  0.00     0.036 H 
ENDBRANCH   1  15
TORSDOF 3
