REMARK  3 active torsions:
REMARK  status: ('A' for Active; 'I' for Inactive)
REMARK    1  A    between atoms: C1_1  and  C2_2 
REMARK    2  A    between atoms: C5_7  and  C6_8 
REMARK    3  A    between atoms: C6_8  and  C7_10 
ROOT
ATOM      1  C2  <0> d           0.002  -0.004   0.002  0.00  0.00    -0.030 A 
ATOM      2  C3  <0> d           0.009  -0.829  -1.124  0.00  0.00    -0.060 A 
ATOM      3  C4  <0> d           0.028  -2.116  -0.698  0.00  0.00    -0.022 A 
ATOM      4  N1  <0> d           0.034  -2.134   0.651  0.00  0.00    -0.363 N 
ATOM      5  H1  <0> d           0.047  -2.929   1.206  0.00  0.00     0.165 HD
ATOM      6  C5  <0> d           0.024  -0.834   1.110  0.00  0.00     0.084 A 
ATOM      7  H5  <0> d          -0.000  -0.500  -2.153  0.00  0.00     0.086 H 
ATOM      8  H6  <0> d           0.037  -2.988  -1.336  0.00  0.00     0.111 H 
ENDROOT
BRANCH   6   9
ATOM      9  C6  <0> d           0.031  -0.424   2.462  0.00  0.00     0.172 C 
ATOM     10  O1  <0> d           0.018   0.758   2.739  0.00  0.00    -0.291 OA
BRANCH   9  11
ATOM     11  C7  <0> d           0.056  -1.455   3.562  0.00  0.00    -0.015 C 
ATOM     12  H7  <0> d           0.065  -2.453   3.124  0.00  0.00     0.038 H 
ATOM     13  H8  <0> d           0.950  -1.316   4.170  0.00  0.00     0.038 H 
ATOM     14  H9  <0> d          -0.830  -1.340   4.187  0.00  0.00     0.038 H 
ENDBRANCH   9  11
ENDBRANCH   6   9
BRANCH   1  15
ATOM     15  C1  <0> d          -0.018   1.503   0.010  0.00  0.00    -0.049 C 
ATOM     16  H2  <0> d           1.004   1.880   0.003  0.00  0.00     0.033 H 
ATOM     17  H3  <0> d          -0.545   1.864  -0.873  0.00  0.00     0.033 H 
ATOM     18  H4  <0> d          -0.529   1.854   0.907  0.00  0.00     0.033 H 
ENDBRANCH   1  15
TORSDOF 3
