REMARK  2 active torsions:
REMARK  status: ('A' for Active; 'I' for Inactive)
REMARK    1  A    between atoms: C1_1  and  N1_2 
REMARK    2  A    between atoms: C3_6  and  C4_7 
ROOT
ATOM      1  N1  <0> d           0.002  -0.004   0.002  0.00  0.00    -0.331 N 
ATOM      2  C2  <0> d           0.009  -0.813  -1.085  0.00  0.00     0.088 A 
ATOM      3  N2  <0> d           0.027  -2.044  -0.652  0.00  0.00    -0.143 NA
ATOM      4  N3  <0> d           0.032  -2.051   0.634  0.00  0.00    -0.135 NA
ATOM      5  C3  <0> d           0.024  -0.825   1.080  0.00  0.00     0.133 A 
ATOM      6  H4  <0> d          -0.000  -0.498  -2.118  0.00  0.00     0.146 H 
ENDROOT
BRANCH   5   7
ATOM      7  C4  <0> d           0.032  -0.400   2.526  0.00  0.00     0.006 A 
ATOM      8  C6  <0> d          -1.129  -0.868   3.406  0.00  0.00    -0.054 A 
ATOM      9  C5  <0> d           0.260  -1.486   3.579  0.00  0.00    -0.054 A 
ATOM     10  H8  <0> d          -1.477  -0.187   4.183  0.00  0.00     0.034 H 
ATOM     11  H9  <0> d          -1.899  -1.483   2.939  0.00  0.00     0.034 H 
ATOM     12  H6  <0> d           0.404  -2.507   3.227  0.00  0.00     0.034 H 
ATOM     13  H7  <0> d           0.825  -1.212   4.470  0.00  0.00     0.034 H 
ATOM     14  H5  <0> d           0.447   0.588   2.723  0.00  0.00     0.052 H 
ENDBRANCH   5   7
BRANCH   1  15
ATOM     15  C1  <0> d          -0.018   1.461   0.010  0.00  0.00    -0.012 C 
ATOM     16  H1  <0> d           1.005   1.838   0.002  0.00  0.00     0.057 H 
ATOM     17  H2  <0> d          -0.545   1.822  -0.873  0.00  0.00     0.057 H 
ATOM     18  H3  <0> d          -0.528   1.812   0.907  0.00  0.00     0.057 H 
ENDBRANCH   1  15
TORSDOF 2
