REMARK  2 active torsions:
REMARK  status: ('A' for Active; 'I' for Inactive)
REMARK    1  A    between atoms: C1_1  and  C2_2 
REMARK    2  A    between atoms: C4_4  and  C5_7 
ROOT
ATOM      1  C2  <0> d           1.089   1.961   0.002  0.00  0.00     0.060 A 
ATOM      2  C3  <0> d          -0.013   1.076   0.008  0.00  0.00    -0.027 A 
ATOM      3  C4  <0> d          -1.091   1.895   0.017  0.00  0.00     0.077 A 
ATOM      4  O1  <0> d          -0.615   3.148   0.024  0.00  0.00    -0.218 OA
ATOM      5  N1  <0> d           0.594   3.165   0.013  0.00  0.00    -0.133 NA
ATOM      6  H4  <0> d           0.002  -0.004   0.002  0.00  0.00     0.090 H 
ENDROOT
BRANCH   1   7
ATOM      7  C1  <0> d           2.549   1.586  -0.013  0.00  0.00    -0.033 C 
ATOM      8  H1  <0> d           2.891   1.501  -1.045  0.00  0.00     0.035 H 
ATOM      9  H2  <0> d           3.127   2.355   0.499  0.00  0.00     0.035 H 
ATOM     10  H3  <0> d           2.684   0.631   0.494  0.00  0.00     0.035 H 
ENDBRANCH   1   7
BRANCH   3  11
ATOM     11  C5  <0> d          -2.540   1.480   0.020  0.00  0.00    -0.029 C 
ATOM     12  H5  <0> d          -2.885   1.374   1.049  0.00  0.00     0.036 H 
ATOM     13  H6  <0> d          -3.136   2.238  -0.487  0.00  0.00     0.036 H 
ATOM     14  H7  <0> d          -2.646   0.527  -0.498  0.00  0.00     0.036 H 
ENDBRANCH   3  11
TORSDOF 2
