REMARK  1 active torsions:
REMARK  status: ('A' for Active; 'I' for Inactive)
REMARK    1  A    between atoms: C2_4  and  C3_6 
ROOT
ATOM      1  C3  <0> d          -1.200  -0.912   0.009  0.00  0.00     0.077 C 
ATOM      2  C4  <0> d          -1.605  -1.201  -1.376  0.00  0.00     0.067 C 
ATOM      3  N3  <0> d          -1.918  -1.424  -2.446  0.00  0.00    -0.197 NA
ATOM      4  H2  <0> d          -0.949  -1.844   0.516  0.00  0.00     0.067 H 
ATOM      5  H3  <0> d          -2.022  -0.424   0.533  0.00  0.00     0.067 H 
ENDROOT
BRANCH   1   6
ATOM      6  C2  <0> d           0.002  -0.004   0.002  0.00  0.00     0.181 A 
ATOM      7  N2  <0> d          -0.016   1.298   0.009  0.00  0.00    -0.127 NA
ATOM      8  N1  <0> d           1.192   1.742   0.000  0.00  0.00    -0.136 NA
ATOM      9  C1  <0> d           2.022   0.737  -0.013  0.00  0.00     0.126 A 
ATOM     10  O1  <0> d           1.289  -0.389  -0.012  0.00  0.00    -0.285 OA
ATOM     11  H1  <0> d           3.100   0.799  -0.024  0.00  0.00     0.158 H 
ENDBRANCH   1   6
TORSDOF 1
