REMARK  3 active torsions:
REMARK  status: ('A' for Active; 'I' for Inactive)
REMARK    1  A    between atoms: N1_3  and  C4_7 
REMARK    2  A    between atoms: C3_5  and  N3_6 
REMARK    3  A    between atoms: C4_7  and  C5_8 
ROOT
ATOM      1  C5  <0> d           4.061  -0.068   1.145  0.00  0.00     0.031 C 
ATOM      2  C6  <0> d           5.533  -0.054   1.131  0.00  0.00     0.060 C 
ATOM      3  N4  <0> d           6.669  -0.043   1.120  0.00  0.00    -0.197 NA
ATOM      4  H7  <0> d           3.703   0.358   2.082  0.00  0.00     0.057 H 
ATOM      5  H8  <0> d           3.706  -1.094   1.053  0.00  0.00     0.057 H 
ENDROOT
BRANCH   1   6
ATOM      6  C4  <0> d           3.532   0.761  -0.028  0.00  0.00     0.028 C 
ATOM      7  H5  <0> d           3.891   0.335  -0.965  0.00  0.00     0.068 H 
ATOM      8  H6  <0> d           3.887   1.788   0.064  0.00  0.00     0.068 H 
BRANCH   6   9
ATOM      9  N1  <0> d           2.067   0.748  -0.014  0.00  0.00    -0.278 N 
ATOM     10  C2  <0> d           1.264   1.832  -0.000  0.00  0.00     0.002 A 
ATOM     11  C1  <0> d          -0.017   1.400   0.010  0.00  0.00    -0.021 A 
ATOM     12  H2  <0> d           1.588   2.863   0.002  0.00  0.00     0.114 H 
ATOM     13  C3  <0> d           0.002  -0.004   0.002  0.00  0.00     0.142 A 
ATOM     14  H1  <0> d          -0.898   2.024   0.025  0.00  0.00     0.091 H 
ATOM     15  N2  <0> d           1.255  -0.394  -0.012  0.00  0.00    -0.155 NA
BRANCH  13  16
ATOM     16  N3  <0> d          -1.119  -0.842   0.009  0.00  0.00    -0.383 N 
ATOM     17  H3  <0> d          -2.011  -0.459   0.019  0.00  0.00     0.157 HD
ATOM     18  H4  <0> d          -1.005  -1.805   0.002  0.00  0.00     0.157 HD
ENDBRANCH  13  16
ENDBRANCH   6   9
ENDBRANCH   1   6
TORSDOF 3
