REMARK  4 active torsions:
REMARK  status: ('A' for Active; 'I' for Inactive)
REMARK    1  A    between atoms: C1_1  and  C2_2 
REMARK    2  A    between atoms: C2_2  and  C3_3 
REMARK    3  A    between atoms: C4_4  and  C7_9 
REMARK    4  A    between atoms: N2_7  and  C6_8 
ROOT
ATOM      1  C3  <0> d           2.381   3.839  -0.000  0.00  0.00     0.048 A 
ATOM      2  C4  <0> d           1.238   3.063   0.007  0.00  0.00     0.084 A 
ATOM      3  C5  <0> d           0.134   3.945   0.016  0.00  0.00     0.040 A 
ATOM      4  N1  <0> d           0.594   5.166   0.024  0.00  0.00    -0.184 NA
ATOM      5  N2  <0> d           1.993   5.124   0.011  0.00  0.00    -0.278 N 
ATOM      6  H6  <0> d          -0.907   3.659   0.019  0.00  0.00     0.119 H 
ENDROOT
BRANCH   1   7
ATOM      7  C2  <0> d           3.801   3.336  -0.016  0.00  0.00    -0.027 C 
ATOM      8  H4  <0> d           4.442   4.063  -0.536  0.00  0.00     0.041 H 
ATOM      9  H5  <0> d           3.842   2.370  -0.540  0.00  0.00     0.041 H 
BRANCH   7  10
ATOM     10  C1  <0> d           4.295   3.158   1.421  0.00  0.00    -0.071 C 
ATOM     11  H1  <0> d           5.332   2.791   1.410  0.00  0.00     0.028 H 
ATOM     12  H2  <0> d           3.654   2.431   1.942  0.00  0.00     0.028 H 
ATOM     13  H3  <0> d           4.254   4.124   1.945  0.00  0.00     0.028 H 
ENDBRANCH   7  10
ENDBRANCH   1   7
BRANCH   5  14
ATOM     14  C6  <0> d           2.884   6.287   0.008  0.00  0.00     0.003 C 
ATOM     15  H7  <0> d           2.284   7.209   0.019  0.00  0.00     0.059 H 
ATOM     16  H8  <0> d           3.509   6.267  -0.897  0.00  0.00     0.059 H 
ATOM     17  H9  <0> d           3.527   6.258   0.899  0.00  0.00     0.059 H 
ENDBRANCH   5  14
BRANCH   2  18
ATOM     18  C7  <0> d           1.181   1.591  -0.001  0.00  0.00     0.212 C 
ATOM     19  O1  <0> d           2.209   0.943  -0.014  0.00  0.00    -0.644 OA
ATOM     20  O2  <0> d          -0.011   0.963   0.007  0.00  0.00    -0.644 OA
ENDBRANCH   2  18
TORSDOF 4
