REMARK  5 active torsions:
REMARK  status: ('A' for Active; 'I' for Inactive)
REMARK    1  A    between atoms: C1_1  and  C2_2 
REMARK    2  A    between atoms: C2_2  and  C3_3 
REMARK    3  A    between atoms: C2_2  and  C4_4 
REMARK    4  A    between atoms: C5_6  and  C6_9 
REMARK    5  A    between atoms: C6_9  and  O2_10 
ROOT
ATOM      1  C4  <0> d          -2.143   1.058   1.278  0.00  0.00     0.159 A 
ATOM      2  N1  <0> d          -3.264   1.799   1.298  0.00  0.00    -0.206 NA
ATOM      3  C5  <0> d          -4.255   0.940   1.298  0.00  0.00     0.196 A 
ATOM      4  O1  <0> d          -3.711  -0.280   1.286  0.00  0.00    -0.194 OA
ATOM      5  N2  <0> d          -2.502  -0.191   1.275  0.00  0.00    -0.111 NA
ENDROOT
BRANCH   1   6
ATOM      6  C2  <0> d          -0.729   1.579   1.267  0.00  0.00     0.001 C 
ATOM      7  H4  <0> d          -0.744   2.669   1.273  0.00  0.00     0.051 H 
BRANCH   6   8
ATOM      8  C1  <0> d          -0.013   1.086   0.008  0.00  0.00    -0.066 C 
ATOM      9  H1  <0> d           0.002  -0.004   0.002  0.00  0.00     0.028 H 
ATOM     10  H2  <0> d           1.010   1.463   0.000  0.00  0.00     0.028 H 
ATOM     11  H3  <0> d          -0.540   1.447  -0.875  0.00  0.00     0.028 H 
ENDBRANCH   6   8
BRANCH   6  12
ATOM     12  C3  <0> d           0.011   1.072   2.506  0.00  0.00    -0.066 C 
ATOM     13  H5  <0> d           0.026  -0.018   2.500  0.00  0.00     0.028 H 
ATOM     14  H6  <0> d           1.034   1.450   2.499  0.00  0.00     0.028 H 
ATOM     15  H7  <0> d          -0.499   1.424   3.403  0.00  0.00     0.028 H 
ENDBRANCH   6  12
ENDBRANCH   1   6
BRANCH   3  16
ATOM     16  C6  <0> d          -5.726   1.267   1.315  0.00  0.00     0.080 C 
ATOM     17  H8  <0> d          -6.269   0.474   1.829  0.00  0.00     0.086 H 
ATOM     18  H9  <0> d          -5.883   2.212   1.835  0.00  0.00     0.086 H 
BRANCH  16  19
ATOM     19  O2  <0> d          -6.205   1.378  -0.028  0.00  0.00    -0.393 OA
ATOM     20  H10 <0> d          -7.146   1.587  -0.093  0.00  0.00     0.210 HD
ENDBRANCH  16  19
ENDBRANCH   3  16
TORSDOF 5
