REMARK  1 active torsions:
REMARK  status: ('A' for Active; 'I' for Inactive)
REMARK    1  A    between atoms: C4_5  and  C5_7 
REMARK       I    between atoms: C5_7  and  N3_9 
ROOT
ATOM      1  C1  <0> d          -0.017   1.384   0.010  0.00  0.00     0.018 A 
ATOM      2  C2  <0> d           0.002  -0.004   0.001  0.00  0.00    -0.004 A 
ATOM      3  N1  <0> d           1.151  -0.655  -0.013  0.00  0.00    -0.341 N 
ATOM      4  C3  <0> d           2.294   0.018  -0.020  0.00  0.00     0.213 A 
ATOM      5  C4  <0> d           2.276   1.420  -0.012  0.00  0.00     0.177 A 
ATOM      6  N2  <0> d           1.112   2.063   0.003  0.00  0.00    -0.250 NA
ATOM      7  O2  <0> d           3.474  -0.646  -0.035  0.00  0.00    -0.169 OA
ATOM      8  H1  <0> d          -0.961   1.908   0.022  0.00  0.00     0.116 H 
ATOM      9  H2  <0> d          -0.927  -0.554   0.006  0.00  0.00     0.113 H 
ATOM     10  H5  <0> d           1.159  -1.655  -0.019  0.00  0.00     0.167 HD
ENDROOT
BRANCH   5  11
ATOM     11  C5  <0> d           3.544   2.179  -0.020  0.00  0.00     0.272 C 
ATOM     12  O1  <0> d           4.606   1.588  -0.033  0.00  0.00    -0.266 OA
ATOM     13  N3  <0> d           3.522   3.527  -0.012  0.00  0.00    -0.365 N 
ATOM     14  H3  <0> d           2.675   3.998  -0.002  0.00  0.00     0.159 HD
ATOM     15  H4  <0> d           4.355   4.025  -0.017  0.00  0.00     0.159 HD
ENDBRANCH   5  11
TORSDOF 1
