REMARK  3 active torsions:
REMARK  status: ('A' for Active; 'I' for Inactive)
REMARK    1  A    between atoms: C1_1  and  O1_2 
REMARK    2  A    between atoms: O1_2  and  C2_3 
REMARK    3  A    between atoms: C2_3  and  C3_5 
ROOT
ATOM      1  C3  <0> d          -0.019   1.526   0.010  0.00  0.00     0.116 C 
ATOM      2  H1  <0> d          -0.531   1.876   0.906  0.00  0.00     0.091 H 
ATOM      3  C4  <0> d           0.002  -0.004   0.002  0.00  0.00     0.048 C 
ATOM      4  O3  <0> d           0.905  -0.456   1.018  0.00  0.00    -0.380 OA
ATOM      5  C5  <0> d           2.272  -0.155   0.724  0.00  0.00     0.093 C 
ATOM      6  C6  <0> d           2.403   1.293   0.342  0.00  0.00     0.242 C 
ATOM      7  O4  <0> d           3.505   1.800   0.342  0.00  0.00    -0.271 OA
ATOM      8  N1  <0> d           1.348   2.042   0.000  0.00  0.00    -0.343 N 
ATOM      9  H5  <0> d          -0.999  -0.385   0.207  0.00  0.00     0.078 H 
ATOM     10  H6  <0> d           0.336  -0.360  -0.973  0.00  0.00     0.078 H 
ATOM     11  H7  <0> d           2.884  -0.354   1.603  0.00  0.00     0.089 H 
ATOM     12  H8  <0> d           2.611  -0.779  -0.103  0.00  0.00     0.089 H 
ATOM     13  H9  <0> d           1.496   2.964  -0.265  0.00  0.00     0.163 HD
ENDROOT
BRANCH   1  14
ATOM     14  C2  <0> d          -0.751   2.023  -1.209  0.00  0.00     0.283 C 
ATOM     15  O2  <0> d          -0.130   2.409  -2.171  0.00  0.00    -0.263 OA
BRANCH  14  16
ATOM     16  O1  <0> d          -2.093   2.038  -1.227  0.00  0.00    -0.325 OA
BRANCH  16  17
ATOM     17  C1  <0> d          -2.731   2.530  -2.435  0.00  0.00     0.013 C 
ATOM     18  H2  <0> d          -2.425   3.560  -2.614  0.00  0.00     0.067 H 
ATOM     19  H3  <0> d          -2.433   1.910  -3.281  0.00  0.00     0.067 H 
ATOM     20  H4  <0> d          -3.814   2.488  -2.317  0.00  0.00     0.067 H 
ENDBRANCH  16  17
ENDBRANCH  14  16
ENDBRANCH   1  14
TORSDOF 3
