REMARK  5 active torsions:
REMARK  status: ('A' for Active; 'I' for Inactive)
REMARK    1  A    between atoms: C1_1  and  C2_2 
REMARK    2  A    between atoms: C2_2  and  C3_3 
REMARK    3  A    between atoms: C3_3  and  C4_4 
REMARK    4  A    between atoms: C4_4  and  O1_5 
REMARK    5  A    between atoms: O1_5  and  C5_6 
ROOT
ATOM      1  C4  <0> d          -1.350   5.832   0.045  0.00  0.00     0.026 C 
ATOM      2  H8  <0> d          -1.912   5.536  -0.841  0.00  0.00     0.075 H 
ATOM      3  H9  <0> d          -1.895   5.527   0.939  0.00  0.00     0.075 H 
ENDROOT
BRANCH   1   4
ATOM      4  C3  <0> d          -1.171   7.351   0.050  0.00  0.00    -0.045 C 
ATOM      5  H6  <0> d          -0.609   7.648   0.936  0.00  0.00     0.036 H 
ATOM      6  H7  <0> d          -0.626   7.656  -0.844  0.00  0.00     0.036 H 
BRANCH   4   7
ATOM      7  C2  <0> d          -2.543   8.027   0.067  0.00  0.00    -0.067 C 
ATOM      8  H4  <0> d          -3.105   7.731  -0.819  0.00  0.00     0.032 H 
ATOM      9  H5  <0> d          -3.087   7.723   0.961  0.00  0.00     0.032 H 
BRANCH   7  10
ATOM     10  C1  <0> d          -2.363   9.547   0.072  0.00  0.00    -0.076 C 
ATOM     11  H1  <0> d          -1.819   9.851  -0.822  0.00  0.00     0.027 H 
ATOM     12  H2  <0> d          -3.341  10.028   0.085  0.00  0.00     0.027 H 
ATOM     13  H3  <0> d          -1.801   9.843   0.958  0.00  0.00     0.027 H 
ENDBRANCH   7  10
ENDBRANCH   4   7
ENDBRANCH   1   4
BRANCH   1  14
ATOM     14  O1  <0> d          -0.069   5.201   0.029  0.00  0.00    -0.351 OA
BRANCH  14  15
ATOM     15  C5  <0> d          -0.050   3.842   0.023  0.00  0.00     0.068 A 
ATOM     16  C10 <0> d          -1.241   3.131   0.031  0.00  0.00    -0.051 A 
ATOM     17  C9  <0> d          -1.220   1.750   0.017  0.00  0.00    -0.080 A 
ATOM     18  H14 <0> d          -2.185   3.657   0.042  0.00  0.00     0.087 H 
ATOM     19  C8  <0> d          -0.013   1.076   0.008  0.00  0.00    -0.083 A 
ATOM     20  H13 <0> d          -2.147   1.196   0.018  0.00  0.00     0.083 H 
ATOM     21  C7  <0> d           1.176   1.782   0.000  0.00  0.00    -0.080 A 
ATOM     22  H12 <0> d           0.002  -0.004   0.002  0.00  0.00     0.083 H 
ATOM     23  C6  <0> d           1.160   3.163   0.007  0.00  0.00    -0.051 A 
ATOM     24  H11 <0> d           2.118   1.254  -0.011  0.00  0.00     0.083 H 
ATOM     25  H10 <0> d           2.089   3.715   0.001  0.00  0.00     0.087 H 
ENDBRANCH  14  15
ENDBRANCH   1  14
TORSDOF 5
