REMARK  1 active torsions:
REMARK  status: ('A' for Active; 'I' for Inactive)
REMARK    1  A    between atoms: C1_1  and  C4_11 
ROOT
ATOM      1  C1  <0> d           1.238   3.079   0.007  0.00  0.00     0.191 A 
ATOM      2  N1  <0> d           2.449   3.714  -0.001  0.00  0.00    -0.289 N 
ATOM      3  H1  <0> d           3.378   3.126  -0.013  0.00  0.00     0.172 HD
ATOM      4  C2  <0> d           2.497   5.062   0.005  0.00  0.00     0.330 A 
ATOM      5  O1  <0> d           3.569   5.636  -0.002  0.00  0.00    -0.246 OA
ATOM      6  N2  <0> d           1.348   5.769   0.019  0.00  0.00    -0.260 N 
ATOM      7  H2  <0> d           1.378   6.868   0.025  0.00  0.00     0.175 HD
ATOM      8  C3  <0> d           0.166   5.122   0.027  0.00  0.00     0.330 A 
ATOM      9  O2  <0> d          -0.872   5.758   0.040  0.00  0.00    -0.246 OA
ATOM     10  N3  <0> d           0.127   3.776   0.016  0.00  0.00    -0.289 N 
ATOM     11  H3  <0> d          -0.845   3.261   0.014  0.00  0.00     0.172 HD
ENDROOT
BRANCH   1  12
ATOM     12  C4  <0> d           1.180   1.590  -0.001  0.00  0.00     0.245 C 
ATOM     13  O3  <0> d           2.206   0.943  -0.014  0.00  0.00    -0.642 OA
ATOM     14  O4  <0> d          -0.011   0.963   0.007  0.00  0.00    -0.642 OA
ENDBRANCH   1  12
TORSDOF 1
