REMARK  1 active torsions:
REMARK  status: ('A' for Active; 'I' for Inactive)
REMARK    1  A    between atoms: C1_1  and  C3_7 
REMARK       I    between atoms: C3_7  and  N4_9 
ROOT
ATOM      1  C1  <0> d          -0.018   1.474   0.010  0.00  0.00     0.242 A 
ATOM      2  N1  <0> d           1.060   2.281   0.004  0.00  0.00    -0.191 NA
ATOM      3  C2  <0> d           0.621   3.515   0.014  0.00  0.00     0.245 A 
ATOM      4  N2  <0> d          -0.725   3.469   0.026  0.00  0.00    -0.115 NA
ATOM      5  N3  <0> d          -1.091   2.233   0.019  0.00  0.00    -0.121 NA
ATOM      6 Cl1  <0> d           1.597   4.951   0.012  0.00  0.00    -0.040 Cl
ENDROOT
BRANCH   1   7
ATOM      7  C3  <0> d           0.002  -0.004   0.002  0.00  0.00     0.289 C 
ATOM      8  O1  <0> d           1.063  -0.598  -0.011  0.00  0.00    -0.264 OA
ATOM      9  N4  <0> d          -1.156  -0.694   0.009  0.00  0.00    -0.363 N 
ATOM     10  H1  <0> d          -2.002  -0.220   0.020  0.00  0.00     0.159 HD
ATOM     11  H2  <0> d          -1.143  -1.664   0.004  0.00  0.00     0.159 HD
ENDBRANCH   1   7
TORSDOF 1
