REMARK  2 active torsions:
REMARK  status: ('A' for Active; 'I' for Inactive)
REMARK    1  A    between atoms: C1_1  and  C2_2 
REMARK    2  A    between atoms: C3_3  and  N2_8 
ROOT
ATOM      1  C2  <0> d           1.189   2.079   0.002  0.00  0.00     0.056 A 
ATOM      2  C3  <0> d          -0.017   1.389   0.010  0.00  0.00     0.050 A 
ATOM      3  C4  <0> d           0.002  -0.004   0.002  0.00  0.00    -0.054 A 
ATOM      4  C5  <0> d           1.230  -0.645  -0.013  0.00  0.00    -0.064 A 
ATOM      5  C6  <0> d           2.387   0.111  -0.020  0.00  0.00     0.003 A 
ATOM      6  N1  <0> d           2.335   1.429  -0.013  0.00  0.00    -0.264 NA
ATOM      7  H4  <0> d          -0.918  -0.570   0.007  0.00  0.00     0.087 H 
ATOM      8  H5  <0> d           1.283  -1.724  -0.020  0.00  0.00     0.085 H 
ATOM      9  H6  <0> d           3.347  -0.384  -0.032  0.00  0.00     0.114 H 
ENDROOT
BRANCH   1  10
ATOM     10  C1  <0> d           1.186   3.586   0.009  0.00  0.00    -0.033 C 
ATOM     11  H1  <0> d           1.195   3.944   1.039  0.00  0.00     0.035 H 
ATOM     12  H2  <0> d           2.070   3.954  -0.511  0.00  0.00     0.035 H 
ATOM     13  H3  <0> d           0.290   3.950  -0.494  0.00  0.00     0.035 H 
ENDBRANCH   1  10
BRANCH   2  14
ATOM     14  N2  <0> d          -1.230   2.081   0.019  0.00  0.00    -0.397 N 
ATOM     15  H7  <0> d          -2.068   1.592   0.021  0.00  0.00     0.156 HD
ATOM     16  H8  <0> d          -1.235   3.051   0.025  0.00  0.00     0.156 HD
ENDBRANCH   2  14
TORSDOF 2
