REMARK  4 active torsions:
REMARK  status: ('A' for Active; 'I' for Inactive)
REMARK    1  A    between atoms: C1_1  and  C2_2 
REMARK    2  A    between atoms: C2_2  and  C3_3 
REMARK       I    between atoms: N1_8  and  C7_9 
REMARK    3  A    between atoms: C7_9  and  O2_11 
REMARK    4  A    between atoms: O2_11  and  C8_12 
ROOT
ATOM      1  C3  <0> d           0.760  -0.384  -1.268  0.00  0.00     0.016 C 
ATOM      2  H1  <0> d           1.752   0.067  -1.257  0.00  0.00     0.072 H 
ATOM      3  C4  <0> d           0.869  -1.924  -1.399  0.00  0.00    -0.044 C 
ATOM      4  C5  <0> d           1.063  -2.093  -2.929  0.00  0.00    -0.048 C 
ATOM      5  C6  <0> d           0.185  -0.969  -3.515  0.00  0.00     0.000 C 
ATOM      6  N1  <0> d           0.014   0.047  -2.464  0.00  0.00    -0.323 N 
ATOM      7  C7  <0> d          -0.706   1.181  -2.575  0.00  0.00     0.362 C 
ATOM      8  O1  <0> d          -0.701   1.994  -1.671  0.00  0.00    -0.238 OA
ATOM      9  H7  <0> d           1.732  -2.302  -0.851  0.00  0.00     0.036 H 
ATOM     10  H8  <0> d          -0.048  -2.410  -1.065  0.00  0.00     0.036 H 
ATOM     11  H9  <0> d           2.108  -1.949  -3.203  0.00  0.00     0.035 H 
ATOM     12  H10 <0> d           0.709  -3.071  -3.256  0.00  0.00     0.035 H 
ATOM     13  H11 <0> d           0.679  -0.525  -4.380  0.00  0.00     0.064 H 
ATOM     14  H12 <0> d          -0.786  -1.370  -3.806  0.00  0.00     0.064 H 
ENDROOT
BRANCH   1  15
ATOM     15  C2  <0> d          -0.008  -0.010   0.002  0.00  0.00    -0.049 C 
ATOM     16  H5  <0> d          -0.963  -0.535   0.016  0.00  0.00     0.035 H 
ATOM     17  H6  <0> d          -0.183   1.065   0.017  0.00  0.00     0.035 H 
BRANCH  15  18
ATOM     18  C1  <0> d           0.813  -0.410   1.230  0.00  0.00    -0.075 C 
ATOM     19  H2  <0> d           0.905  -1.495   1.268  0.00  0.00     0.027 H 
ATOM     20  H3  <0> d           1.804   0.037   1.166  0.00  0.00     0.027 H 
ATOM     21  H4  <0> d           0.312  -0.057   2.132  0.00  0.00     0.027 H 
ENDBRANCH  15  18
ENDBRANCH   1  15
BRANCH   7  22
ATOM     22  O2  <0> d          -1.431   1.413  -3.685  0.00  0.00    -0.309 OA
BRANCH  22  23
ATOM     23  C8  <0> d          -2.170   2.635  -3.735  0.00  0.00     0.015 C 
ATOM     24  H13 <0> d          -2.881   2.663  -2.909  0.00  0.00     0.067 H 
ATOM     25  H14 <0> d          -1.484   3.478  -3.651  0.00  0.00     0.067 H 
ATOM     26  H15 <0> d          -2.707   2.696  -4.681  0.00  0.00     0.067 H 
ENDBRANCH  22  23
ENDBRANCH   7  22
TORSDOF 4
