REMARK  4 active torsions:
REMARK  status: ('A' for Active; 'I' for Inactive)
REMARK    1  A    between atoms: C1_1  and  C2_2 
REMARK    2  A    between atoms: C2_2  and  S1_3 
REMARK    3  A    between atoms: S1_3  and  C3_4 
REMARK    4  A    between atoms: C4_7  and  C5_9 
ROOT
ATOM      1  C3  <0> d           0.174   0.961   2.735  0.00  0.00     0.231 A 
ATOM      2  N1  <0> d           1.239   0.222   2.530  0.00  0.00    -0.115 NA
ATOM      3  N2  <0> d           1.745  -0.117   3.663  0.00  0.00    -0.126 NA
ATOM      4  C4  <0> d           1.026   0.378   4.628  0.00  0.00     0.166 A 
ATOM      5  O1  <0> d           0.015   1.071   4.068  0.00  0.00    -0.269 OA
ENDROOT
BRANCH   1   6
ATOM      6  S1  <0> d          -0.860   1.669   1.497  0.00  0.00    -0.083 SA
BRANCH   6   7
ATOM      7  C2  <0> d          -0.013   1.086   0.008  0.00  0.00    -0.019 C 
ATOM      8  H4  <0> d           0.002  -0.004   0.002  0.00  0.00     0.049 H 
ATOM      9  H5  <0> d           1.010   1.463   0.000  0.00  0.00     0.049 H 
BRANCH   7  10
ATOM     10  C1  <0> d          -0.753   1.593  -1.232  0.00  0.00    -0.068 C 
ATOM     11  H1  <0> d          -0.242   1.241  -2.128  0.00  0.00     0.028 H 
ATOM     12  H2  <0> d          -1.775   1.215  -1.224  0.00  0.00     0.028 H 
ATOM     13  H3  <0> d          -0.767   2.683  -1.226  0.00  0.00     0.028 H 
ENDBRANCH   7  10
ENDBRANCH   6   7
ENDBRANCH   1   6
BRANCH   4  14
ATOM     14  C5  <0> d           1.278   0.207   6.104  0.00  0.00    -0.013 C 
ATOM     15  H6  <0> d           0.757  -0.681   6.461  0.00  0.00     0.038 H 
ATOM     16  H7  <0> d           2.348   0.096   6.279  0.00  0.00     0.038 H 
ATOM     17  H8  <0> d           0.911   1.083   6.639  0.00  0.00     0.038 H 
ENDBRANCH   4  14
TORSDOF 4
