REMARK  3 active torsions:
REMARK  status: ('A' for Active; 'I' for Inactive)
REMARK    1  A    between atoms: C1_1  and  C2_2 
REMARK    2  A    between atoms: C2_2  and  S1_3 
REMARK    3  A    between atoms: S1_3  and  N1_6 
ROOT
ATOM      1  C2  <0> d          -1.110   2.020   1.327  0.00  0.00     0.043 C 
ATOM      2  H4  <0> d          -1.225   3.100   1.237  0.00  0.00     0.058 H 
ATOM      3  H5  <0> d          -2.085   1.541   1.237  0.00  0.00     0.058 H 
ENDROOT
BRANCH   1   4
ATOM      4  C1  <0> d          -0.500   1.683   2.689  0.00  0.00    -0.062 C 
ATOM      5  H1  <0> d          -0.385   0.603   2.779  0.00  0.00     0.028 H 
ATOM      6  H2  <0> d           0.475   2.161   2.779  0.00  0.00     0.028 H 
ATOM      7  H3  <0> d          -1.156   2.045   3.480  0.00  0.00     0.028 H 
ENDBRANCH   1   4
BRANCH   1   8
ATOM      8  S1  <0> d          -0.017   1.417   0.010  0.00  0.00     0.224 S 
ATOM      9  O1  <0> d           0.002  -0.004   0.002  0.00  0.00    -0.206 OA
ATOM     10  O2  <0> d           1.195   2.158   0.002  0.00  0.00    -0.206 OA
BRANCH   8  11
ATOM     11  N1  <0> d          -0.778   1.837  -1.400  0.00  0.00    -0.328 N 
ATOM     12  H6  <0> d          -1.039   1.150  -2.033  0.00  0.00     0.168 HD
ATOM     13  H7  <0> d          -0.962   2.769  -1.592  0.00  0.00     0.168 HD
ENDBRANCH   8  11
ENDBRANCH   1   8
TORSDOF 3
