REMARK  4 active torsions:
REMARK  status: ('A' for Active; 'I' for Inactive)
REMARK    1  A    between atoms: C1_1  and  C2_2 
REMARK    2  A    between atoms: C5_5  and  C6_7 
REMARK    3  A    between atoms: C7_8  and  C8_9 
REMARK    4  A    between atoms: C8_9  and  O2_10 
ROOT
ATOM      1  C2  <0> d           0.002  -0.004   0.002  0.00  0.00     0.050 A 
ATOM      2  C3  <0> d          -1.083  -0.804   0.003  0.00  0.00    -0.052 A 
ATOM      3  C4  <0> d          -0.616  -2.133  -0.007  0.00  0.00    -0.048 A 
ATOM      4  C5  <0> d           0.745  -2.071  -0.013  0.00  0.00     0.075 A 
ATOM      5  O1  <0> d           1.104  -0.772  -0.013  0.00  0.00    -0.316 OA
ATOM      6  H4  <0> d          -2.115  -0.486   0.009  0.00  0.00     0.087 H 
ATOM      7  H5  <0> d          -1.220  -3.028  -0.008  0.00  0.00     0.087 H 
ENDROOT
BRANCH   4   8
ATOM      8  C6  <0> d           1.662  -3.220  -0.022  0.00  0.00    -0.052 C 
ATOM      9  C7  <0> d           2.977  -3.022  -0.028  0.00  0.00    -0.078 C 
ATOM     10  H7  <0> d           3.371  -2.016  -0.025  0.00  0.00     0.080 H 
ATOM     11  H6  <0> d           1.268  -4.226  -0.025  0.00  0.00     0.087 H 
BRANCH   9  12
ATOM     12  C8  <0> d           3.917  -4.199  -0.037  0.00  0.00     0.032 C 
ATOM     13  H8  <0> d           4.356  -4.322   0.953  0.00  0.00     0.080 H 
ATOM     14  H9  <0> d           3.366  -5.101  -0.305  0.00  0.00     0.080 H 
BRANCH  12  15
ATOM     15  O2  <0> d           4.954  -3.973  -0.994  0.00  0.00    -0.397 OA
ATOM     16  H10 <0> d           5.598  -4.693  -1.054  0.00  0.00     0.209 HD
ENDBRANCH  12  15
ENDBRANCH   9  12
ENDBRANCH   4   8
BRANCH   1  17
ATOM     17  C1  <0> d          -0.018   1.503   0.010  0.00  0.00    -0.031 C 
ATOM     18  H1  <0> d           1.004   1.880   0.003  0.00  0.00     0.036 H 
ATOM     19  H2  <0> d          -0.545   1.864  -0.873  0.00  0.00     0.036 H 
ATOM     20  H3  <0> d          -0.529   1.854   0.907  0.00  0.00     0.036 H 
ENDBRANCH   1  17
TORSDOF 4
