REMARK  4 active torsions:
REMARK  status: ('A' for Active; 'I' for Inactive)
REMARK    1  A    between atoms: C1_1  and  C2_2 
REMARK    2  A    between atoms: C3_3  and  N1_10 
REMARK    3  A    between atoms: C7_7  and  O1_8 
REMARK    4  A    between atoms: O1_8  and  C8_9 
ROOT
ATOM      1  C2  <0> d           2.387   1.410  -0.013  0.00  0.00    -0.003 A 
ATOM      2  C3  <0> d           1.177   2.089   0.002  0.00  0.00     0.034 A 
ATOM      3  C4  <0> d          -0.017   1.377   0.010  0.00  0.00    -0.057 A 
ATOM      4  C5  <0> d           0.002  -0.004   0.002  0.00  0.00    -0.078 A 
ATOM      5  C6  <0> d           1.206  -0.681  -0.013  0.00  0.00    -0.050 A 
ATOM      6  C7  <0> d           2.402   0.025  -0.021  0.00  0.00     0.076 A 
ATOM      7  H4  <0> d          -0.959   1.904   0.017  0.00  0.00     0.086 H 
ATOM      8  H5  <0> d          -0.926  -0.556   0.008  0.00  0.00     0.083 H 
ATOM      9  H6  <0> d           1.218  -1.761  -0.019  0.00  0.00     0.087 H 
ENDROOT
BRANCH   6  10
ATOM     10  O1  <0> d           3.585  -0.643  -0.035  0.00  0.00    -0.355 OA
BRANCH  10  11
ATOM     11  C8  <0> d           3.525  -2.071  -0.042  0.00  0.00     0.010 C 
ATOM     12  H7  <0> d           4.545  -2.481  -0.054  0.00  0.00     0.066 H 
ATOM     13  H8  <0> d           2.983  -2.411  -0.937  0.00  0.00     0.066 H 
ATOM     14  H9  <0> d           3.000  -2.420   0.860  0.00  0.00     0.066 H 
ENDBRANCH  10  11
ENDBRANCH   6  10
BRANCH   1  15
ATOM     15  C1  <0> d           3.684   2.179  -0.022  0.00  0.00    -0.046 C 
ATOM     16  H1  <0> d           3.470   3.258  -0.014  0.00  0.00     0.033 H 
ATOM     17  H2  <0> d           4.255   1.924  -0.927  0.00  0.00     0.033 H 
ATOM     18  H3  <0> d           4.272   1.915   0.870  0.00  0.00     0.033 H 
ENDBRANCH   1  15
BRANCH   2  19
ATOM     19  N1  <0> d           1.158   3.486   0.009  0.00  0.00    -0.399 N 
ATOM     20  H10 <0> d           0.198   4.023   0.021  0.00  0.00     0.156 HD
ATOM     21  H11 <0> d           2.103   4.048   0.003  0.00  0.00     0.156 HD
ENDBRANCH   2  19
TORSDOF 4
