REMARK  3 active torsions:
REMARK  status: ('A' for Active; 'I' for Inactive)
REMARK    1  A    between atoms: C1_1  and  C2_2 
REMARK    2  A    between atoms: C2_2  and  C3_3 
REMARK    3  A    between atoms: C7_7  and  C9_9 
ROOT
ATOM      1  C3  <0> d          -0.718   1.572   1.248  0.00  0.00    -0.058 A 
ATOM      2  C4  <0> d          -0.358   2.780   1.818  0.00  0.00    -0.077 A 
ATOM      3  C5  <0> d          -1.004   3.237   2.953  0.00  0.00    -0.081 A 
ATOM      4  C6  <0> d          -2.005   2.483   3.531  0.00  0.00    -0.066 A 
ATOM      5  C7  <0> d          -2.369   1.260   2.964  0.00  0.00     0.041 A 
ATOM      6  C8  <0> d          -1.717   0.808   1.815  0.00  0.00    -0.060 A 
ATOM      7  H6  <0> d           0.428   3.372   1.372  0.00  0.00     0.084 H 
ATOM      8  H7  <0> d          -0.722   4.183   3.390  0.00  0.00     0.083 H 
ATOM      9  H8  <0> d          -2.506   2.839   4.419  0.00  0.00     0.085 H 
ATOM     10  H9  <0> d          -1.994  -0.137   1.372  0.00  0.00     0.086 H 
ENDROOT
BRANCH   1  11
ATOM     11  C2  <0> d          -0.013   1.086   0.008  0.00  0.00    -0.044 C 
ATOM     12  H4  <0> d           0.002  -0.004   0.002  0.00  0.00     0.039 H 
ATOM     13  H5  <0> d           1.010   1.463   0.000  0.00  0.00     0.039 H 
BRANCH  11  14
ATOM     14  C1  <0> d          -0.753   1.593  -1.232  0.00  0.00    -0.073 C 
ATOM     15  H1  <0> d          -0.242   1.241  -2.128  0.00  0.00     0.028 H 
ATOM     16  H2  <0> d          -1.775   1.215  -1.224  0.00  0.00     0.028 H 
ATOM     17  H3  <0> d          -0.767   2.683  -1.226  0.00  0.00     0.028 H 
ENDBRANCH  11  14
ENDBRANCH   1  11
BRANCH   5  18
ATOM     18  C9  <0> d          -3.440   0.448   3.578  0.00  0.00     0.209 C 
ATOM     19  O1  <0> d          -3.754  -0.616   3.083  0.00  0.00    -0.644 OA
ATOM     20  O2  <0> d          -4.067   0.887   4.686  0.00  0.00    -0.644 OA
ENDBRANCH   5  18
TORSDOF 3
