REMARK  5 active torsions:
REMARK  status: ('A' for Active; 'I' for Inactive)
REMARK    1  A    between atoms: C1_1  and  C2_2 
REMARK    2  A    between atoms: C2_2  and  C3_3 
REMARK    3  A    between atoms: C3_3  and  C4_5 
REMARK    4  A    between atoms: C3_3  and  O2_12 
REMARK    5  A    between atoms: C4_5  and  N1_6 
ROOT
ATOM      1  N1  <0> d          -4.296   1.135   2.480  0.00  0.00     0.095 N 
ATOM      2  C5  <0> d          -5.049   1.629   1.318  0.00  0.00     0.133 C 
ATOM      3  C6  <0> d          -6.457   1.028   1.336  0.00  0.00     0.044 C 
ATOM      4  O1  <0> d          -7.094   1.358   2.574  0.00  0.00    -0.388 OA
ATOM      5  C7  <0> d          -6.388   0.891   3.727  0.00  0.00     0.044 C 
ATOM      6  C8  <0> d          -4.979   1.490   3.733  0.00  0.00     0.133 C 
ATOM      7  H9  <0> d          -5.115   2.726   1.364  0.00  0.00     0.083 H 
ATOM      8  H10 <0> d          -4.533   1.331   0.393  0.00  0.00     0.083 H 
ATOM      9  H11 <0> d          -7.042   1.440   0.500  0.00  0.00     0.077 H 
ATOM     10  H12 <0> d          -6.391  -0.065   1.235  0.00  0.00     0.077 H 
ATOM     11  H13 <0> d          -6.924   1.201   4.635  0.00  0.00     0.077 H 
ATOM     12  H14 <0> d          -6.322  -0.207   3.697  0.00  0.00     0.077 H 
ATOM     13  H15 <0> d          -4.412   1.089   4.586  0.00  0.00     0.083 H 
ATOM     14  H16 <0> d          -5.044   2.584   3.817  0.00  0.00     0.083 H 
ENDROOT
BRANCH   1  15
ATOM     15  C4  <0> d          -2.918   1.643   2.470  0.00  0.00     0.137 C 
ATOM     16  H7  <0> d          -2.413   1.354   3.403  0.00  0.00     0.083 H 
ATOM     17  H8  <0> d          -2.932   2.740   2.385  0.00  0.00     0.083 H 
BRANCH  15  18
ATOM     18  C3  <0> d          -2.164   1.050   1.278  0.00  0.00     0.061 C 
ATOM     19  H1  <0> d          -2.678   1.271   0.331  0.00  0.00     0.085 H 
BRANCH  18  20
ATOM     20  C2  <0> d          -0.729   1.579   1.267  0.00  0.00    -0.043 C 
ATOM     21  H5  <0> d          -0.197   1.215   2.158  0.00  0.00     0.036 H 
ATOM     22  H6  <0> d          -0.744   2.679   1.273  0.00  0.00     0.036 H 
BRANCH  20  23
ATOM     23  C1  <0> d          -0.013   1.086   0.008  0.00  0.00    -0.074 C 
ATOM     24  H2  <0> d           1.019   1.466   0.000  0.00  0.00     0.027 H 
ATOM     25  H3  <0> d          -0.545   1.450  -0.883  0.00  0.00     0.027 H 
ATOM     26  H4  <0> d           0.002  -0.014   0.002  0.00  0.00     0.027 H 
ENDBRANCH  20  23
ENDBRANCH  18  20
BRANCH  18  27
ATOM     27  O2  <0> d          -2.146  -0.375   1.387  0.00  0.00    -0.394 OA
ATOM     28  H17 <0> d          -3.091  -0.937   1.411  0.00  0.00     0.210 HD
ENDBRANCH  18  27
ENDBRANCH  15  18
ENDBRANCH   1  15
TORSDOF 5
