REMARK  1 active torsions:
REMARK  status: ('A' for Active; 'I' for Inactive)
REMARK    1  A    between atoms: C7_8  and  O1_10 
ROOT
ATOM      1  C1  <0> d          -0.016   1.357   0.009  0.00  0.00    -0.079 A 
ATOM      2  C2  <0> d           1.196   2.067   0.002  0.00  0.00    -0.066 A 
ATOM      3  C3  <0> d           2.373   1.408  -0.013  0.00  0.00     0.004 A 
ATOM      4  N1  <0> d           2.408   0.043  -0.021  0.00  0.00    -0.243 N 
ATOM      5  C4  <0> d           1.240  -0.675  -0.014  0.00  0.00     0.062 A 
ATOM      6  C5  <0> d           0.002  -0.004   0.002  0.00  0.00    -0.055 A 
ATOM      7  C6  <0> d           1.586  -2.020  -0.025  0.00  0.00    -0.003 A 
ATOM      8  C7  <0> d           2.974  -2.095  -0.039  0.00  0.00     0.184 A 
ATOM      9  N2  <0> d           3.467  -0.873  -0.037  0.00  0.00    -0.142 NA
ATOM     10  H1  <0> d          -0.957   1.887   0.026  0.00  0.00     0.083 H 
ATOM     11  H2  <0> d           1.185   3.146   0.007  0.00  0.00     0.085 H 
ATOM     12  H3  <0> d           3.298   1.966  -0.019  0.00  0.00     0.114 H 
ATOM     13  H4  <0> d          -0.922  -0.563   0.008  0.00  0.00     0.087 H 
ATOM     14  H5  <0> d           0.902  -2.855  -0.023  0.00  0.00     0.093 H 
ENDROOT
BRANCH   8  15
ATOM     15  O1  <0> d           3.704  -3.242  -0.052  0.00  0.00    -0.344 OA
ATOM     16  H6  <0> d           3.907  -3.569  -0.939  0.00  0.00     0.219 HD
ENDBRANCH   8  15
TORSDOF 1
