REMARK  5 active torsions:
REMARK  status: ('A' for Active; 'I' for Inactive)
REMARK    1  A    between atoms: C1_1  and  C2_2 
REMARK    2  A    between atoms: C2_2  and  O1_3 
REMARK    3  A    between atoms: O1_3  and  C3_4 
REMARK    4  A    between atoms: C4_6  and  C7_11 
REMARK    5  A    between atoms: C6_8  and  N3_10 
ROOT
ATOM      1  C3  <0> d          -0.150   1.183   2.376  0.00  0.00     0.270 A 
ATOM      2  N1  <0> d          -0.733   1.591   3.492  0.00  0.00    -0.212 NA
ATOM      3  C4  <0> d          -0.246   1.252   4.677  0.00  0.00     0.038 A 
ATOM      4  C5  <0> d           0.891   0.471   4.742  0.00  0.00    -0.015 A 
ATOM      5  C6  <0> d           1.486   0.061   3.547  0.00  0.00     0.127 A 
ATOM      6  N2  <0> d           0.940   0.434   2.394  0.00  0.00    -0.190 NA
ATOM      7  H6  <0> d           1.310   0.184   5.695  0.00  0.00     0.092 H 
ENDROOT
BRANCH   1   8
ATOM      8  O1  <0> d          -0.682   1.547   1.184  0.00  0.00    -0.320 OA
BRANCH   8   9
ATOM      9  C2  <0> d          -0.013   1.086   0.008  0.00  0.00     0.026 C 
ATOM     10  H4  <0> d           0.002  -0.014   0.002  0.00  0.00     0.074 H 
ATOM     11  H5  <0> d           1.019   1.466   0.000  0.00  0.00     0.074 H 
BRANCH   9  12
ATOM     12  C1  <0> d          -0.753   1.593  -1.232  0.00  0.00    -0.056 C 
ATOM     13  H1  <0> d          -0.238   1.238  -2.136  0.00  0.00     0.030 H 
ATOM     14  H2  <0> d          -0.768   2.693  -1.225  0.00  0.00     0.030 H 
ATOM     15  H3  <0> d          -1.785   1.212  -1.224  0.00  0.00     0.030 H 
ENDBRANCH   9  12
ENDBRANCH   8   9
ENDBRANCH   1   8
BRANCH   5  16
ATOM     16  N3  <0> d           2.627  -0.723   3.563  0.00  0.00    -0.384 N 
ATOM     17  H7  <0> d           3.089  -1.041   2.617  0.00  0.00     0.157 HD
ATOM     18  H8  <0> d           3.072  -1.027   4.522  0.00  0.00     0.157 HD
ENDBRANCH   5  16
BRANCH   3  19
ATOM     19  C7  <0> d          -0.923   1.719   5.940  0.00  0.00    -0.035 C 
ATOM     20  H9  <0> d          -0.374   1.337   6.813  0.00  0.00     0.035 H 
ATOM     21  H10 <0> d          -1.957   1.342   5.963  0.00  0.00     0.035 H 
ATOM     22  H11 <0> d          -0.933   2.819   5.966  0.00  0.00     0.035 H 
ENDBRANCH   3  19
TORSDOF 5
