REMARK  3 active torsions:
REMARK  status: ('A' for Active; 'I' for Inactive)
REMARK    1  A    between atoms: C1_1  and  C2_2 
REMARK    2  A    between atoms: C1_1  and  O3_6 
REMARK    3  A    between atoms: C2_2  and  S1_3 
ROOT
ATOM      1  C2  <0> d           1.145   3.085   0.008  0.00  0.00     0.065 C 
ATOM      2  H3  <0> d           0.591   3.404  -0.875  0.00  0.00     0.063 H 
ATOM      3  H4  <0> d           0.608   3.395   0.904  0.00  0.00     0.063 H 
ENDROOT
BRANCH   1   4
ATOM      4  C1  <0> d           1.286   1.562  -0.002  0.00  0.00     0.031 C 
ATOM      5  H1  <0> d           1.840   1.243   0.881  0.00  0.00     0.075 H 
ATOM      6  H2  <0> d           1.823   1.252  -0.899  0.00  0.00     0.075 H 
BRANCH   4   7
ATOM      7  O3  <0> d          -0.011   0.963   0.007  0.00  0.00    -0.400 OA
ATOM      8  H5  <0> d           0.002  -0.004   0.002  0.00  0.00     0.209 HD
ENDBRANCH   4   7
ENDBRANCH   1   4
BRANCH   1   9
ATOM      9  S1  <0> d           2.792   3.845  -0.004  0.00  0.00     0.103 S 
ATOM     10  O1  <0> d           3.460   3.585   1.223  0.00  0.00    -0.595 OA
ATOM     11  O2  <0> d           3.436   3.598  -1.246  0.00  0.00    -0.595 OA
ATOM     12  O4  <0> d           2.530   5.345   0.007  0.00  0.00    -0.595 OA
ENDBRANCH   1   9
TORSDOF 3
