REMARK  3 active torsions:
REMARK  status: ('A' for Active; 'I' for Inactive)
REMARK    1  A    between atoms: C1_1  and  C2_2 
REMARK    2  A    between atoms: C6_7  and  N2_8 
REMARK       I    between atoms: N2_8  and  C7_9 
REMARK    3  A    between atoms: C7_9  and  C8_11 
ROOT
ATOM      1  C2  <0> d          -1.383  -0.607  -0.035  0.00  0.00    -0.032 A 
ATOM      2  C3  <0> d          -1.448  -1.985  -0.160  0.00  0.00    -0.058 A 
ATOM      3  C4  <0> d          -0.280  -2.703  -0.337  0.00  0.00     0.002 A 
ATOM      4  N1  <0> d           0.888  -2.093  -0.394  0.00  0.00    -0.271 NA
ATOM      5  C5  <0> d           0.995  -0.784  -0.285  0.00  0.00     0.028 A 
ATOM      6  C6  <0> d          -0.134   0.005  -0.105  0.00  0.00     0.058 A 
ATOM      7  H4  <0> d          -2.400  -2.493  -0.114  0.00  0.00     0.086 H 
ATOM      8  H5  <0> d          -0.325  -3.778  -0.430  0.00  0.00     0.114 H 
ATOM      9  H6  <0> d           1.969  -0.321  -0.336  0.00  0.00     0.118 H 
ENDROOT
BRANCH   6  10
ATOM     10  N2  <0> d          -0.017   1.395   0.010  0.00  0.00    -0.326 N 
ATOM     11  C7  <0> d           1.056   1.933   0.623  0.00  0.00     0.218 C 
ATOM     12  O1  <0> d           1.958   1.218   1.004  0.00  0.00    -0.274 OA
ATOM     13  H7  <0> d          -0.801   2.049  -0.401  0.00  0.00     0.169 HD
BRANCH  11  14
ATOM     14  C8  <0> d           1.135   3.423   0.835  0.00  0.00    -0.003 C 
ATOM     15  H8  <0> d           2.076   3.671   1.348  0.00  0.00     0.040 H 
ATOM     16  H9  <0> d           0.284   3.751   1.451  0.00  0.00     0.040 H 
ATOM     17  H10 <0> d           1.101   3.934  -0.138  0.00  0.00     0.040 H 
ENDBRANCH  11  14
ENDBRANCH   6  10
BRANCH   1  18
ATOM     18  C1  <0> d          -2.633   0.210   0.165  0.00  0.00    -0.049 C 
ATOM     19  H1  <0> d          -3.507  -0.457   0.192  0.00  0.00     0.033 H 
ATOM     20  H2  <0> d          -2.742   0.924  -0.665  0.00  0.00     0.033 H 
ATOM     21  H3  <0> d          -2.562   0.761   1.115  0.00  0.00     0.033 H 
ENDBRANCH   1  18
TORSDOF 3
