REMARK  2 active torsions:
REMARK  status: ('A' for Active; 'I' for Inactive)
REMARK    1  A    between atoms: C1_1  and  O1_2 
REMARK    2  A    between atoms: O1_2  and  C2_3 
ROOT
ATOM      1  C2  <0> d           1.176   1.798   0.001  0.00  0.00     0.103 A 
ATOM      2  C3  <0> d          -0.013   1.076   0.008  0.00  0.00     0.037 A 
ATOM      3  N1  <0> d          -1.162   1.731   0.017  0.00  0.00    -0.251 NA
ATOM      4  C4  <0> d          -1.188   3.049   0.029  0.00  0.00     0.086 A 
ATOM      5  N2  <0> d          -0.084   3.768   0.022  0.00  0.00    -0.251 NA
ATOM      6  C5  <0> d           1.104   3.187   0.008  0.00  0.00     0.037 A 
ATOM      7  H4  <0> d           0.002  -0.004   0.002  0.00  0.00     0.119 H 
ATOM      8  H5  <0> d          -2.143   3.554   0.040  0.00  0.00     0.146 H 
ATOM      9  H6  <0> d           2.005   3.782   0.002  0.00  0.00     0.119 H 
ENDROOT
BRANCH   1  10
ATOM     10  O1  <0> d           2.378   1.162  -0.013  0.00  0.00    -0.353 OA
BRANCH  10  11
ATOM     11  C1  <0> d           3.547   1.984  -0.020  0.00  0.00     0.010 C 
ATOM     12  H1  <0> d           3.540   2.618  -0.907  0.00  0.00     0.066 H 
ATOM     13  H2  <0> d           3.556   2.609   0.873  0.00  0.00     0.066 H 
ATOM     14  H3  <0> d           4.435   1.353  -0.031  0.00  0.00     0.066 H 
ENDBRANCH  10  11
ENDBRANCH   1  10
TORSDOF 2
