REMARK  7 active torsions:
REMARK  status: ('A' for Active; 'I' for Inactive)
REMARK    1  A    between atoms: C1_1  and  C2_2 
REMARK    2  A    between atoms: C2_2  and  C3_3 
REMARK    3  A    between atoms: C3_3  and  C4_4 
REMARK    4  A    between atoms: C4_4  and  C5_5 
REMARK    5  A    between atoms: C5_5  and  C6_6 
REMARK    6  A    between atoms: C5_5  and  C7_7 
REMARK    7  A    between atoms: C5_5  and  C8_8 
ROOT
ATOM      1  C4  <0> d          -2.479   0.930   0.019  0.00  0.00    -0.049 C 
ATOM      2  H8  <0> d          -2.417   0.309  -0.875  0.00  0.00     0.034 H 
ATOM      3  H9  <0> d          -2.408   0.299   0.905  0.00  0.00     0.034 H 
ENDROOT
BRANCH   1   4
ATOM      4  C3  <0> d          -3.814   1.677   0.029  0.00  0.00    -0.064 C 
ATOM      5  H6  <0> d          -3.876   2.298   0.923  0.00  0.00     0.033 H 
ATOM      6  H7  <0> d          -3.885   2.307  -0.857  0.00  0.00     0.033 H 
BRANCH   4   7
ATOM      7  C2  <0> d          -4.963   0.667   0.029  0.00  0.00    -0.069 C 
ATOM      8  H4  <0> d          -4.901   0.046  -0.865  0.00  0.00     0.032 H 
ATOM      9  H5  <0> d          -4.893   0.036   0.915  0.00  0.00     0.032 H 
BRANCH   7  10
ATOM     10  C1  <0> d          -6.299   1.414   0.040  0.00  0.00    -0.077 C 
ATOM     11  H1  <0> d          -6.361   2.035   0.933  0.00  0.00     0.027 H 
ATOM     12  H2  <0> d          -6.369   2.044  -0.847  0.00  0.00     0.027 H 
ATOM     13  H3  <0> d          -7.117   0.694   0.040  0.00  0.00     0.027 H 
ENDBRANCH   7  10
ENDBRANCH   4   7
ENDBRANCH   1   4
BRANCH   1  14
ATOM     14  C5  <0> d          -1.329   1.940   0.019  0.00  0.00     0.041 C 
BRANCH  14  15
ATOM     15  C6  <0> d          -1.417   2.811   1.273  0.00  0.00    -0.060 C 
ATOM     16  H10 <0> d          -0.598   3.531   1.273  0.00  0.00     0.029 H 
ATOM     17  H11 <0> d          -2.368   3.344   1.281  0.00  0.00     0.029 H 
ATOM     18  H12 <0> d          -1.346   2.181   2.160  0.00  0.00     0.029 H 
ENDBRANCH  14  15
BRANCH  14  19
ATOM     19  C7  <0> d          -1.428   2.825  -1.225  0.00  0.00    -0.060 C 
ATOM     20  H13 <0> d          -1.366   2.204  -2.119  0.00  0.00     0.029 H 
ATOM     21  H14 <0> d          -2.380   3.357  -1.218  0.00  0.00     0.029 H 
ATOM     22  H15 <0> d          -0.610   3.545  -1.225  0.00  0.00     0.029 H 
ENDBRANCH  14  19
BRANCH  14  23
ATOM     23  C8  <0> d          -0.014   1.204   0.009  0.00  0.00     0.181 C 
ATOM     24  O1  <0> d           0.002  -0.004   0.002  0.00  0.00    -0.647 OA
ATOM     25  O2  <0> d           1.139   1.891   0.001  0.00  0.00    -0.647 OA
ENDBRANCH  14  23
ENDBRANCH   1  14
TORSDOF 7
