REMARK  2 active torsions:
REMARK  status: ('A' for Active; 'I' for Inactive)
REMARK    1  A    between atoms: C1_1  and  C2_2 
REMARK    2  A    between atoms: N2_6  and  C5_7 
ROOT
ATOM      1  C2  <0> d           1.306  -0.385  -0.013  0.00  0.00     0.106 A 
ATOM      2  N1  <0> d           2.051   0.686  -0.014  0.00  0.00    -0.246 NA
ATOM      3  C3  <0> d           1.267   1.774  -0.001  0.00  0.00     0.019 A 
ATOM      4  C4  <0> d          -0.017   1.367   0.010  0.00  0.00     0.004 A 
ATOM      5  N2  <0> d           0.002  -0.004   0.002  0.00  0.00    -0.308 N 
ATOM      6  H4  <0> d           1.606   2.800   0.001  0.00  0.00     0.117 H 
ATOM      7  H5  <0> d          -0.892   1.999   0.017  0.00  0.00     0.114 H 
ENDROOT
BRANCH   5   8
ATOM      8  C5  <0> d          -1.114  -0.853   0.008  0.00  0.00     0.057 A 
ATOM      9  C9  <0> d          -1.218  -1.886  -0.913  0.00  0.00     0.028 A 
ATOM     10  N3  <0> d          -2.266  -2.686  -0.911  0.00  0.00    -0.271 NA
ATOM     11  H9  <0> d          -0.433  -2.035  -1.639  0.00  0.00     0.118 H 
ATOM     12  C8  <0> d          -3.249  -2.542  -0.043  0.00  0.00     0.002 A 
ATOM     13  C7  <0> d          -3.217  -1.536   0.904  0.00  0.00    -0.064 A 
ATOM     14  H8  <0> d          -4.090  -3.218  -0.074  0.00  0.00     0.114 H 
ATOM     15  C6  <0> d          -2.132  -0.675   0.942  0.00  0.00    -0.054 A 
ATOM     16  H7  <0> d          -4.026  -1.425   1.611  0.00  0.00     0.085 H 
ATOM     17  H6  <0> d          -2.078   0.116   1.675  0.00  0.00     0.087 H 
ENDBRANCH   5   8
BRANCH   1  18
ATOM     18  C1  <0> d           1.807  -1.806  -0.024  0.00  0.00    -0.021 C 
ATOM     19  H1  <0> d           1.918  -2.143  -1.054  0.00  0.00     0.037 H 
ATOM     20  H2  <0> d           2.772  -1.855   0.480  0.00  0.00     0.037 H 
ATOM     21  H3  <0> d           1.094  -2.447   0.494  0.00  0.00     0.037 H 
ENDBRANCH   1  18
TORSDOF 2
