REMARK  4 active torsions:
REMARK  status: ('A' for Active; 'I' for Inactive)
REMARK    1  A    between atoms: C1_1  and  C2_2 
REMARK    2  A    between atoms: C2_2  and  C3_3 
REMARK    3  A    between atoms: C3_3  and  C4_5 
REMARK    4  A    between atoms: C3_3  and  O1_9 
ROOT
ATOM      1  C3  <0> d          -0.729   1.579   1.267  0.00  0.00     0.129 C 
ATOM      2  H1  <0> d          -1.776   1.277   1.232  0.00  0.00     0.096 H 
ENDROOT
BRANCH   1   3
ATOM      3  C2  <0> d          -0.013   1.086   0.008  0.00  0.00    -0.036 C 
ATOM      4  H5  <0> d           0.002  -0.004   0.002  0.00  0.00     0.036 H 
ATOM      5  H6  <0> d           1.010   1.463   0.000  0.00  0.00     0.036 H 
BRANCH   3   6
ATOM      6  C1  <0> d          -0.753   1.593  -1.232  0.00  0.00    -0.074 C 
ATOM      7  H2  <0> d          -0.767   2.683  -1.226  0.00  0.00     0.027 H 
ATOM      8  H3  <0> d          -0.242   1.241  -2.128  0.00  0.00     0.027 H 
ATOM      9  H4  <0> d          -1.775   1.215  -1.224  0.00  0.00     0.027 H 
ENDBRANCH   3   6
ENDBRANCH   1   3
BRANCH   1  10
ATOM     10  C4  <0> d          -0.064   0.971   2.503  0.00  0.00     0.413 C 
ATOM     11  F1  <0> d           1.280   1.359   2.549  0.00  0.00    -0.168 F 
ATOM     12  F2  <0> d          -0.719   1.423   3.654  0.00  0.00    -0.168 F 
ATOM     13  F3  <0> d          -0.144  -0.424   2.438  0.00  0.00    -0.168 F 
ENDBRANCH   1  10
BRANCH   1  14
ATOM     14  O1  <0> d          -0.647   3.004   1.334  0.00  0.00    -0.387 OA
ATOM     15  H7  <0> d           0.258   3.345   1.368  0.00  0.00     0.210 HD
ENDBRANCH   1  14
TORSDOF 4
