REMARK  2 active torsions:
REMARK  status: ('A' for Active; 'I' for Inactive)
REMARK    1  A    between atoms: C1_1  and  C2_2 
REMARK    2  A    between atoms: C2_2  and  O1_11 
ROOT
ATOM      1  C2  <0> d          -2.748   3.181   0.042  0.00  0.00     0.088 A 
ATOM      2  C3  <0> d          -2.727   1.658   0.025  0.00  0.00    -0.008 A 
ATOM      3  C4  <0> d          -1.225   1.752   0.017  0.00  0.00    -0.043 A 
ATOM      4  C5  <0> d          -1.244   3.129   0.029  0.00  0.00     0.021 A 
ATOM      5  C6  <0> d          -0.049   3.838   0.023  0.00  0.00     0.126 A 
ATOM      6  C7  <0> d           1.158   3.163   0.008  0.00  0.00    -0.045 A 
ATOM      7  C8  <0> d           1.175   1.781   0.000  0.00  0.00    -0.080 A 
ATOM      8  C9  <0> d          -0.013   1.076   0.008  0.00  0.00    -0.076 A 
ATOM      9  F1  <0> d          -0.066   5.189   0.030  0.00  0.00    -0.205 F 
ATOM     10  H4  <0> d          -3.142   1.221  -0.884  0.00  0.00     0.045 H 
ATOM     11  H5  <0> d          -3.132   1.211   0.932  0.00  0.00     0.045 H 
ATOM     12  H6  <0> d           2.087   3.714   0.003  0.00  0.00     0.088 H 
ATOM     13  H7  <0> d           2.117   1.253  -0.011  0.00  0.00     0.083 H 
ATOM     14  H8  <0> d           0.002  -0.004   0.002  0.00  0.00     0.084 H 
ENDROOT
BRANCH   1  15
ATOM     15  C1  <0> d          -3.329   3.778   1.326  0.00  0.00    -0.043 C 
ATOM     16  H1  <0> d          -3.266   4.865   1.281  0.00  0.00     0.032 H 
ATOM     17  H2  <0> d          -4.372   3.479   1.426  0.00  0.00     0.032 H 
ATOM     18  H3  <0> d          -2.763   3.416   2.184  0.00  0.00     0.032 H 
ENDBRANCH   1  15
BRANCH   1  19
ATOM     19  O1  <0> d          -3.311   3.751  -1.141  0.00  0.00    -0.385 OA
ATOM     20  H9  <0> d          -3.288   4.718  -1.161  0.00  0.00     0.211 HD
ENDBRANCH   1  19
TORSDOF 2
