REMARK  1 active torsions:
REMARK  status: ('A' for Active; 'I' for Inactive)
REMARK    1  A    between atoms: C4_4  and  N1_7 
ROOT
ATOM      1  N1  <0> d           3.620  -0.649  -0.037  0.00  0.00    -0.283 NA
ATOM      2  C7  <0> d           3.711  -1.551  -1.214  0.00  0.00    -0.016 C 
ATOM      3  C8  <0> d           5.235  -1.787  -1.361  0.00  0.00    -0.053 C 
ATOM      4  C9  <0> d           5.836  -0.409  -0.999  0.00  0.00    -0.053 C 
ATOM      5  C10 <0> d           4.751   0.295  -0.163  0.00  0.00    -0.016 C 
ATOM      6  H6  <0> d           3.159  -2.479  -1.008  0.00  0.00     0.056 H 
ATOM      7  H7  <0> d           3.276  -1.052  -2.092  0.00  0.00     0.056 H 
ATOM      8  H8  <0> d           5.552  -2.582  -0.670  0.00  0.00     0.034 H 
ATOM      9  H9  <0> d           5.461  -2.089  -2.395  0.00  0.00     0.034 H 
ATOM     10  H10 <0> d           6.762  -0.552  -0.424  0.00  0.00     0.034 H 
ATOM     11  H11 <0> d           6.060   0.147  -1.922  0.00  0.00     0.034 H 
ATOM     12  H12 <0> d           4.409   1.212  -0.663  0.00  0.00     0.056 H 
ATOM     13  H13 <0> d           5.134   0.544   0.838  0.00  0.00     0.056 H 
ENDROOT
BRANCH   1  14
ATOM     14  C4  <0> d           2.400   0.031  -0.021  0.00  0.00     0.010 A 
ATOM     15  C3  <0> d           1.502  -0.173   1.020  0.00  0.00    -0.062 A 
ATOM     16  C2  <0> d           0.297   0.502   1.033  0.00  0.00    -0.081 A 
ATOM     17  H3  <0> d           1.747  -0.858   1.818  0.00  0.00     0.086 H 
ATOM     18  C1  <0> d          -0.016   1.379   0.011  0.00  0.00    -0.083 A 
ATOM     19  H2  <0> d          -0.400   0.344   1.842  0.00  0.00     0.083 H 
ATOM     20  C6  <0> d           0.875   1.585  -1.026  0.00  0.00    -0.081 A 
ATOM     21  H1  <0> d          -0.957   1.909   0.026  0.00  0.00     0.083 H 
ATOM     22  C5  <0> d           2.081   0.913  -1.045  0.00  0.00    -0.062 A 
ATOM     23  H5  <0> d           0.627   2.271  -1.823  0.00  0.00     0.083 H 
ATOM     24  H4  <0> d           2.777   1.074  -1.856  0.00  0.00     0.086 H 
ENDBRANCH   1  14
TORSDOF 1
