REMARK  2 active torsions:
REMARK  status: ('A' for Active; 'I' for Inactive)
REMARK    1  A    between atoms: C1_1  and  C2_2 
REMARK    2  A    between atoms: C2_2  and  C8_9 
ROOT
ATOM      1  C2  <0> d          -0.729   1.579   1.267  0.00  0.00    -0.047 C 
ATOM      2  C3  <0> d          -0.757   3.109   1.270  0.00  0.00    -0.052 C 
ATOM      3  C4  <0> d          -1.554   3.601   2.482  0.00  0.00    -0.009 C 
ATOM      4  C5  <0> d          -0.960   2.986   3.730  0.00  0.00     0.127 C 
ATOM      5  O1  <0> d          -0.656   3.674   4.675  0.00  0.00    -0.298 OA
ATOM      6  C6  <0> d          -0.756   1.488   3.764  0.00  0.00    -0.009 C 
ATOM      7  C7  <0> d           0.012   1.072   2.505  0.00  0.00    -0.052 C 
ATOM      8  H4  <0> d           0.263   3.490   1.325  0.00  0.00     0.034 H 
ATOM      9  H5  <0> d          -1.229   3.465   0.354  0.00  0.00     0.034 H 
ATOM     10  H6  <0> d          -2.510   3.325   2.386  0.00  0.00     0.044 H 
ATOM     11  H7  <0> d          -1.495   4.688   2.545  0.00  0.00     0.044 H 
ATOM     12  H8  <0> d          -1.646   1.031   3.789  0.00  0.00     0.044 H 
ATOM     13  H9  <0> d          -0.183   1.213   4.650  0.00  0.00     0.044 H 
ATOM     14  H10 <0> d           0.084  -0.015   2.466  0.00  0.00     0.034 H 
ATOM     15  H11 <0> d           1.013   1.502   2.531  0.00  0.00     0.034 H 
ENDROOT
BRANCH   1  16
ATOM     16  C1  <0> d          -0.013   1.086   0.008  0.00  0.00    -0.069 C 
ATOM     17  H1  <0> d           0.002  -0.004   0.002  0.00  0.00     0.028 H 
ATOM     18  H2  <0> d           1.010   1.463   0.000  0.00  0.00     0.028 H 
ATOM     19  H3  <0> d          -0.540   1.447  -0.875  0.00  0.00     0.028 H 
ENDBRANCH   1  16
BRANCH   1  20
ATOM     20  C8  <0> d          -2.163   1.046   1.278  0.00  0.00    -0.069 C 
ATOM     21  H12 <0> d          -2.145  -0.044   1.273  0.00  0.00     0.028 H 
ATOM     22  H13 <0> d          -2.674   1.397   2.175  0.00  0.00     0.028 H 
ATOM     23  H14 <0> d          -2.691   1.405   0.395  0.00  0.00     0.028 H 
ENDBRANCH   1  20
TORSDOF 2
