REMARK  1 active torsions:
REMARK  status: ('A' for Active; 'I' for Inactive)
REMARK    1  A    between atoms: C7_7  and  O1_12 
ROOT
ATOM      1  C1  <0> d          -0.103   4.160   0.019  0.00  0.00    -0.082 A 
ATOM      2  C2  <0> d          -1.281   3.435   0.029  0.00  0.00    -0.081 A 
ATOM      3  C3  <0> d          -1.241   2.055   0.019  0.00  0.00    -0.057 A 
ATOM      4  C4  <0> d          -0.017   1.395   0.010  0.00  0.00     0.036 A 
ATOM      5  C5  <0> d           1.163   2.122   0.002  0.00  0.00    -0.003 A 
ATOM      6  C6  <0> d           1.114   3.506   0.006  0.00  0.00    -0.072 A 
ATOM      7  C7  <0> d           2.507   1.441  -0.008  0.00  0.00     0.064 C 
ATOM      8  H1  <0> d           2.910   1.433   1.004  0.00  0.00     0.090 H 
ATOM      9  C8  <0> d           2.374   0.004  -0.511  0.00  0.00    -0.022 C 
ATOM     10  C9  <0> d           1.266  -0.699   0.283  0.00  0.00    -0.005 C 
ATOM     11  N1  <0> d           0.002  -0.004   0.002  0.00  0.00    -0.389 N 
ATOM     12  H2  <0> d          -0.135   5.239   0.022  0.00  0.00     0.083 H 
ATOM     13  H3  <0> d          -2.231   3.948   0.041  0.00  0.00     0.083 H 
ATOM     14  H4  <0> d          -2.160   1.489   0.023  0.00  0.00     0.086 H 
ATOM     15  H5  <0> d           2.030   4.077  -0.002  0.00  0.00     0.084 H 
ATOM     16  H6  <0> d           3.318  -0.523  -0.365  0.00  0.00     0.039 H 
ATOM     17  H7  <0> d           2.117   0.010  -1.570  0.00  0.00     0.039 H 
ATOM     18  H8  <0> d           1.486  -0.647   1.350  0.00  0.00     0.064 H 
ATOM     19  H9  <0> d           1.191  -1.741  -0.028  0.00  0.00     0.064 H 
ATOM     20  H10 <0> d          -0.806  -0.507  -0.186  0.00  0.00     0.159 HD
ENDROOT
BRANCH   7  21
ATOM     21  O1  <0> d           3.395   2.161  -0.865  0.00  0.00    -0.391 OA
ATOM     22  H11 <0> d           3.528   3.084  -0.607  0.00  0.00     0.210 HD
ENDBRANCH   7  21
TORSDOF 1
