REMARK  3 active torsions:
REMARK  status: ('A' for Active; 'I' for Inactive)
REMARK    1  A    between atoms: C1_1  and  C2_2 
REMARK    2  A    between atoms: C6_7  and  C8_10 
REMARK    3  A    between atoms: C8_10  and  C9_11 
ROOT
ATOM      1  C2  <0> d          -0.709   1.712  -3.727  0.00  0.00    -0.057 C 
ATOM      2  H1  <0> d          -0.146   1.434  -4.630  0.00  0.00     0.039 H 
ATOM      3  C3  <0> d          -2.103   1.083  -3.781  0.00  0.00    -0.062 C 
ATOM      4  C4  <0> d          -2.886   1.471  -2.526  0.00  0.00    -0.064 C 
ATOM      5  C5  <0> d          -2.147   0.964  -1.286  0.00  0.00    -0.061 C 
ATOM      6  C6  <0> d          -0.753   1.593  -1.232  0.00  0.00    -0.045 C 
ATOM      7  H2  <0> d          -0.846   2.688  -1.181  0.00  0.00     0.040 H 
ATOM      8  C7  <0> d           0.031   1.205  -2.487  0.00  0.00    -0.058 C 
ATOM      9  H6  <0> d          -2.635   1.448  -4.673  0.00  0.00     0.033 H 
ATOM     10  H7  <0> d          -2.010  -0.011  -3.832  0.00  0.00     0.033 H 
ATOM     11  H8  <0> d          -2.980   2.566  -2.475  0.00  0.00     0.033 H 
ATOM     12  H9  <0> d          -3.889   1.019  -2.565  0.00  0.00     0.033 H 
ATOM     13  H10 <0> d          -2.710   1.242  -0.383  0.00  0.00     0.033 H 
ATOM     14  H11 <0> d          -2.053  -0.131  -1.337  0.00  0.00     0.033 H 
ATOM     15  H12 <0> d           0.124   0.111  -2.538  0.00  0.00     0.034 H 
ATOM     16  H13 <0> d           1.033   1.657  -2.448  0.00  0.00     0.034 H 
ENDROOT
BRANCH   6  17
ATOM     17  C8  <0> d          -0.013   1.086   0.008  0.00  0.00     0.019 C 
ATOM     18  H14 <0> d           0.002  -0.014   0.002  0.00  0.00     0.049 H 
ATOM     19  H15 <0> d           1.019   1.466   0.000  0.00  0.00     0.049 H 
BRANCH  17  20
ATOM     20  C9  <0> d          -0.718   1.572   1.248  0.00  0.00     0.172 C 
ATOM     21  O1  <0> d          -1.711   2.254   1.150  0.00  0.00    -0.648 OA
ATOM     22  O2  <0> d          -0.243   1.247   2.461  0.00  0.00    -0.648 OA
ENDBRANCH  17  20
ENDBRANCH   6  17
BRANCH   1  23
ATOM     23  C1  <0> d          -0.839   3.235  -3.656  0.00  0.00    -0.073 C 
ATOM     24  H3  <0> d          -1.371   3.599  -4.547  0.00  0.00     0.028 H 
ATOM     25  H4  <0> d           0.163   3.687  -3.617  0.00  0.00     0.028 H 
ATOM     26  H5  <0> d          -1.402   3.514  -2.753  0.00  0.00     0.028 H 
ENDBRANCH   1  23
TORSDOF 3
