REMARK  7 active torsions:
REMARK  status: ('A' for Active; 'I' for Inactive)
REMARK    1  A    between atoms: C1_1  and  C2_2 
REMARK    2  A    between atoms: C2_2  and  C3_3 
REMARK    3  A    between atoms: C3_3  and  C4_4 
REMARK    4  A    between atoms: C4_4  and  C5_5 
REMARK    5  A    between atoms: C5_5  and  C6_7 
REMARK    6  A    between atoms: C5_5  and  C7_8 
REMARK    7  A    between atoms: C7_8  and  C8_9 
ROOT
ATOM      1  C4  <0> d          -3.811   1.673  -0.097  0.00  0.00    -0.061 C 
ATOM      2  H9  <0> d          -3.795   2.319  -0.987  0.00  0.00     0.033 H 
ATOM      3  H10 <0> d          -3.966   2.290   0.801  0.00  0.00     0.033 H 
ENDROOT
BRANCH   1   4
ATOM      4  C3  <0> d          -4.951   0.661  -0.222  0.00  0.00    -0.065 C 
ATOM      5  H7  <0> d          -4.967   0.015   0.668  0.00  0.00     0.033 H 
ATOM      6  H8  <0> d          -4.796   0.044  -1.120  0.00  0.00     0.033 H 
BRANCH   4   7
ATOM      7  C2  <0> d          -6.283   1.404  -0.337  0.00  0.00    -0.069 C 
ATOM      8  H5  <0> d          -6.267   2.050  -1.228  0.00  0.00     0.032 H 
ATOM      9  H6  <0> d          -6.438   2.021   0.560  0.00  0.00     0.032 H 
BRANCH   7  10
ATOM     10  C1  <0> d          -7.423   0.391  -0.463  0.00  0.00    -0.077 C 
ATOM     11  H2  <0> d          -8.381   0.926  -0.546  0.00  0.00     0.027 H 
ATOM     12  H3  <0> d          -7.440  -0.255   0.427  0.00  0.00     0.027 H 
ATOM     13  H4  <0> d          -7.269  -0.226  -1.361  0.00  0.00     0.027 H 
ENDBRANCH   7  10
ENDBRANCH   4   7
ENDBRANCH   1   4
BRANCH   1  14
ATOM     14  C5  <0> d          -2.479   0.930   0.019  0.00  0.00    -0.049 C 
ATOM     15  H1  <0> d          -2.366   0.245  -0.835  0.00  0.00     0.040 H 
BRANCH  14  16
ATOM     16  C6  <0> d          -2.453   0.128   1.322  0.00  0.00    -0.072 C 
ATOM     17  H11 <0> d          -1.496  -0.406   1.405  0.00  0.00     0.028 H 
ATOM     18  H12 <0> d          -3.280  -0.598   1.322  0.00  0.00     0.028 H 
ATOM     19  H13 <0> d          -2.567   0.812   2.176  0.00  0.00     0.028 H 
ENDBRANCH  14  16
BRANCH  14  20
ATOM     20  C7  <0> d          -1.329   1.940   0.019  0.00  0.00     0.019 C 
ATOM     21  H14 <0> d          -1.401   2.576  -0.875  0.00  0.00     0.049 H 
ATOM     22  H15 <0> d          -1.392   2.566   0.921  0.00  0.00     0.049 H 
BRANCH  20  23
ATOM     23  C8  <0> d          -0.014   1.204   0.009  0.00  0.00     0.172 C 
ATOM     24  O1  <0> d           0.002  -0.004   0.002  0.00  0.00    -0.648 OA
ATOM     25  O2  <0> d           1.139   1.891   0.001  0.00  0.00    -0.648 OA
ENDBRANCH  20  23
ENDBRANCH  14  20
ENDBRANCH   1  14
TORSDOF 7
