REMARK  1 active torsions:
REMARK  status: ('A' for Active; 'I' for Inactive)
REMARK    1  A    between atoms: C2_2  and  C5_8 
REMARK       I    between atoms: C5_8  and  N3_10 
ROOT
ATOM      1  C1  <0> d          -0.013   1.076   0.008  0.00  0.00     0.035 A 
ATOM      2  C2  <0> d           1.185   1.790   0.000  0.00  0.00     0.143 A 
ATOM      3  N1  <0> d           1.161   3.120   0.008  0.00  0.00    -0.228 NA
ATOM      4  C3  <0> d           0.007   3.758   0.022  0.00  0.00     0.144 A 
ATOM      5  C4  <0> d          -1.184   3.042   0.030  0.00  0.00     0.041 A 
ATOM      6  N2  <0> d          -1.165   1.722   0.017  0.00  0.00    -0.267 NA
ATOM      7 Cl1  <0> d          -0.025   5.494   0.031  0.00  0.00    -0.061 Cl
ATOM      8  H1  <0> d           0.002  -0.004   0.002  0.00  0.00     0.118 H 
ATOM      9  H2  <0> d          -2.127   3.567   0.042  0.00  0.00     0.119 H 
ENDROOT
BRANCH   2  10
ATOM     10  C5  <0> d           2.479   1.070  -0.015  0.00  0.00     0.269 C 
ATOM     11  O1  <0> d           2.498  -0.145  -0.022  0.00  0.00    -0.266 OA
ATOM     12  N3  <0> d           3.635   1.762  -0.023  0.00  0.00    -0.365 N 
ATOM     13  H3  <0> d           3.620   2.732  -0.018  0.00  0.00     0.159 HD
ATOM     14  H4  <0> d           4.483   1.291  -0.033  0.00  0.00     0.159 HD
ENDBRANCH   2  10
TORSDOF 1
