REMARK  2 active torsions:
REMARK  status: ('A' for Active; 'I' for Inactive)
REMARK    1  A    between atoms: C1_1  and  C2_2 
REMARK    2  A    between atoms: C9_10  and  N3_12 
ROOT
ATOM      1  C2  <0> d           0.002  -0.004   0.002  0.00  0.00     0.034 A 
ATOM      2  C3  <0> d           0.005  -0.659  -1.191  0.00  0.00    -0.047 A 
ATOM      3  C4  <0> d           0.024  -2.066  -1.194  0.00  0.00    -0.002 A 
ATOM      4  C5  <0> d           0.029  -2.814  -2.383  0.00  0.00    -0.069 A 
ATOM      5  C6  <0> d           0.049  -4.177  -2.282  0.00  0.00    -0.065 A 
ATOM      6  C7  <0> d           0.063  -4.781  -1.026  0.00  0.00     0.003 A 
ATOM      7  N1  <0> d           0.058  -4.077   0.080  0.00  0.00    -0.256 NA
ATOM      8  C8  <0> d           0.040  -2.744   0.050  0.00  0.00     0.112 A 
ATOM      9  C9  <0> d           0.035  -1.971   1.234  0.00  0.00     0.151 A 
ATOM     10  N2  <0> d           0.022  -0.654   1.157  0.00  0.00    -0.234 NA
ATOM     11  H4  <0> d          -0.007  -0.108  -2.120  0.00  0.00     0.087 H 
ATOM     12  H5  <0> d           0.018  -2.327  -3.347  0.00  0.00     0.085 H 
ATOM     13  H6  <0> d           0.053  -4.785  -3.175  0.00  0.00     0.085 H 
ATOM     14  H7  <0> d           0.078  -5.859  -0.962  0.00  0.00     0.114 H 
ENDROOT
BRANCH   1  15
ATOM     15  C1  <0> d          -0.018   1.503   0.010  0.00  0.00    -0.035 C 
ATOM     16  H1  <0> d           1.004   1.880   0.003  0.00  0.00     0.035 H 
ATOM     17  H2  <0> d          -0.545   1.864  -0.873  0.00  0.00     0.035 H 
ATOM     18  H3  <0> d          -0.529   1.854   0.907  0.00  0.00     0.035 H 
ENDBRANCH   1  15
BRANCH   9  19
ATOM     19  N3  <0> d           0.049  -2.594   2.471  0.00  0.00    -0.382 N 
ATOM     20  H8  <0> d           0.062  -3.562   2.526  0.00  0.00     0.157 HD
ATOM     21  H9  <0> d           0.045  -2.062   3.283  0.00  0.00     0.157 HD
ENDBRANCH   9  19
TORSDOF 2
