REMARK  1 active torsions:
REMARK  status: ('A' for Active; 'I' for Inactive)
REMARK    1  A    between atoms: N1_4  and  N2_8 
ROOT
ATOM      1  C1  <0> d           0.044  -2.751  -0.014  0.00  0.00    -0.076 A 
ATOM      2  C2  <0> d           1.235  -2.012  -0.021  0.00  0.00    -0.066 A 
ATOM      3  C3  <0> d           1.191  -0.659  -0.018  0.00  0.00     0.000 A 
ATOM      4  N1  <0> d           0.002  -0.004   0.002  0.00  0.00    -0.256 N 
ATOM      5  C4  <0> d          -1.159  -0.686   0.009  0.00  0.00     0.261 A 
ATOM      6  O1  <0> d          -2.220  -0.083   0.023  0.00  0.00    -0.267 OA
ATOM      7  C5  <0> d          -1.150  -2.091   0.001  0.00  0.00    -0.016 A 
ATOM      8  H1  <0> d           0.071  -3.830  -0.021  0.00  0.00     0.083 H 
ATOM      9  H2  <0> d           2.187  -2.522  -0.034  0.00  0.00     0.085 H 
ATOM     10  H3  <0> d           2.112  -0.095  -0.029  0.00  0.00     0.114 H 
ATOM     11  H4  <0> d          -2.079  -2.643   0.007  0.00  0.00     0.092 H 
ENDROOT
BRANCH   4  12
ATOM     12  N2  <0> d          -0.016   1.362   0.009  0.00  0.00    -0.240 NA
ATOM     13  H5  <0> d           0.920   1.736   0.003  0.00  0.00     0.143 HD
ATOM     14  H6  <0> d          -0.555   1.720  -0.765  0.00  0.00     0.143 HD
ENDBRANCH   4  12
TORSDOF 1
