REMARK  2 active torsions:
REMARK  status: ('A' for Active; 'I' for Inactive)
REMARK    1  A    between atoms: N1_4  and  C5_6 
REMARK    2  A    between atoms: C6_7  and  N4_11 
ROOT
ATOM      1  C1  <0> d           5.565   1.304  -0.448  0.00  0.00    -0.066 A 
ATOM      2  C2  <0> d           5.595   0.145   0.354  0.00  0.00    -0.066 A 
ATOM      3  C3  <0> d           4.318  -0.213   0.597  0.00  0.00    -0.014 A 
ATOM      4  N1  <0> d           3.498   0.684  -0.027  0.00  0.00    -0.312 N 
ATOM      5  C4  <0> d           4.271   1.609  -0.671  0.00  0.00    -0.014 A 
ATOM      6  H1  <0> d           6.422   1.845  -0.820  0.00  0.00     0.085 H 
ATOM      7  H2  <0> d           6.479  -0.363   0.709  0.00  0.00     0.085 H 
ATOM      8  H3  <0> d           3.999  -1.062   1.183  0.00  0.00     0.112 H 
ATOM      9  H4  <0> d           3.908   2.442  -1.255  0.00  0.00     0.112 H 
ENDROOT
BRANCH   4  10
ATOM     10  C5  <0> d           2.100   0.657  -0.015  0.00  0.00     0.211 A 
ATOM     11  N3  <0> d           1.358  -0.414  -0.013  0.00  0.00    -0.082 NA
ATOM     12  O1  <0> d           0.002  -0.004   0.002  0.00  0.00    -0.103 OA
ATOM     13  N2  <0> d          -0.017   1.413   0.010  0.00  0.00    -0.083 NA
ATOM     14  C6  <0> d           1.219   1.829   0.000  0.00  0.00     0.200 A 
BRANCH  14  15
ATOM     15  N4  <0> d           1.631   3.157   0.003  0.00  0.00    -0.379 N 
ATOM     16  H5  <0> d           0.972   3.869   0.014  0.00  0.00     0.158 HD
ATOM     17  H6  <0> d           2.577   3.372  -0.005  0.00  0.00     0.158 HD
ENDBRANCH  14  15
ENDBRANCH   4  10
TORSDOF 2
