REMARK  2 active torsions:
REMARK  status: ('A' for Active; 'I' for Inactive)
REMARK    1  A    between atoms: C2_2  and  C3_3 
REMARK    2  A    between atoms: C4_5  and  C6_8 
ROOT
ATOM      1  C3  <0> d           0.190   5.099   0.027  0.00  0.00     0.097 A 
ATOM      2  N1  <0> d           0.126   3.779   0.016  0.00  0.00    -0.234 NA
ATOM      3  C4  <0> d           1.239   3.062   0.007  0.00  0.00     0.141 A 
ATOM      4  C5  <0> d           2.456   3.719  -0.001  0.00  0.00    -0.008 A 
ATOM      5  S1  <0> d           1.953   5.381   0.012  0.00  0.00    -0.080 SA
ATOM      6  H4  <0> d           3.455   3.308  -0.013  0.00  0.00     0.099 H 
ENDROOT
BRANCH   1   7
ATOM      7  C2  <0> d          -0.907   6.081   0.041  0.00  0.00    -0.057 C 
ATOM      8  C1  <0> d          -0.634   7.382   0.045  0.00  0.00    -0.119 C 
ATOM      9  H1  <0> d          -1.453   8.116   0.056  0.00  0.00     0.066 H 
ATOM     10  H2  <0> d           0.411   7.724   0.037  0.00  0.00     0.066 H 
ATOM     11  H3  <0> d          -1.952   5.739   0.049  0.00  0.00     0.086 H 
ENDBRANCH   1   7
BRANCH   3  12
ATOM     12  C6  <0> d           1.182   1.591  -0.001  0.00  0.00     0.229 C 
ATOM     13  O1  <0> d           2.210   0.943  -0.014  0.00  0.00    -0.643 OA
ATOM     14  O2  <0> d          -0.011   0.963   0.007  0.00  0.00    -0.643 OA
ENDBRANCH   3  12
TORSDOF 2
