REMARK  5 active torsions:
REMARK  status: ('A' for Active; 'I' for Inactive)
REMARK    1  A    between atoms: C1_1  and  C2_2 
REMARK    2  A    between atoms: C2_2  and  C3_3 
REMARK    3  A    between atoms: C3_3  and  C4_4 
REMARK    4  A    between atoms: C4_4  and  C5_5 
REMARK    5  A    between atoms: C5_5  and  C6_7 
ROOT
ATOM      1  C4  <0> d           4.257   2.200  -0.027  0.00  0.00    -0.005 C 
ATOM      2  H8  <0> d           3.982   2.717  -0.838  0.00  0.00     0.044 H 
ATOM      3  H9  <0> d           3.974   2.753   0.869  0.00  0.00     0.044 H 
ENDROOT
BRANCH   1   4
ATOM      4  C3  <0> d           5.773   1.996  -0.043  0.00  0.00    -0.059 C 
ATOM      5  H6  <0> d           6.073   1.433   0.841  0.00  0.00     0.033 H 
ATOM      6  H7  <0> d           6.056   1.443  -0.939  0.00  0.00     0.033 H 
BRANCH   4   7
ATOM      7  C2  <0> d           6.471   3.357  -0.043  0.00  0.00    -0.068 C 
ATOM      8  H4  <0> d           6.171   3.920  -0.926  0.00  0.00     0.032 H 
ATOM      9  H5  <0> d           6.189   3.910   0.853  0.00  0.00     0.032 H 
BRANCH   7  10
ATOM     10  C1  <0> d           7.988   3.153  -0.059  0.00  0.00    -0.077 C 
ATOM     11  H1  <0> d           8.288   2.590   0.825  0.00  0.00     0.027 H 
ATOM     12  H2  <0> d           8.270   2.600  -0.955  0.00  0.00     0.027 H 
ATOM     13  H3  <0> d           8.485   4.123  -0.058  0.00  0.00     0.027 H 
ENDBRANCH   7  10
ENDBRANCH   4   7
ENDBRANCH   1   4
BRANCH   1  14
ATOM     14  C5  <0> d           3.569   0.859  -0.028  0.00  0.00     0.161 C 
ATOM     15  O1  <0> d           4.227  -0.160  -0.040  0.00  0.00    -0.292 OA
BRANCH  14  16
ATOM     16  C6  <0> d           2.105   0.786  -0.014  0.00  0.00     0.034 A 
ATOM     17  C9  <0> d           1.224   1.833   0.000  0.00  0.00     0.032 A 
ATOM     18  O2  <0> d          -0.016   1.338   0.009  0.00  0.00    -0.334 OA
ATOM     19  H12 <0> d           1.487   2.881   0.003  0.00  0.00     0.124 H 
ATOM     20  C8  <0> d           0.002  -0.004   0.002  0.00  0.00     0.019 A 
ATOM     21  C7  <0> d           1.274  -0.428  -0.012  0.00  0.00    -0.046 A 
ATOM     22  H11 <0> d          -0.870  -0.641   0.007  0.00  0.00     0.123 H 
ATOM     23  H10 <0> d           1.618  -1.452  -0.021  0.00  0.00     0.087 H 
ENDBRANCH  14  16
ENDBRANCH   1  14
TORSDOF 5
