REMARK  2 active torsions:
REMARK  status: ('A' for Active; 'I' for Inactive)
REMARK    1  A    between atoms: C1_1  and  O1_2 
REMARK    2  A    between atoms: O1_2  and  C2_3 
ROOT
ATOM      1  C2  <0> d           3.106   3.734  -0.008  0.00  0.00     0.068 A 
ATOM      2  C3  <0> d           3.453   2.391  -0.018  0.00  0.00    -0.049 A 
ATOM      3  C4  <0> d           2.473   1.422  -0.014  0.00  0.00    -0.054 A 
ATOM      4  C5  <0> d           1.124   1.783   0.001  0.00  0.00     0.034 A 
ATOM      5  C6  <0> d           0.785   3.127   0.011  0.00  0.00    -0.028 A 
ATOM      6  C7  <0> d           1.768   4.098   0.006  0.00  0.00    -0.043 A 
ATOM      7  C8  <0> d          -0.723   3.243   0.025  0.00  0.00    -0.024 A 
ATOM      8  C9  <0> d          -1.223   1.789   0.017  0.00  0.00    -0.004 A 
ATOM      9  N1  <0> d          -0.011   0.966   0.007  0.00  0.00    -0.389 N 
ATOM     10  H4  <0> d           4.494   2.104  -0.029  0.00  0.00     0.087 H 
ATOM     11  H5  <0> d           2.750   0.379  -0.021  0.00  0.00     0.087 H 
ATOM     12  H6  <0> d           1.493   5.143   0.013  0.00  0.00     0.088 H 
ATOM     13  H7  <0> d          -1.055   3.758   0.926  0.00  0.00     0.042 H 
ATOM     14  H8  <0> d          -1.072   3.767  -0.865  0.00  0.00     0.042 H 
ATOM     15  H9  <0> d          -1.818   1.597  -0.876  0.00  0.00     0.064 H 
ATOM     16  H10 <0> d          -1.810   1.589   0.913  0.00  0.00     0.064 H 
ATOM     17  H11 <0> d           0.002  -0.004   0.002  0.00  0.00     0.159 HD
ENDROOT
BRANCH   1  18
ATOM     18  O1  <0> d           4.073   4.690  -0.012  0.00  0.00    -0.356 OA
BRANCH  18  19
ATOM     19  C1  <0> d           5.429   4.240  -0.026  0.00  0.00     0.010 C 
ATOM     20  H1  <0> d           5.621   3.633   0.859  0.00  0.00     0.066 H 
ATOM     21  H2  <0> d           5.604   3.643  -0.921  0.00  0.00     0.066 H 
ATOM     22  H3  <0> d           6.098   5.101  -0.028  0.00  0.00     0.066 H 
ENDBRANCH  18  19
ENDBRANCH   1  18
TORSDOF 2
