REMARK  2 active torsions:
REMARK  status: ('A' for Active; 'I' for Inactive)
REMARK    1  A    between atoms: C3_3  and  N2_11 
REMARK    2  A    between atoms: C4_4  and  C7_8 
REMARK       I    between atoms: C7_8  and  N1_10 
ROOT
ATOM      1  C1  <0> d           0.002  -0.004   0.002  0.00  0.00    -0.078 A 
ATOM      2  C2  <0> d           1.202  -0.688  -0.013  0.00  0.00    -0.057 A 
ATOM      3  C3  <0> d           2.402   0.010  -0.020  0.00  0.00     0.044 A 
ATOM      4  C4  <0> d           2.389   1.414  -0.013  0.00  0.00     0.096 A 
ATOM      5  C5  <0> d           1.166   2.094   0.002  0.00  0.00     0.134 A 
ATOM      6  C6  <0> d          -0.017   1.380   0.010  0.00  0.00    -0.044 A 
ATOM      7  F1  <0> d           1.142   3.444   0.010  0.00  0.00    -0.205 F 
ATOM      8  H1  <0> d          -0.928  -0.553   0.008  0.00  0.00     0.083 H 
ATOM      9  H2  <0> d           1.206  -1.768  -0.018  0.00  0.00     0.086 H 
ATOM     10  H3  <0> d          -0.961   1.905   0.017  0.00  0.00     0.088 H 
ENDROOT
BRANCH   4  11
ATOM     11  C7  <0> d           3.656   2.167  -0.022  0.00  0.00     0.254 C 
ATOM     12  O1  <0> d           4.168   2.483  -1.078  0.00  0.00    -0.268 OA
ATOM     13  N1  <0> d           4.246   2.505   1.142  0.00  0.00    -0.366 N 
ATOM     14  H4  <0> d           3.837   2.253   1.984  0.00  0.00     0.159 HD
ATOM     15  H5  <0> d           5.080   3.001   1.136  0.00  0.00     0.159 HD
ENDBRANCH   4  11
BRANCH   3  16
ATOM     16  N2  <0> d           3.608  -0.677  -0.035  0.00  0.00    -0.398 N 
ATOM     17  H6  <0> d           3.614  -1.647  -0.039  0.00  0.00     0.156 HD
ATOM     18  H7  <0> d           4.446  -0.187  -0.040  0.00  0.00     0.156 HD
ENDBRANCH   3  16
TORSDOF 2
