REMARK  2 active torsions:
REMARK  status: ('A' for Active; 'I' for Inactive)
REMARK    1  A    between atoms: C1_1  and  C2_2 
REMARK    2  A    between atoms: C5_5  and  C7_8 
ROOT
ATOM      1  C2  <0> d           1.161   2.038   0.002  0.00  0.00    -0.043 A 
ATOM      2  C3  <0> d           2.371   1.361  -0.013  0.00  0.00    -0.053 A 
ATOM      3  C4  <0> d           2.351  -0.026  -0.021  0.00  0.00     0.058 A 
ATOM      4  C5  <0> d           1.133  -0.682  -0.012  0.00  0.00     0.052 A 
ATOM      5  N1  <0> d           0.002  -0.004   0.002  0.00  0.00    -0.264 NA
ATOM      6  C6  <0> d          -0.016   1.315   0.009  0.00  0.00     0.008 A 
ATOM      7 Cl1  <0> d           3.834  -0.928  -0.039  0.00  0.00    -0.082 Cl
ATOM      8  H4  <0> d           3.307   1.900  -0.020  0.00  0.00     0.087 H 
ATOM      9  H5  <0> d          -0.962   1.835   0.017  0.00  0.00     0.115 H 
ENDROOT
BRANCH   1  10
ATOM     10  C1  <0> d           1.131   3.545   0.010  0.00  0.00    -0.050 C 
ATOM     11  H1  <0> d           2.160   3.932   0.002  0.00  0.00     0.033 H 
ATOM     12  H2  <0> d           0.614   3.896   0.915  0.00  0.00     0.033 H 
ATOM     13  H3  <0> d           0.597   3.905  -0.882  0.00  0.00     0.033 H 
ENDBRANCH   1  10
BRANCH   4  14
ATOM     14  C7  <0> d           1.097  -2.189  -0.021  0.00  0.00    -0.034 C 
ATOM     15  H6  <0> d           0.052  -2.531  -0.013  0.00  0.00     0.035 H 
ATOM     16  H7  <0> d           1.616  -2.573   0.870  0.00  0.00     0.035 H 
ATOM     17  H8  <0> d           1.599  -2.562  -0.926  0.00  0.00     0.035 H 
ENDBRANCH   4  14
TORSDOF 2
