REMARK  2 active torsions:
REMARK  status: ('A' for Active; 'I' for Inactive)
REMARK    1  A    between atoms: C1_1  and  C2_2 
REMARK    2  A    between atoms: C5_5  and  C8_8 
ROOT
ATOM      1  C2  <0> d          -1.236   3.134   0.030  0.00  0.00    -0.062 A 
ATOM      2  C3  <0> d          -1.216   1.751   0.017  0.00  0.00    -0.076 A 
ATOM      3  C4  <0> d          -0.013   1.076   0.008  0.00  0.00    -0.070 A 
ATOM      4  C5  <0> d           1.186   1.792   0.000  0.00  0.00    -0.002 A 
ATOM      5  C6  <0> d           1.158   3.187   0.008  0.00  0.00    -0.070 A 
ATOM      6  C7  <0> d          -0.052   3.850   0.022  0.00  0.00    -0.076 A 
ATOM      7  H4  <0> d          -2.143   1.198   0.019  0.00  0.00     0.084 H 
ATOM      8  H5  <0> d           0.002  -0.004   0.002  0.00  0.00     0.084 H 
ATOM      9  H6  <0> d           2.082   3.747   0.002  0.00  0.00     0.084 H 
ATOM     10  H7  <0> d          -0.075   4.930   0.028  0.00  0.00     0.084 H 
ENDROOT
BRANCH   4  11
ATOM     11  C8  <0> d           2.478   1.075  -0.015  0.00  0.00     0.085 A 
ATOM     12  O1  <0> d           2.641  -0.262  -0.023  0.00  0.00    -0.322 OA
ATOM     13  C11 <0> d           3.952  -0.552  -0.037  0.00  0.00     0.019 A 
ATOM     14  C10 <0> d           4.649   0.601  -0.038  0.00  0.00    -0.059 A 
ATOM     15  H10 <0> d           4.377  -1.545  -0.046  0.00  0.00     0.123 H 
ATOM     16  C9  <0> d           3.710   1.651  -0.029  0.00  0.00    -0.048 A 
ATOM     17  H9  <0> d           5.724   0.701  -0.048  0.00  0.00     0.086 H 
ATOM     18  H8  <0> d           3.926   2.709  -0.030  0.00  0.00     0.087 H 
ENDBRANCH   4  11
BRANCH   1  19
ATOM     19  C1  <0> d          -2.554   3.865   0.046  0.00  0.00    -0.051 C 
ATOM     20  H1  <0> d          -2.882   4.046  -0.978  0.00  0.00     0.033 H 
ATOM     21  H2  <0> d          -3.298   3.260   0.564  0.00  0.00     0.033 H 
ATOM     22  H3  <0> d          -2.436   4.817   0.563  0.00  0.00     0.033 H 
ENDBRANCH   1  19
TORSDOF 2
