REMARK  0 active torsions:
REMARK  status: ('A' for Active; 'I' for Inactive)
ROOT
ATOM      1  C1  <0> d           1.206  -0.705  -0.013  0.00  0.00    -0.082 A 
ATOM      2  C2  <0> d           0.002  -0.004   0.002  0.00  0.00    -0.082 A 
ATOM      3  C3  <0> d          -0.016   1.357   0.009  0.00  0.00    -0.072 A 
ATOM      4  C4  <0> d           1.195   2.069   0.002  0.00  0.00    -0.026 A 
ATOM      5  C5  <0> d           1.216   3.474   0.010  0.00  0.00    -0.072 A 
ATOM      6  C6  <0> d           2.409   4.130   0.003  0.00  0.00    -0.082 A 
ATOM      7  C7  <0> d           3.613   3.428  -0.012  0.00  0.00    -0.082 A 
ATOM      8  C8  <0> d           3.632   2.067  -0.020  0.00  0.00    -0.072 A 
ATOM      9  C9  <0> d           2.420   1.356  -0.013  0.00  0.00    -0.026 A 
ATOM     10  C10 <0> d           2.399  -0.050  -0.021  0.00  0.00    -0.072 A 
ATOM     11  H1  <0> d           1.193  -1.785  -0.019  0.00  0.00     0.083 H 
ATOM     12  H2  <0> d          -0.930  -0.549   0.008  0.00  0.00     0.083 H 
ATOM     13  H3  <0> d          -0.957   1.887   0.017  0.00  0.00     0.084 H 
ATOM     14  H4  <0> d           0.291   4.030   0.021  0.00  0.00     0.084 H 
ATOM     15  H5  <0> d           2.422   5.209   0.009  0.00  0.00     0.083 H 
ATOM     16  H6  <0> d           4.546   3.973  -0.018  0.00  0.00     0.083 H 
ATOM     17  H7  <0> d           4.573   1.537  -0.031  0.00  0.00     0.084 H 
ATOM     18  H8  <0> d           3.324  -0.606  -0.033  0.00  0.00     0.084 H 
ENDROOT
TORSDOF 0
