REMARK  0 active torsions:
REMARK  status: ('A' for Active; 'I' for Inactive)
ROOT
ATOM      1  C1  <0> d          -0.017   1.381   0.010  0.00  0.00    -0.082 A 
ATOM      2  C2  <0> d           1.169   2.092   0.002  0.00  0.00    -0.082 A 
ATOM      3  C3  <0> d           2.382   1.422  -0.013  0.00  0.00    -0.076 A 
ATOM      4  C4  <0> d           2.398   0.049  -0.021  0.00  0.00    -0.043 A 
ATOM      5  C5  <0> d           1.206  -0.666  -0.013  0.00  0.00    -0.043 A 
ATOM      6  C6  <0> d           0.002  -0.004   0.002  0.00  0.00    -0.076 A 
ATOM      7  C7  <0> d           1.588  -2.148  -0.026  0.00  0.00    -0.011 C 
ATOM      8  H1  <0> d           0.810  -2.854   0.263  0.00  0.00     0.053 H 
ATOM      9  C8  <0> d           2.880  -2.099   0.876  0.00  0.00    -0.045 C 
ATOM     10  C9  <0> d           3.524  -0.987  -0.037  0.00  0.00    -0.011 C 
ATOM     11  H2  <0> d           4.516  -0.633   0.242  0.00  0.00     0.053 H 
ATOM     12  C10 <0> d           3.379  -1.669  -1.405  0.00  0.00    -0.098 C 
ATOM     13  C11 <0> d           2.225  -2.353  -1.408  0.00  0.00    -0.098 C 
ATOM     14  H3  <0> d          -0.960   1.907   0.026  0.00  0.00     0.083 H 
ATOM     15  H4  <0> d           1.150   3.171   0.008  0.00  0.00     0.083 H 
ATOM     16  H5  <0> d           3.309   1.976  -0.019  0.00  0.00     0.084 H 
ATOM     17  H6  <0> d          -0.924  -0.560   0.008  0.00  0.00     0.084 H 
ATOM     18  H7  <0> d           2.677  -1.751   1.888  0.00  0.00     0.035 H 
ATOM     19  H8  <0> d           3.440  -3.034   0.863  0.00  0.00     0.035 H 
ATOM     20  H9  <0> d           4.077  -1.605  -2.226  0.00  0.00     0.077 H 
ATOM     21  H10 <0> d           1.819  -2.946  -2.214  0.00  0.00     0.077 H 
ENDROOT
TORSDOF 0
