REMARK  4 active torsions:
REMARK  status: ('A' for Active; 'I' for Inactive)
REMARK    1  A    between atoms: C1_1  and  C2_2 
REMARK    2  A    between atoms: C2_2  and  C3_3 
REMARK    3  A    between atoms: C3_3  and  C4_4 
REMARK    4  A    between atoms: C6_7  and  C8_12 
ROOT
ATOM      1  C4  <0> d          -0.037   1.099  -2.490  0.00  0.00     0.033 C 
ATOM      2  H1  <0> d           1.018   1.399  -2.398  0.00  0.00     0.055 H 
ATOM      3  C5  <0> d          -0.716   1.671  -3.755  0.00  0.00    -0.029 C 
ATOM      4  C6  <0> d          -0.819   0.419  -4.660  0.00  0.00     0.045 C 
ATOM      5  H2  <0> d           0.028   0.296  -5.351  0.00  0.00     0.083 H 
ATOM      6  O1  <0> d          -0.864  -0.702  -3.729  0.00  0.00    -0.316 OA
ATOM      7  C7  <0> d          -0.173  -0.402  -2.619  0.00  0.00     0.263 C 
ATOM      8  O2  <0> d           0.273  -1.210  -1.839  0.00  0.00    -0.265 OA
ATOM      9  H10 <0> d          -1.697   2.089  -3.486  0.00  0.00     0.038 H 
ATOM     10  H11 <0> d          -0.085   2.462  -4.184  0.00  0.00     0.038 H 
ENDROOT
BRANCH   1  11
ATOM     11  C3  <0> d          -0.753   1.593  -1.232  0.00  0.00    -0.053 C 
ATOM     12  H8  <0> d          -1.785   1.212  -1.224  0.00  0.00     0.034 H 
ATOM     13  H9  <0> d          -0.768   2.693  -1.226  0.00  0.00     0.034 H 
BRANCH  11  14
ATOM     14  C2  <0> d          -0.013   1.086   0.008  0.00  0.00    -0.068 C 
ATOM     15  H6  <0> d           1.019   1.466   0.000  0.00  0.00     0.032 H 
ATOM     16  H7  <0> d           0.002  -0.014   0.002  0.00  0.00     0.032 H 
BRANCH  14  17
ATOM     17  C1  <0> d          -0.729   1.579   1.267  0.00  0.00    -0.076 C 
ATOM     18  H3  <0> d          -0.197   1.215   2.158  0.00  0.00     0.027 H 
ATOM     19  H4  <0> d          -1.761   1.198   1.275  0.00  0.00     0.027 H 
ATOM     20  H5  <0> d          -0.744   2.679   1.273  0.00  0.00     0.027 H 
ENDBRANCH  14  17
ENDBRANCH  11  14
ENDBRANCH   1  11
BRANCH   4  21
ATOM     21  C8  <0> d          -2.096   0.467  -5.501  0.00  0.00    -0.052 C 
ATOM     22  H12 <0> d          -2.150  -0.429  -6.136  0.00  0.00     0.030 H 
ATOM     23  H13 <0> d          -2.084   1.366  -6.135  0.00  0.00     0.030 H 
ATOM     24  H14 <0> d          -2.972   0.499  -4.836  0.00  0.00     0.030 H 
ENDBRANCH   4  21
TORSDOF 4
