REMARK  3 active torsions:
REMARK  status: ('A' for Active; 'I' for Inactive)
REMARK    1  A    between atoms: C1_1  and  C2_2 
REMARK    2  A    between atoms: C2_2  and  C3_4 
REMARK    3  A    between atoms: C2_2  and  N1_6 
ROOT
ATOM      1  N1  <0> d          -2.430   0.973   0.019  0.00  0.00    -0.352 N 
ATOM      2  C4  <0> d          -2.669   0.041  -0.948  0.00  0.00    -0.020 A 
ATOM      3  C5  <0> d          -3.764  -0.662  -0.594  0.00  0.00    -0.067 A 
ATOM      4  C6  <0> d          -4.223  -0.140   0.631  0.00  0.00    -0.067 A 
ATOM      5  C7  <0> d          -3.388   0.859   0.983  0.00  0.00    -0.020 A 
ATOM      6  H5  <0> d          -2.082  -0.109  -1.841  0.00  0.00     0.111 H 
ATOM      7  H6  <0> d          -4.209  -1.474  -1.150  0.00  0.00     0.085 H 
ATOM      8  H7  <0> d          -5.085  -0.477   1.187  0.00  0.00     0.085 H 
ATOM      9  H8  <0> d          -3.465   1.466   1.873  0.00  0.00     0.111 H 
ENDROOT
BRANCH   1  10
ATOM     10  C2  <0> d          -1.329   1.940   0.019  0.00  0.00     0.096 C 
ATOM     11  H1  <0> d          -1.391   2.561   0.913  0.00  0.00     0.089 H 
BRANCH  10  12
ATOM     12  C1  <0> d          -1.428   2.825  -1.225  0.00  0.00    -0.048 C 
ATOM     13  H2  <0> d          -0.610   3.545  -1.225  0.00  0.00     0.030 H 
ATOM     14  H3  <0> d          -1.366   2.204  -2.119  0.00  0.00     0.030 H 
ATOM     15  H4  <0> d          -2.380   3.357  -1.218  0.00  0.00     0.030 H 
ENDBRANCH  10  12
BRANCH  10  16
ATOM     16  C3  <0> d          -0.014   1.204   0.009  0.00  0.00     0.196 C 
ATOM     17  O1  <0> d           0.002  -0.004   0.002  0.00  0.00    -0.646 OA
ATOM     18  O2  <0> d           1.139   1.891   0.001  0.00  0.00    -0.646 OA
ENDBRANCH  10  16
ENDBRANCH   1  10
TORSDOF 3
