REMARK  1 active torsions:
REMARK  status: ('A' for Active; 'I' for Inactive)
REMARK    1  A    between atoms: C2_2  and  C3_3 
ROOT
ATOM      1  C3  <0> d          -0.018   1.466   0.009  0.00  0.00     0.047 A 
ATOM      2  C4  <0> d           1.176   2.130  -0.011  0.00  0.00    -0.003 A 
ATOM      3  N1  <0> d           2.340   1.417  -0.027  0.00  0.00    -0.318 N 
ATOM      4  H1  <0> d           3.212   1.905  -0.040  0.00  0.00     0.170 HD
ATOM      5  C5  <0> d           2.338   0.074  -0.024  0.00  0.00     0.327 A 
ATOM      6  O1  <0> d           3.400  -0.518  -0.038  0.00  0.00    -0.247 OA
ATOM      7  N2  <0> d           1.196  -0.635  -0.005  0.00  0.00    -0.275 N 
ATOM      8  H2  <0> d           1.230  -1.634  -0.003  0.00  0.00     0.173 HD
ATOM      9  C6  <0> d           0.002  -0.004   0.012  0.00  0.00     0.260 A 
ATOM     10  O2  <0> d          -1.036  -0.639   0.029  0.00  0.00    -0.267 OA
ATOM     11  H6  <0> d           1.198   3.209  -0.014  0.00  0.00     0.113 H 
ENDROOT
BRANCH   1  12
ATOM     12  C2  <0> d          -1.296   2.206   0.020  0.00  0.00    -0.075 C 
ATOM     13  C1  <0> d          -2.444   1.548  -0.072  0.00  0.00    -0.120 C 
ATOM     14  H3  <0> d          -3.374   2.093  -0.146  0.00  0.00     0.066 H 
ATOM     15  H4  <0> d          -2.449   0.468  -0.074  0.00  0.00     0.066 H 
ATOM     16  H5  <0> d          -1.295   3.283   0.104  0.00  0.00     0.083 H 
ENDBRANCH   1  12
TORSDOF 1
