REMARK  5 active torsions:
REMARK  status: ('A' for Active; 'I' for Inactive)
REMARK    1  A    between atoms: C2_2  and  C3_3 
REMARK    2  A    between atoms: C3_3  and  C5_5 
REMARK    3  A    between atoms: C5_5  and  C6_6 
REMARK    4  A    between atoms: C6_6  and  C7_7 
REMARK    5  A    between atoms: C7_7  and  O1_8 
ROOT
ATOM      1  C5  <0> d           1.231   3.336   0.008  0.00  0.00    -0.040 C 
ATOM      2  H6  <0> d           0.390   3.684   0.608  0.00  0.00     0.040 H 
ATOM      3  H7  <0> d           2.161   3.709   0.436  0.00  0.00     0.040 H 
ENDROOT
BRANCH   1   4
ATOM      4  C3  <0> d           1.251   1.829  -0.000  0.00  0.00    -0.068 C 
ATOM      5  C4  <0> d           2.411   1.180  -0.015  0.00  0.00    -0.116 C 
ATOM      6  H4  <0> d           3.339   1.733  -0.021  0.00  0.00     0.067 H 
ATOM      7  H5  <0> d           2.425   0.100  -0.021  0.00  0.00     0.067 H 
BRANCH   4   8
ATOM      8  C2  <0> d          -0.013   1.076   0.008  0.00  0.00    -0.087 C 
ATOM      9  C1  <0> d          -1.172   1.724   0.017  0.00  0.00    -0.121 C 
ATOM     10  H1  <0> d          -2.100   1.172   0.018  0.00  0.00     0.066 H 
ATOM     11  H2  <0> d          -1.187   2.804   0.023  0.00  0.00     0.066 H 
ATOM     12  H3  <0> d           0.002  -0.004   0.002  0.00  0.00     0.083 H 
ENDBRANCH   4   8
ENDBRANCH   1   4
BRANCH   1  13
ATOM     13  C6  <0> d           1.085   3.852  -1.425  0.00  0.00    -0.042 C 
ATOM     14  H8  <0> d           1.926   3.503  -2.024  0.00  0.00     0.036 H 
ATOM     15  H9  <0> d           0.154   3.478  -1.852  0.00  0.00     0.036 H 
BRANCH  13  16
ATOM     16  C7  <0> d           1.064   5.381  -1.416  0.00  0.00     0.017 C 
ATOM     17  H10 <0> d           0.223   5.730  -0.817  0.00  0.00     0.073 H 
ATOM     18  H11 <0> d           1.994   5.755  -0.989  0.00  0.00     0.073 H 
BRANCH  16  19
ATOM     19  O1  <0> d           0.927   5.863  -2.755  0.00  0.00    -0.401 OA
ATOM     20  H12 <0> d           0.907   6.827  -2.825  0.00  0.00     0.209 HD
ENDBRANCH  16  19
ENDBRANCH  13  16
ENDBRANCH   1  13
TORSDOF 5
