REMARK  2 active torsions:
REMARK  status: ('A' for Active; 'I' for Inactive)
REMARK    1  A    between atoms: C1_1  and  N1_2 
REMARK    2  A    between atoms: N1_2  and  C2_3 
ROOT
ATOM      1  C2  <0> d          -2.264   2.681   0.082  0.00  0.00     0.705 A 
ATOM      2  N2  <0> d          -1.738   2.312   1.228  0.00  0.00    -0.028 NA
ATOM      3  C3  <0> d          -0.656   1.542   1.303  0.00  0.00     0.269 A 
ATOM      4  O1  <0> d          -0.197   1.217   2.380  0.00  0.00    -0.270 OA
ATOM      5  C4  <0> d          -0.013   1.086   0.008  0.00  0.00     0.086 A 
ATOM      6  C5  <0> d          -0.681   1.556  -1.271  0.00  0.00     0.244 A 
ATOM      7  O2  <0> d          -0.249   1.247  -2.360  0.00  0.00    -0.272 OA
ATOM      8  N3  <0> d          -1.779   2.334  -1.143  0.00  0.00    -0.158 N 
ATOM      9  H5  <0> d           0.002  -0.004   0.002  0.00  0.00     0.061 H 
ATOM     10  H6  <0> d           1.019   1.437   0.000  0.00  0.00     0.061 H 
ATOM     11  H7  <0> d          -2.231   2.652  -1.940  0.00  0.00     0.187 HD
ENDROOT
BRANCH   1  12
ATOM     12  N1  <0> d          -3.374   3.467   0.121  0.00  0.00    -0.228 N 
ATOM     13  H4  <0> d          -3.791   3.760  -0.704  0.00  0.00     0.177 HD
BRANCH  12  14
ATOM     14  C1  <0> d          -3.940   3.871   1.411  0.00  0.00    -0.005 C 
ATOM     15  H1  <0> d          -4.226   2.984   1.976  0.00  0.00     0.057 H 
ATOM     16  H2  <0> d          -3.197   4.437   1.973  0.00  0.00     0.057 H 
ATOM     17  H3  <0> d          -4.819   4.494   1.243  0.00  0.00     0.057 H 
ENDBRANCH  12  14
ENDBRANCH   1  12
TORSDOF 2
