REMARK  7 active torsions:
REMARK  status: ('A' for Active; 'I' for Inactive)
REMARK    1  A    between atoms: C1_1  and  C2_2 
REMARK    2  A    between atoms: C2_2  and  O1_3 
REMARK    3  A    between atoms: O1_3  and  C3_4 
REMARK    4  A    between atoms: C3_4  and  C4_5 
REMARK    5  A    between atoms: C3_4  and  C7_8 
REMARK    6  A    between atoms: C4_5  and  C5_6 
REMARK    7  A    between atoms: C5_6  and  C6_7 
ROOT
ATOM      1  C3  <0> d          -1.498  -1.842   0.006  0.00  0.00     0.161 C 
ENDROOT
BRANCH   1   2
ATOM      2  O1  <0> d          -1.339  -0.499   0.012  0.00  0.00    -0.364 OA
BRANCH   2   3
ATOM      3  C2  <0> d           0.002  -0.004   0.002  0.00  0.00     0.019 C 
ATOM      4  H4  <0> d           0.512  -0.356  -0.895  0.00  0.00     0.073 H 
ATOM      5  H5  <0> d           0.529  -0.365   0.885  0.00  0.00     0.073 H 
BRANCH   3   6
ATOM      6  C1  <0> d          -0.019   1.526   0.010  0.00  0.00    -0.056 C 
ATOM      7  H1  <0> d           1.004   1.903   0.003  0.00  0.00     0.030 H 
ATOM      8  H2  <0> d          -0.546   1.887  -0.873  0.00  0.00     0.030 H 
ATOM      9  H3  <0> d          -0.529   1.877   0.907  0.00  0.00     0.030 H 
ENDBRANCH   3   6
ENDBRANCH   2   3
ENDBRANCH   1   2
BRANCH   1  10
ATOM     10  C4  <0> d          -0.450  -2.624  -0.008  0.00  0.00    -0.064 C 
BRANCH  10  11
ATOM     11  C5  <0> d           0.597  -3.406  -0.022  0.00  0.00    -0.102 C 
BRANCH  11  12
ATOM     12  C6  <0> d           1.644  -4.188  -0.036  0.00  0.00     0.000 C 
ATOM     13  H6  <0> d           1.517  -5.261  -0.041  0.00  0.00     0.053 H 
ATOM     14  H7  <0> d           2.636  -3.762  -0.043  0.00  0.00     0.053 H 
ENDBRANCH  11  12
ENDBRANCH  10  11
ENDBRANCH   1  10
BRANCH   1  15
ATOM     15  C7  <0> d          -2.882  -2.437   0.017  0.00  0.00    -0.034 C 
ATOM     16  H8  <0> d          -3.226  -2.575  -1.009  0.00  0.00     0.033 H 
ATOM     17  H9  <0> d          -2.860  -3.401   0.525  0.00  0.00     0.033 H 
ATOM     18  H10 <0> d          -3.562  -1.766   0.540  0.00  0.00     0.033 H 
ENDBRANCH   1  15
TORSDOF 7
