REMARK  2 active torsions:
REMARK  status: ('A' for Active; 'I' for Inactive)
REMARK    1  A    between atoms: C1_1  and  C2_2 
REMARK    2  A    between atoms: C4_5  and  C8_9 
ROOT
ATOM      1  C2  <0> d          -1.344   3.157   0.021  0.00  0.00    -0.040 C 
ATOM      2  H1  <0> d          -1.632   3.486  -0.978  0.00  0.00     0.045 H 
ATOM      3  C3  <0> d          -0.039   3.846   0.425  0.00  0.00    -0.040 C 
ATOM      4  C4  <0> d           1.101   3.257  -0.415  0.00  0.00     0.049 C 
ATOM      5  C5  <0> d           1.303   1.797  -0.001  0.00  0.00    -0.031 C 
ATOM      6  C6  <0> d          -0.013   1.076   0.008  0.00  0.00    -0.105 C 
ATOM      7  C7  <0> d          -1.164   1.667   0.017  0.00  0.00    -0.103 C 
ATOM      8  C9  <0> d           0.754   3.322  -1.844  0.00  0.00     0.069 C 
ATOM      9  N1  <0> d           0.486   3.373  -2.946  0.00  0.00    -0.196 NA
ATOM     10  H5  <0> d           0.156   3.669   1.483  0.00  0.00     0.036 H 
ATOM     11  H6  <0> d          -0.117   4.917   0.238  0.00  0.00     0.036 H 
ATOM     12  H7  <0> d           1.741   1.762   0.997  0.00  0.00     0.041 H 
ATOM     13  H8  <0> d           1.976   1.313  -0.708  0.00  0.00     0.041 H 
ATOM     14  H9  <0> d           0.002  -0.004   0.002  0.00  0.00     0.076 H 
ATOM     15  H10 <0> d          -2.050   1.050   0.026  0.00  0.00     0.076 H 
ENDROOT
BRANCH   4  16
ATOM     16  C8  <0> d           2.387   4.046  -0.162  0.00  0.00    -0.057 C 
ATOM     17  H11 <0> d           3.200   3.613  -0.745  0.00  0.00     0.029 H 
ATOM     18  H12 <0> d           2.240   5.085  -0.457  0.00  0.00     0.029 H 
ATOM     19  H13 <0> d           2.638   4.002   0.898  0.00  0.00     0.029 H 
ENDBRANCH   4  16
BRANCH   1  20
ATOM     20  C1  <0> d          -2.446   3.535   1.013  0.00  0.00    -0.070 C 
ATOM     21  H2  <0> d          -2.587   4.616   1.004  0.00  0.00     0.028 H 
ATOM     22  H3  <0> d          -3.377   3.045   0.726  0.00  0.00     0.028 H 
ATOM     23  H4  <0> d          -2.159   3.214   2.014  0.00  0.00     0.028 H 
ENDBRANCH   1  20
TORSDOF 2
