REMARK  2 active torsions:
REMARK  status: ('A' for Active; 'I' for Inactive)
REMARK    1  A    between atoms: C3_3  and  C6_7 
REMARK    2  A    between atoms: C6_7  and  C7_8 
REMARK       I    between atoms: C7_8  and  N2_10 
ROOT
ATOM      1  C1  <0> d          -0.013   1.076   0.008  0.00  0.00    -0.066 A 
ATOM      2  C2  <0> d           1.174   1.794   0.001  0.00  0.00    -0.074 A 
ATOM      3  C3  <0> d           1.107   3.179   0.009  0.00  0.00    -0.032 A 
ATOM      4  C4  <0> d          -0.132   3.793   0.024  0.00  0.00     0.008 A 
ATOM      5  N1  <0> d          -1.239   3.078   0.030  0.00  0.00    -0.273 NA
ATOM      6  C5  <0> d          -1.214   1.759   0.017  0.00  0.00     0.002 A 
ATOM      7  H1  <0> d           0.002  -0.004   0.002  0.00  0.00     0.085 H 
ATOM      8  H2  <0> d           2.127   1.287  -0.012  0.00  0.00     0.084 H 
ATOM      9  H3  <0> d          -0.193   4.871   0.030  0.00  0.00     0.115 H 
ATOM     10  H4  <0> d          -2.142   1.207   0.018  0.00  0.00     0.114 H 
ENDROOT
BRANCH   3  11
ATOM     11  C6  <0> d           2.368   4.004   0.002  0.00  0.00     0.034 C 
ATOM     12  H5  <0> d           2.189   4.945   0.522  0.00  0.00     0.054 H 
ATOM     13  H6  <0> d           3.163   3.455   0.505  0.00  0.00     0.054 H 
BRANCH  11  14
ATOM     14  C7  <0> d           2.775   4.287  -1.422  0.00  0.00     0.219 C 
ATOM     15  O1  <0> d           2.107   3.860  -2.340  0.00  0.00    -0.273 OA
ATOM     16  N2  <0> d           3.881   5.013  -1.674  0.00  0.00    -0.370 N 
ATOM     17  H7  <0> d           4.416   5.355  -0.940  0.00  0.00     0.159 HD
ATOM     18  H8  <0> d           4.144   5.195  -2.590  0.00  0.00     0.159 HD
ENDBRANCH  11  14
ENDBRANCH   3  11
TORSDOF 2
