REMARK  4 active torsions:
REMARK  status: ('A' for Active; 'I' for Inactive)
REMARK    1  A    between atoms: C1_1  and  O1_2 
REMARK    2  A    between atoms: O1_2  and  C2_3 
REMARK    3  A    between atoms: C2_3  and  C3_5 
REMARK    4  A    between atoms: C5_8  and  O3_12 
ROOT
ATOM      1  C3  <0> d           0.657  -2.104  -1.120  0.00  0.00     0.217 C 
ATOM      2  H1  <0> d          -0.286  -2.542  -0.794  0.00  0.00     0.104 H 
ATOM      3  C4  <0> d           1.835  -2.649  -0.272  0.00  0.00    -0.002 C 
ATOM      4  C5  <0> d           2.132  -4.014  -0.932  0.00  0.00     0.063 C 
ATOM      5  H2  <0> d           3.208  -4.190  -0.971  0.00  0.00     0.085 H 
ATOM      6  C6  <0> d           1.557  -3.907  -2.357  0.00  0.00     0.136 C 
ATOM      7  N1  <0> d           0.993  -2.545  -2.498  0.00  0.00     0.100 N 
ATOM      8  H6  <0> d           2.699  -1.989  -0.344  0.00  0.00     0.040 H 
ATOM      9  H7  <0> d           1.534  -2.780   0.767  0.00  0.00     0.040 H 
ATOM     10  H8  <0> d           2.350  -4.059  -3.090  0.00  0.00     0.083 H 
ATOM     11  H9  <0> d           0.771  -4.648  -2.497  0.00  0.00     0.083 H 
ATOM     12  H10 <0> d           0.172  -2.550  -3.085  0.00  0.00     0.317 HD
ENDROOT
BRANCH   1  13
ATOM     13  C2  <0> d           0.598  -0.600  -1.043  0.00  0.00     0.292 C 
ATOM     14  O2  <0> d           1.088   0.070  -1.921  0.00  0.00    -0.263 OA
BRANCH  13  15
ATOM     15  O1  <0> d           0.002  -0.004   0.002  0.00  0.00    -0.325 OA
BRANCH  15  16
ATOM     16  C1  <0> d          -0.017   1.425   0.010  0.00  0.00     0.013 C 
ATOM     17  H3  <0> d           1.005   1.802   0.002  0.00  0.00     0.067 H 
ATOM     18  H4  <0> d          -0.544   1.786  -0.873  0.00  0.00     0.067 H 
ATOM     19  H5  <0> d          -0.527   1.776   0.907  0.00  0.00     0.067 H 
ENDBRANCH  15  16
ENDBRANCH  13  15
ENDBRANCH   1  13
BRANCH   4  20
ATOM     20  O3  <0> d           1.485  -5.065  -0.212  0.00  0.00    -0.394 OA
ATOM     21  H11 <0> d           1.636  -5.946  -0.581  0.00  0.00     0.210 HD
ENDBRANCH   4  20
TORSDOF 4
