REMARK  5 active torsions:
REMARK  status: ('A' for Active; 'I' for Inactive)
REMARK    1  A    between atoms: C1_1  and  C2_2 
REMARK    2  A    between atoms: C3_3  and  C4_7 
REMARK    3  A    between atoms: C4_7  and  O2_8 
REMARK    4  A    between atoms: O2_8  and  C5_9 
REMARK    5  A    between atoms: C5_9  and  C6_11 
ROOT
ATOM      1  C4  <0> d           1.374   1.696   2.771  0.00  0.00     0.073 C 
ATOM      2  H4  <0> d           1.515   1.447   3.823  0.00  0.00     0.085 H 
ATOM      3  H5  <0> d           1.786   0.900   2.151  0.00  0.00     0.085 H 
ENDROOT
BRANCH   1   4
ATOM      4  C3  <0> d          -0.098   1.845   2.483  0.00  0.00     0.114 A 
ATOM      5  C2  <0> d          -0.718   1.572   1.248  0.00  0.00     0.089 A 
ATOM      6  N2  <0> d          -1.992   1.810   1.343  0.00  0.00    -0.108 NA
ATOM      7  O1  <0> d          -2.245   2.244   2.669  0.00  0.00    -0.106 OA
ATOM      8  N1  <0> d          -0.993   2.245   3.336  0.00  0.00    -0.105 NA
BRANCH   5   9
ATOM      9  C1  <0> d          -0.013   1.086   0.008  0.00  0.00    -0.031 C 
ATOM     10  H1  <0> d           0.002  -0.004   0.002  0.00  0.00     0.035 H 
ATOM     11  H2  <0> d           1.010   1.463   0.000  0.00  0.00     0.035 H 
ATOM     12  H3  <0> d          -0.540   1.447  -0.875  0.00  0.00     0.035 H 
ENDBRANCH   5   9
ENDBRANCH   1   4
BRANCH   1  13
ATOM     13  O2  <0> d           2.054   2.944   2.473  0.00  0.00    -0.316 OA
BRANCH  13  14
ATOM     14  C5  <0> d           3.380   2.979   2.676  0.00  0.00     0.255 C 
ATOM     15  O3  <0> d           3.954   1.999   3.090  0.00  0.00    -0.266 OA
BRANCH  14  16
ATOM     16  C6  <0> d           4.154   4.240   2.389  0.00  0.00     0.004 C 
ATOM     17  H6  <0> d           4.183   4.860   3.285  0.00  0.00     0.041 H 
ATOM     18  H7  <0> d           5.170   3.983   2.091  0.00  0.00     0.041 H 
ATOM     19  H8  <0> d           3.667   4.789   1.583  0.00  0.00     0.041 H 
ENDBRANCH  14  16
ENDBRANCH  13  14
ENDBRANCH   1  13
TORSDOF 5
