REMARK  5 active torsions:
REMARK  status: ('A' for Active; 'I' for Inactive)
REMARK    1  A    between atoms: C1_1  and  O1_2 
REMARK    2  A    between atoms: O1_2  and  C2_3 
REMARK    3  A    between atoms: C3_4  and  N3_11 
REMARK    4  A    between atoms: C4_5  and  O2_9 
REMARK    5  A    between atoms: O2_9  and  C6_10 
ROOT
ATOM      1  C2  <0> d           2.393   0.109  -0.020  0.00  0.00     0.196 A 
ATOM      2  C3  <0> d           1.231  -0.663  -0.013  0.00  0.00     0.133 A 
ATOM      3  C4  <0> d           0.002  -0.004   0.002  0.00  0.00     0.196 A 
ATOM      4  N1  <0> d          -0.016   1.325   0.009  0.00  0.00    -0.216 NA
ATOM      5  C5  <0> d           1.105   2.017   0.002  0.00  0.00     0.092 A 
ATOM      6  N2  <0> d           2.287   1.433  -0.012  0.00  0.00    -0.216 NA
ATOM      7  H4  <0> d           1.054   3.096   0.009  0.00  0.00     0.146 H 
ENDROOT
BRANCH   1   8
ATOM      8  O1  <0> d           3.614  -0.484  -0.035  0.00  0.00    -0.338 OA
BRANCH   8   9
ATOM      9  C1  <0> d           4.753   0.378  -0.041  0.00  0.00     0.012 C 
ATOM     10  H1  <0> d           5.663  -0.222  -0.052  0.00  0.00     0.067 H 
ATOM     11  H2  <0> d           4.725   1.012  -0.927  0.00  0.00     0.067 H 
ATOM     12  H3  <0> d           4.741   1.003   0.852  0.00  0.00     0.067 H 
ENDBRANCH   8   9
ENDBRANCH   1   8
BRANCH   2  13
ATOM     13  N3  <0> d           1.297  -2.065  -0.022  0.00  0.00    -0.392 N 
ATOM     14  H8  <0> d           0.481  -2.589  -0.017  0.00  0.00     0.156 HD
ATOM     15  H9  <0> d           2.159  -2.510  -0.033  0.00  0.00     0.156 HD
ENDBRANCH   2  13
BRANCH   3  16
ATOM     16  O2  <0> d          -1.157  -0.709   0.010  0.00  0.00    -0.338 OA
BRANCH  16  17
ATOM     17  C6  <0> d          -2.373   0.043   0.026  0.00  0.00     0.012 C 
ATOM     18  H5  <0> d          -3.222  -0.641   0.031  0.00  0.00     0.067 H 
ATOM     19  H6  <0> d          -2.403   0.666   0.919  0.00  0.00     0.067 H 
ATOM     20  H7  <0> d          -2.421   0.675  -0.860  0.00  0.00     0.067 H 
ENDBRANCH  16  17
ENDBRANCH   3  16
TORSDOF 5
