REMARK  5 active torsions:
REMARK  status: ('A' for Active; 'I' for Inactive)
REMARK    1  A    between atoms: C1_1  and  C2_2 
REMARK    2  A    between atoms: C5_6  and  C8_12 
REMARK    3  A    between atoms: C6_8  and  O1_11 
REMARK    4  A    between atoms: C8_12  and  C9_13 
REMARK    5  A    between atoms: C8_12  and  C10_14 
ROOT
ATOM      1  C2  <0> d           0.003  -0.017   0.020  0.00  0.00    -0.055 C 
ATOM      2  H1  <0> d          -1.019  -0.398   0.030  0.00  0.00     0.039 H 
ATOM      3  C3  <0> d           0.715  -0.502  -1.244  0.00  0.00    -0.061 C 
ATOM      4  C4  <0> d           2.148   0.032  -1.258  0.00  0.00    -0.059 C 
ATOM      5  C5  <0> d           2.895  -0.479  -0.025  0.00  0.00    -0.026 C 
ATOM      6  H2  <0> d           2.913  -1.569  -0.037  0.00  0.00     0.044 H 
ATOM      7  C6  <0> d           2.183   0.005   1.240  0.00  0.00     0.040 C 
ATOM      8  H3  <0> d           2.165   1.095   1.252  0.00  0.00     0.083 H 
ATOM      9  C7  <0> d           0.749  -0.529   1.254  0.00  0.00    -0.038 C 
ATOM     10  H7  <0> d           0.733  -1.591  -1.256  0.00  0.00     0.033 H 
ATOM     11  H8  <0> d           0.183  -0.137  -2.123  0.00  0.00     0.033 H 
ATOM     12  H9  <0> d           2.656  -0.313  -2.159  0.00  0.00     0.033 H 
ATOM     13  H10 <0> d           2.130   1.122  -1.246  0.00  0.00     0.033 H 
ATOM     14  H11 <0> d           0.242  -0.184   2.155  0.00  0.00     0.037 H 
ATOM     15  H12 <0> d           0.767  -1.619   1.242  0.00  0.00     0.037 H 
ENDROOT
BRANCH   5  16
ATOM     16  C8  <0> d           4.329   0.055  -0.039  0.00  0.00    -0.055 C 
ATOM     17  H14 <0> d           4.831  -0.229   0.886  0.00  0.00     0.039 H 
BRANCH  16  18
ATOM     18  C9  <0> d           5.082  -0.538  -1.231  0.00  0.00    -0.073 C 
ATOM     19  H15 <0> d           4.636  -0.180  -2.158  0.00  0.00     0.028 H 
ATOM     20  H16 <0> d           6.128  -0.232  -1.189  0.00  0.00     0.028 H 
ATOM     21  H17 <0> d           5.021  -1.626  -1.195  0.00  0.00     0.028 H 
ENDBRANCH  16  18
BRANCH  16  22
ATOM     22  C10 <0> d           4.304   1.580  -0.159  0.00  0.00    -0.073 C 
ATOM     23  H18 <0> d           3.767   2.003   0.690  0.00  0.00     0.028 H 
ATOM     24  H19 <0> d           5.325   1.960  -0.169  0.00  0.00     0.028 H 
ATOM     25  H20 <0> d           3.802   1.863  -1.084  0.00  0.00     0.028 H 
ENDBRANCH  16  22
ENDBRANCH   5  16
BRANCH   7  26
ATOM     26  O1  <0> d           2.881  -0.472   2.392  0.00  0.00    -0.395 OA
ATOM     27  H13 <0> d           2.484  -0.203   3.232  0.00  0.00     0.210 HD
ENDBRANCH   7  26
BRANCH   1  28
ATOM     28  C1  <0> d          -0.023   1.512   0.037  0.00  0.00    -0.073 C 
ATOM     29  H4  <0> d           0.999   1.893   0.027  0.00  0.00     0.028 H 
ATOM     30  H5  <0> d          -0.555   1.877  -0.842  0.00  0.00     0.028 H 
ATOM     31  H6  <0> d          -0.530   1.857   0.938  0.00  0.00     0.028 H 
ENDBRANCH   1  28
TORSDOF 5
