REMARK  5 active torsions:
REMARK  status: ('A' for Active; 'I' for Inactive)
REMARK    1  A    between atoms: C1_1  and  C2_2 
REMARK    2  A    between atoms: C2_2  and  C3_3 
REMARK    3  A    between atoms: C4_4  and  C5_5 
REMARK    4  A    between atoms: C6_6  and  C7_7 
REMARK    5  A    between atoms: C7_7  and  O1_8 
ROOT
ATOM      1  C3  <0> d           1.663   6.389   0.834  0.00  0.00    -0.102 C 
ATOM      2  C4  <0> d           1.771   5.221   0.827  0.00  0.00    -0.079 C 
ENDROOT
BRANCH   2   3
ATOM      3  C5  <0> d           1.903   3.795   0.818  0.00  0.00    -0.035 C 
ATOM      4  C6  <0> d           1.147   3.062   0.008  0.00  0.00    -0.073 C 
ATOM      5  H7  <0> d           0.432   3.542  -0.644  0.00  0.00     0.081 H 
ATOM      6  H6  <0> d           2.618   3.315   1.470  0.00  0.00     0.097 H 
BRANCH   4   7
ATOM      7  C7  <0> d           1.286   1.562  -0.002  0.00  0.00     0.032 C 
ATOM      8  H8  <0> d           1.840   1.243   0.881  0.00  0.00     0.080 H 
ATOM      9  H9  <0> d           1.823   1.252  -0.899  0.00  0.00     0.080 H 
BRANCH   7  10
ATOM     10  O1  <0> d          -0.011   0.963   0.007  0.00  0.00    -0.397 OA
ATOM     11  H10 <0> d           0.002  -0.004   0.002  0.00  0.00     0.209 HD
ENDBRANCH   7  10
ENDBRANCH   4   7
ENDBRANCH   2   3
BRANCH   1  12
ATOM     12  C2  <0> d           1.526   7.855   0.843  0.00  0.00    -0.012 C 
ATOM     13  H4  <0> d           1.748   8.247  -0.149  0.00  0.00     0.051 H 
ATOM     14  H5  <0> d           0.507   8.124   1.121  0.00  0.00     0.051 H 
BRANCH  12  15
ATOM     15  C1  <0> d           2.505   8.452   1.857  0.00  0.00    -0.067 C 
ATOM     16  H1  <0> d           2.404   9.537   1.864  0.00  0.00     0.028 H 
ATOM     17  H2  <0> d           2.283   8.060   2.850  0.00  0.00     0.028 H 
ATOM     18  H3  <0> d           3.524   8.183   1.580  0.00  0.00     0.028 H 
ENDBRANCH  12  15
ENDBRANCH   1  12
TORSDOF 5
