REMARK  8 active torsions:
REMARK  status: ('A' for Active; 'I' for Inactive)
REMARK    1  A    between atoms: C1_1  and  C2_2 
REMARK    2  A    between atoms: C2_2  and  C3_3 
REMARK    3  A    between atoms: C3_3  and  O1_4 
REMARK    4  A    between atoms: O1_4  and  C4_5 
REMARK       I    between atoms: C4_5  and  N1_7 
REMARK    5  A    between atoms: N1_7  and  C5_8 
REMARK    6  A    between atoms: C5_8  and  C6_9 
REMARK    7  A    between atoms: C5_8  and  C7_10 
REMARK    8  A    between atoms: C5_8  and  C8_11 
ROOT
ATOM      1  C4  <0> d           1.147   1.655  -0.000  0.00  0.00     0.361 C 
ATOM      2  O2  <0> d           1.130   2.870   0.007  0.00  0.00    -0.238 OA
ATOM      3  N1  <0> d          -0.011   0.966   0.007  0.00  0.00    -0.329 N 
ATOM      4  H8  <0> d           0.002  -0.004   0.002  0.00  0.00     0.165 HD
ENDROOT
BRANCH   3   5
ATOM      5  C5  <0> d          -1.290   1.681   0.017  0.00  0.00     0.024 C 
BRANCH   5   6
ATOM      6  C6  <0> d          -1.389   2.566  -1.227  0.00  0.00    -0.053 C 
ATOM      7  H9  <0> d          -1.327   1.945  -2.120  0.00  0.00     0.030 H 
ATOM      8  H10 <0> d          -2.340   3.098  -1.219  0.00  0.00     0.030 H 
ATOM      9  H11 <0> d          -0.570   3.286  -1.227  0.00  0.00     0.030 H 
ENDBRANCH   5   6
BRANCH   5  10
ATOM     10  C7  <0> d          -2.439   0.671   0.017  0.00  0.00    -0.053 C 
ATOM     11  H12 <0> d          -2.369   0.040   0.903  0.00  0.00     0.030 H 
ATOM     12  H13 <0> d          -3.390   1.203   0.025  0.00  0.00     0.030 H 
ATOM     13  H14 <0> d          -2.377   0.050  -0.876  0.00  0.00     0.030 H 
ENDBRANCH   5  10
BRANCH   5  14
ATOM     14  C8  <0> d          -1.377   2.553   1.272  0.00  0.00    -0.053 C 
ATOM     15  H15 <0> d          -0.558   3.272   1.272  0.00  0.00     0.030 H 
ATOM     16  H16 <0> d          -2.328   3.085   1.279  0.00  0.00     0.030 H 
ATOM     17  H17 <0> d          -1.306   1.922   2.158  0.00  0.00     0.030 H 
ENDBRANCH   5  14
ENDBRANCH   3   5
BRANCH   1  18
ATOM     18  O1  <0> d           2.322   0.998  -0.015  0.00  0.00    -0.304 OA
BRANCH  18  19
ATOM     19  C3  <0> d           3.529   1.806  -0.022  0.00  0.00     0.030 C 
ATOM     20  H6  <0> d           3.537   2.439  -0.909  0.00  0.00     0.075 H 
ATOM     21  H7  <0> d           3.554   2.430   0.871  0.00  0.00     0.075 H 
BRANCH  19  22
ATOM     22  C2  <0> d           4.755   0.890  -0.039  0.00  0.00    -0.048 C 
ATOM     23  H4  <0> d           4.747   0.256   0.848  0.00  0.00     0.035 H 
ATOM     24  H5  <0> d           4.730   0.266  -0.932  0.00  0.00     0.035 H 
BRANCH  22  25
ATOM     25  C1  <0> d           6.026   1.741  -0.046  0.00  0.00    -0.075 C 
ATOM     26  H1  <0> d           6.051   2.365   0.847  0.00  0.00     0.027 H 
ATOM     27  H2  <0> d           6.899   1.089  -0.058  0.00  0.00     0.027 H 
ATOM     28  H3  <0> d           6.034   2.375  -0.933  0.00  0.00     0.027 H 
ENDBRANCH  22  25
ENDBRANCH  19  22
ENDBRANCH  18  19
ENDBRANCH   1  18
TORSDOF 8
