REMARK  0 active torsions:
REMARK  status: ('A' for Active; 'I' for Inactive)
ROOT
ATOM      1  C1  <0> d           0.002  -0.004   0.002  0.00  0.00    -0.022 A 
ATOM      2  C2  <0> d          -0.017   1.393   0.010  0.00  0.00     0.050 A 
ATOM      3  C3  <0> d           1.186   2.105   0.002  0.00  0.00    -0.022 A 
ATOM      4  C4  <0> d           2.387   1.426  -0.013  0.00  0.00     0.157 A 
ATOM      5  C5  <0> d           2.402   0.036  -0.021  0.00  0.00     0.184 A 
ATOM      6  C6  <0> d           1.207  -0.676  -0.013  0.00  0.00     0.157 A 
ATOM      7  F1  <0> d           1.226  -2.027  -0.020  0.00  0.00    -0.203 F 
ATOM      8  O1  <0> d           3.587  -0.629  -0.035  0.00  0.00    -0.185 OA
ATOM      9  F2  <0> d           3.550   2.114  -0.020  0.00  0.00    -0.203 F 
ATOM     10  C7  <0> d          -1.266   2.094   0.019  0.00  0.00     0.099 C 
ATOM     11  N1  <0> d          -2.256   2.650   0.027  0.00  0.00    -0.191 NA
ATOM     12  H1  <0> d          -0.925  -0.557   0.007  0.00  0.00     0.090 H 
ATOM     13  H2  <0> d           1.175   3.185   0.008  0.00  0.00     0.090 H 
ENDROOT
TORSDOF 0
