REMARK  2 active torsions:
REMARK  status: ('A' for Active; 'I' for Inactive)
REMARK    1  A    between atoms: C1_1  and  C2_2 
REMARK    2  A    between atoms: C2_2  and  C4_6 
ROOT
ATOM      1  C2  <0> d           0.002  -0.004   0.002  0.00  0.00     0.052 C 
ATOM      2  H1  <0> d           1.034  -0.353  -0.010  0.00  0.00     0.069 H 
ATOM      3  C3  <0> d          -0.697  -0.498  -1.196  0.00  0.00     0.068 C 
ATOM      4  N1  <0> d          -1.236  -0.879  -2.120  0.00  0.00    -0.197 NA
ENDROOT
BRANCH   1   5
ATOM      5  C1  <0> d          -0.700  -0.530   1.255  0.00  0.00    -0.057 C 
ATOM      6  H2  <0> d          -1.733  -0.181   1.267  0.00  0.00     0.029 H 
ATOM      7  H3  <0> d          -0.685  -1.620   1.249  0.00  0.00     0.029 H 
ATOM      8  H4  <0> d          -0.183  -0.165   2.142  0.00  0.00     0.029 H 
ENDBRANCH   1   5
BRANCH   1   9
ATOM      9  C4  <0> d          -0.018   1.503   0.010  0.00  0.00    -0.041 A 
ATOM     10  C9  <0> d           1.169   2.210   0.003  0.00  0.00    -0.076 A 
ATOM     11  C8  <0> d           1.151   3.592   0.010  0.00  0.00    -0.082 A 
ATOM     12  H9  <0> d           2.112   1.683  -0.009  0.00  0.00     0.084 H 
ATOM     13  C7  <0> d          -0.056   4.267   0.025  0.00  0.00    -0.083 A 
ATOM     14  H8  <0> d           2.078   4.145   0.005  0.00  0.00     0.083 H 
ATOM     15  C6  <0> d          -1.244   3.560   0.032  0.00  0.00    -0.082 A 
ATOM     16  H7  <0> d          -0.070   5.347   0.032  0.00  0.00     0.083 H 
ATOM     17  C5  <0> d          -1.225   2.178   0.020  0.00  0.00    -0.076 A 
ATOM     18  H6  <0> d          -2.186   4.087   0.044  0.00  0.00     0.083 H 
ATOM     19  H5  <0> d          -2.153   1.625   0.021  0.00  0.00     0.084 H 
ENDBRANCH   1   9
TORSDOF 2
