REMARK  2 active torsions:
REMARK  status: ('A' for Active; 'I' for Inactive)
REMARK    1  A    between atoms: C3_4  and  O3_14 
REMARK    2  A    between atoms: C4_6  and  O2_13 
ROOT
ATOM      1  C1  <0> d           1.317  -0.244   0.831  0.00  0.00    -0.030 C 
ATOM      2  C2  <0> d           0.002  -0.004   0.002  0.00  0.00     0.052 C 
ATOM      3  H1  <0> d          -0.900  -0.505   0.353  0.00  0.00     0.058 H 
ATOM      4  C3  <0> d           0.503  -0.363  -1.433  0.00  0.00     0.074 C 
ATOM      5  H2  <0> d           0.484  -1.442  -1.587  0.00  0.00     0.088 H 
ATOM      6  C4  <0> d           1.959   0.164  -1.455  0.00  0.00     0.080 C 
ATOM      7  H3  <0> d           2.659  -0.653  -1.631  0.00  0.00     0.090 H 
ATOM      8  C5  <0> d           2.163   0.763  -0.028  0.00  0.00     0.040 C 
ATOM      9  H4  <0> d           3.192   0.927   0.291  0.00  0.00     0.076 H 
ATOM     10  N1  <0> d           1.269   1.956   0.000  0.00  0.00    -0.353 N 
ATOM     11  C6  <0> d          -0.019   1.531   0.011  0.00  0.00     0.224 C 
ATOM     12  O1  <0> d          -1.006   2.235   0.019  0.00  0.00    -0.273 OA
ATOM     13  H5  <0> d           1.218   0.074   1.869  0.00  0.00     0.037 H 
ATOM     14  H6  <0> d           1.679  -1.269   0.749  0.00  0.00     0.037 H 
ATOM     15  H7  <0> d           1.560   2.881   0.010  0.00  0.00     0.163 HD
ENDROOT
BRANCH   4  16
ATOM     16  O3  <0> d          -0.286   0.301  -2.422  0.00  0.00    -0.392 OA
ATOM     17  H9  <0> d          -0.018   0.113  -3.331  0.00  0.00     0.210 HD
ENDBRANCH   4  16
BRANCH   6  18
ATOM     18  O2  <0> d           2.113   1.177  -2.451  0.00  0.00    -0.391 OA
ATOM     19  H8  <0> d           1.996   0.859  -3.357  0.00  0.00     0.210 HD
ENDBRANCH   6  18
TORSDOF 2
