REMARK  2 active torsions:
REMARK  status: ('A' for Active; 'I' for Inactive)
REMARK    1  A    between atoms: C3_3  and  N3_12 
REMARK    2  A    between atoms: C5_5  and  N1_7 
ROOT
ATOM      1  C1  <0> d          -1.219   1.750   0.017  0.00  0.00    -0.079 A 
ATOM      2  C2  <0> d          -0.013   1.076   0.008  0.00  0.00    -0.058 A 
ATOM      3  C3  <0> d           1.181   1.786   0.000  0.00  0.00     0.027 A 
ATOM      4  C4  <0> d           1.161   3.174   0.008  0.00  0.00    -0.030 A 
ATOM      5  C5  <0> d          -0.051   3.847   0.023  0.00  0.00     0.060 A 
ATOM      6  C6  <0> d          -1.242   3.131   0.031  0.00  0.00    -0.055 A 
ATOM      7  H1  <0> d          -2.146   1.196   0.018  0.00  0.00     0.083 H 
ATOM      8  H2  <0> d           0.002  -0.004   0.002  0.00  0.00     0.086 H 
ATOM      9  H3  <0> d           2.088   3.729   0.002  0.00  0.00     0.090 H 
ATOM     10  H4  <0> d          -2.186   3.655   0.043  0.00  0.00     0.087 H 
ENDROOT
BRANCH   5  11
ATOM     11  N1  <0> d          -0.076   5.249   0.031  0.00  0.00    -0.245 N 
ATOM     12  N2  <0> d           1.042   6.093   0.025  0.00  0.00    -0.180 NA
ATOM     13  C9  <0> d           0.620   7.331   0.036  0.00  0.00     0.023 A 
ATOM     14  C8  <0> d          -0.779   7.317   0.050  0.00  0.00    -0.048 A 
ATOM     15  H7  <0> d           1.244   8.213   0.036  0.00  0.00     0.117 H 
ATOM     16  C7  <0> d          -1.183   6.025   0.041  0.00  0.00     0.006 A 
ATOM     17  H6  <0> d          -1.424   8.184   0.061  0.00  0.00     0.087 H 
ATOM     18  H5  <0> d          -2.205   5.677   0.043  0.00  0.00     0.114 H 
ENDBRANCH   5  11
BRANCH   3  19
ATOM     19  N3  <0> d           2.401   1.105  -0.015  0.00  0.00    -0.399 N 
ATOM     20  H8  <0> d           2.414   0.135  -0.019  0.00  0.00     0.156 HD
ATOM     21  H9  <0> d           3.234   1.601  -0.020  0.00  0.00     0.156 HD
ENDBRANCH   3  19
TORSDOF 2
