REMARK  0 active torsions:
REMARK  status: ('A' for Active; 'I' for Inactive)
ROOT
ATOM      1  C1  <0> d          -0.013   1.076   0.008  0.00  0.00    -0.064 A 
ATOM      2  C2  <0> d          -1.219   1.759   0.017  0.00  0.00    -0.058 A 
ATOM      3  C3  <0> d          -1.194   3.145   0.029  0.00  0.00     0.073 A 
ATOM      4  C4  <0> d           0.038   3.800   0.021  0.00  0.00     0.158 A 
ATOM      5  N1  <0> d           1.171   3.106   0.007  0.00  0.00    -0.248 NA
ATOM      6  C5  <0> d           1.174   1.791   0.001  0.00  0.00     0.004 A 
ATOM      7  C6  <0> d           0.082   5.232   0.028  0.00  0.00     0.121 C 
ATOM      8  N2  <0> d           0.117   6.367   0.033  0.00  0.00    -0.190 NA
ATOM      9 Cl1  <0> d          -2.674   4.053   0.048  0.00  0.00    -0.081 Cl
ATOM     10  H1  <0> d           0.002  -0.004   0.002  0.00  0.00     0.085 H 
ATOM     11  H2  <0> d          -2.157   1.223   0.019  0.00  0.00     0.086 H 
ATOM     12  H3  <0> d           2.114   1.261  -0.011  0.00  0.00     0.114 H 
ENDROOT
TORSDOF 0
