REMARK  3 active torsions:
REMARK  status: ('A' for Active; 'I' for Inactive)
REMARK    1  A    between atoms: C1_1  and  C2_2 
REMARK    2  A    between atoms: C2_2  and  C3_3 
REMARK    3  A    between atoms: C2_2  and  C4_4 
ROOT
ATOM      1  C4  <0> d          -2.143   1.058   1.278  0.00  0.00     0.014 A 
ATOM      2  C5  <0> d          -2.526  -0.139   0.805  0.00  0.00    -0.049 A 
ATOM      3  C6  <0> d          -3.973  -0.239   1.015  0.00  0.00    -0.008 A 
ATOM      4  C7  <0> d          -4.927  -1.221   0.743  0.00  0.00    -0.071 A 
ATOM      5  C8  <0> d          -6.237  -1.001   1.066  0.00  0.00    -0.082 A 
ATOM      6  C9  <0> d          -6.626   0.190   1.663  0.00  0.00    -0.081 A 
ATOM      7  C10 <0> d          -5.700   1.172   1.940  0.00  0.00    -0.056 A 
ATOM      8  C11 <0> d          -4.362   0.970   1.620  0.00  0.00     0.042 A 
ATOM      9  N1  <0> d          -3.227   1.736   1.765  0.00  0.00    -0.359 N 
ATOM     10  H1  <0> d          -3.199   2.624   2.155  0.00  0.00     0.166 HD
ATOM     11  H9  <0> d          -1.889  -0.887   0.357  0.00  0.00     0.087 H 
ATOM     12  H10 <0> d          -4.632  -2.150   0.279  0.00  0.00     0.084 H 
ATOM     13  H11 <0> d          -6.975  -1.761   0.856  0.00  0.00     0.083 H 
ATOM     14  H12 <0> d          -7.665   0.349   1.912  0.00  0.00     0.083 H 
ATOM     15  H13 <0> d          -6.013   2.096   2.404  0.00  0.00     0.086 H 
ENDROOT
BRANCH   1  16
ATOM     16  C2  <0> d          -0.729   1.579   1.267  0.00  0.00    -0.021 C 
ATOM     17  H5  <0> d          -0.744   2.669   1.273  0.00  0.00     0.048 H 
BRANCH  16  18
ATOM     18  C1  <0> d          -0.013   1.086   0.008  0.00  0.00    -0.068 C 
ATOM     19  H2  <0> d           0.002  -0.004   0.002  0.00  0.00     0.028 H 
ATOM     20  H3  <0> d           1.010   1.463   0.000  0.00  0.00     0.028 H 
ATOM     21  H4  <0> d          -0.540   1.447  -0.875  0.00  0.00     0.028 H 
ENDBRANCH  16  18
BRANCH  16  22
ATOM     22  C3  <0> d           0.011   1.072   2.506  0.00  0.00    -0.068 C 
ATOM     23  H6  <0> d           1.034   1.450   2.499  0.00  0.00     0.028 H 
ATOM     24  H7  <0> d          -0.499   1.424   3.403  0.00  0.00     0.028 H 
ATOM     25  H8  <0> d           0.026  -0.018   2.500  0.00  0.00     0.028 H 
ENDBRANCH  16  22
ENDBRANCH   1  16
TORSDOF 3
