REMARK  5 active torsions:
REMARK  status: ('A' for Active; 'I' for Inactive)
REMARK    1  A    between atoms: C1_1  and  C2_2 
REMARK    2  A    between atoms: C2_2  and  C3_4 
REMARK    3  A    between atoms: C2_2  and  C9_10 
REMARK    4  A    between atoms: C9_10  and  C10_12 
REMARK    5  A    between atoms: C9_10  and  O1_13 
ROOT
ATOM      1  C2  <0> d           0.742  -0.511   1.242  0.00  0.00    -0.008 C 
ATOM      2  H1  <0> d           0.835  -1.596   1.191  0.00  0.00     0.050 H 
ENDROOT
BRANCH   1   3
ATOM      3  C1  <0> d           2.136   0.118   1.296  0.00  0.00    -0.067 C 
ATOM      4  H3  <0> d           2.043   1.203   1.346  0.00  0.00     0.028 H 
ATOM      5  H4  <0> d           2.663  -0.243   2.179  0.00  0.00     0.028 H 
ATOM      6  H5  <0> d           2.694  -0.158   0.402  0.00  0.00     0.028 H 
ENDBRANCH   1   3
BRANCH   1   7
ATOM      7  C3  <0> d          -0.030  -0.130   2.478  0.00  0.00    -0.052 A 
ATOM      8  C8  <0> d          -0.493  -1.111   3.334  0.00  0.00    -0.076 A 
ATOM      9  C7  <0> d          -1.201  -0.761   4.469  0.00  0.00    -0.082 A 
ATOM     10  H10 <0> d          -0.302  -2.152   3.116  0.00  0.00     0.084 H 
ATOM     11  C6  <0> d          -1.446   0.570   4.748  0.00  0.00    -0.083 A 
ATOM     12  H9  <0> d          -1.563  -1.528   5.137  0.00  0.00     0.083 H 
ATOM     13  C5  <0> d          -0.982   1.552   3.892  0.00  0.00    -0.082 A 
ATOM     14  H8  <0> d          -1.999   0.844   5.634  0.00  0.00     0.083 H 
ATOM     15  C4  <0> d          -0.270   1.202   2.760  0.00  0.00    -0.076 A 
ATOM     16  H7  <0> d          -1.173   2.592   4.110  0.00  0.00     0.083 H 
ATOM     17  H6  <0> d           0.096   1.970   2.094  0.00  0.00     0.084 H 
ENDBRANCH   1   7
BRANCH   1  18
ATOM     18  C9  <0> d           0.002  -0.004   0.002  0.00  0.00     0.039 C 
ATOM     19  H2  <0> d          -1.020  -0.381   0.010  0.00  0.00     0.083 H 
BRANCH  18  20
ATOM     20  C10 <0> d           0.718  -0.497  -1.257  0.00  0.00    -0.052 C 
ATOM     21  H11 <0> d           1.741  -0.120  -1.264  0.00  0.00     0.030 H 
ATOM     22  H12 <0> d           0.733  -1.587  -1.263  0.00  0.00     0.030 H 
ATOM     23  H13 <0> d           0.191  -0.136  -2.140  0.00  0.00     0.030 H 
ENDBRANCH  18  20
BRANCH  18  24
ATOM     24  O1  <0> d          -0.017   1.425   0.010  0.00  0.00    -0.395 OA
ATOM     25  H14 <0> d           0.861   1.830   0.004  0.00  0.00     0.210 HD
ENDBRANCH  18  24
ENDBRANCH   1  18
TORSDOF 5
