REMARK  3 active torsions:
REMARK  status: ('A' for Active; 'I' for Inactive)
REMARK    1  A    between atoms: C1_1  and  C2_2 
REMARK    2  A    between atoms: C2_2  and  N1_3 
REMARK    3  A    between atoms: C3_4  and  C7_12 
ROOT
ATOM      1  N1  <0> d           0.109   0.971   2.346  0.00  0.00    -0.304 N 
ATOM      2  C3  <0> d          -0.436  -0.056   3.068  0.00  0.00     0.017 A 
ATOM      3  C4  <0> d           0.093  -0.385   4.266  0.00  0.00     0.004 A 
ATOM      4  C5  <0> d           1.199   0.351   4.756  0.00  0.00     0.251 A 
ATOM      5  O1  <0> d           1.690   0.075   5.836  0.00  0.00    -0.268 OA
ATOM      6  N2  <0> d           1.703   1.359   4.017  0.00  0.00    -0.275 N 
ATOM      7  H1  <0> d           2.562   1.937   4.388  0.00  0.00     0.173 HD
ATOM      8  C6  <0> d           1.160   1.663   2.823  0.00  0.00     0.329 A 
ATOM      9  O2  <0> d           1.625   2.574   2.167  0.00  0.00    -0.246 OA
ATOM     10  H7  <0> d          -0.325  -1.196   4.845  0.00  0.00     0.095 H 
ENDROOT
BRANCH   1  11
ATOM     11  C2  <0> d          -0.461   1.324   1.044  0.00  0.00     0.001 C 
ATOM     12  H5  <0> d          -0.914   0.432   0.587  0.00  0.00     0.064 H 
ATOM     13  H6  <0> d           0.333   1.709   0.387  0.00  0.00     0.064 H 
BRANCH  11  14
ATOM     14  C1  <0> d          -1.533   2.401   1.231  0.00  0.00    -0.061 C 
ATOM     15  H2  <0> d          -1.961   2.666   0.253  0.00  0.00     0.029 H 
ATOM     16  H3  <0> d          -1.080   3.293   1.688  0.00  0.00     0.029 H 
ATOM     17  H4  <0> d          -2.327   2.016   1.887  0.00  0.00     0.029 H 
ENDBRANCH  11  14
ENDBRANCH   1  11
BRANCH   2  18
ATOM     18  C7  <0> d          -1.616  -0.820   2.526  0.00  0.00    -0.037 C 
ATOM     19  H8  <0> d          -1.909  -1.601   3.244  0.00  0.00     0.035 H 
ATOM     20  H9  <0> d          -1.342  -1.287   1.568  0.00  0.00     0.035 H 
ATOM     21  H10 <0> d          -2.459  -0.131   2.370  0.00  0.00     0.035 H 
ENDBRANCH   2  18
TORSDOF 3
