REMARK  2 active torsions:
REMARK  status: ('A' for Active; 'I' for Inactive)
REMARK    1  A    between atoms: C1_1  and  C2_2 
REMARK    2  A    between atoms: C2_2  and  C3_3 
ROOT
ATOM      1  C3  <0> d           0.002  -0.004   0.002  0.00  0.00    -0.031 A 
ATOM      2  C4  <0> d          -0.104  -0.690  -1.188  0.00  0.00    -0.075 A 
ATOM      3  C5  <0> d          -0.086  -2.078  -1.209  0.00  0.00    -0.082 A 
ATOM      4  C6  <0> d           0.037  -2.788  -0.048  0.00  0.00    -0.071 A 
ATOM      5  C7  <0> d           0.146  -2.113   1.169  0.00  0.00    -0.008 A 
ATOM      6  C8  <0> d           0.134  -0.707   1.195  0.00  0.00     0.048 A 
ATOM      7  N1  <0> d           0.251  -0.324   2.513  0.00  0.00    -0.365 N 
ATOM      8  H1  <0> d           0.268   0.593   2.827  0.00  0.00     0.165 HD
ATOM      9  C9  <0> d           0.344  -1.431   3.312  0.00  0.00    -0.022 A 
ATOM     10  C10 <0> d           0.288  -2.543   2.562  0.00  0.00    -0.056 A 
ATOM     11  H7  <0> d          -0.202  -0.143  -2.114  0.00  0.00     0.084 H 
ATOM     12  H8  <0> d          -0.169  -2.600  -2.151  0.00  0.00     0.083 H 
ATOM     13  H9  <0> d           0.050  -3.868  -0.072  0.00  0.00     0.084 H 
ATOM     14  H10 <0> d           0.449  -1.412   4.387  0.00  0.00     0.111 H 
ATOM     15  H11 <0> d           0.337  -3.561   2.919  0.00  0.00     0.086 H 
ENDROOT
BRANCH   1  16
ATOM     16  C2  <0> d          -0.018   1.503   0.010  0.00  0.00    -0.042 C 
ATOM     17  H5  <0> d          -0.545   1.864  -0.873  0.00  0.00     0.039 H 
ATOM     18  H6  <0> d          -0.529   1.854   0.907  0.00  0.00     0.039 H 
BRANCH  16  19
ATOM     19  C1  <0> d           1.417   2.032  -0.001  0.00  0.00    -0.073 C 
ATOM     20  H2  <0> d           1.402   3.122   0.005  0.00  0.00     0.028 H 
ATOM     21  H3  <0> d           1.944   1.671   0.882  0.00  0.00     0.028 H 
ATOM     22  H4  <0> d           1.927   1.681  -0.897  0.00  0.00     0.028 H 
ENDBRANCH  16  19
ENDBRANCH   1  16
TORSDOF 2
