REMARK  1 active torsions:
REMARK  status: ('A' for Active; 'I' for Inactive)
REMARK    1  A    between atoms: C1_1  and  N1_2 
ROOT
ATOM      1  N1  <0> d           0.623   3.197   0.013  0.00  0.00    -0.256 N 
ATOM      2  C2  <0> d          -0.744   3.254   0.027  0.00  0.00     0.157 A 
ATOM      3  C3  <0> d          -1.202   1.921   0.018  0.00  0.00     0.030 A 
ATOM      4  C4  <0> d          -2.578   1.669   0.036  0.00  0.00    -0.067 A 
ATOM      5  C5  <0> d          -3.431   2.742   0.050  0.00  0.00    -0.065 A 
ATOM      6  C6  <0> d          -2.915   4.030   0.052  0.00  0.00     0.004 A 
ATOM      7  N2  <0> d          -1.618   4.252   0.040  0.00  0.00    -0.241 NA
ATOM      8  C7  <0> d          -0.013   1.076   0.008  0.00  0.00     0.035 A 
ATOM      9  N3  <0> d           1.028   1.859   0.002  0.00  0.00    -0.183 NA
ATOM     10  H4  <0> d          -2.958   0.658   0.034  0.00  0.00     0.085 H 
ATOM     11  H5  <0> d          -4.500   2.586   0.059  0.00  0.00     0.085 H 
ATOM     12  H6  <0> d          -3.594   4.870   0.063  0.00  0.00     0.114 H 
ATOM     13  H7  <0> d           0.002  -0.004   0.002  0.00  0.00     0.118 H 
ENDROOT
BRANCH   1  14
ATOM     14  C1  <0> d           1.520   4.355   0.011  0.00  0.00     0.004 C 
ATOM     15  H1  <0> d           1.733   4.648  -1.017  0.00  0.00     0.059 H 
ATOM     16  H2  <0> d           1.044   5.184   0.535  0.00  0.00     0.059 H 
ATOM     17  H3  <0> d           2.451   4.094   0.515  0.00  0.00     0.059 H 
ENDBRANCH   1  14
TORSDOF 1
