REMARK  0 active torsions:
REMARK  status: ('A' for Active; 'I' for Inactive)
ROOT
ATOM      1  C1  <0> d           2.306   0.134   0.781  0.00  0.00     0.010 C 
ATOM      2  C2  <0> d           2.416   1.417  -0.039  0.00  0.00     0.010 C 
ATOM      3  N1  <0> d           1.156   2.159   0.003  0.00  0.00    -0.351 N 
ATOM      4  C3  <0> d          -0.018   1.494   0.010  0.00  0.00     0.309 C 
ATOM      5  O1  <0> d          -1.071   2.098   0.018  0.00  0.00    -0.262 OA
ATOM      6  C4  <0> d           0.002  -0.004   0.002  0.00  0.00     0.309 C 
ATOM      7  O2  <0> d          -0.982  -0.634  -0.325  0.00  0.00    -0.262 OA
ATOM      8  N2  <0> d           1.136  -0.640   0.365  0.00  0.00    -0.351 N 
ATOM      9  H1  <0> d           2.214   0.388   1.837  0.00  0.00     0.066 H 
ATOM     10  H2  <0> d           3.205  -0.464   0.631  0.00  0.00     0.066 H 
ATOM     11  H3  <0> d           3.214   2.037   0.369  0.00  0.00     0.066 H 
ATOM     12  H4  <0> d           2.649   1.164  -1.073  0.00  0.00     0.066 H 
ATOM     13  H5  <0> d           1.165   3.129   0.025  0.00  0.00     0.162 HD
ATOM     14  H6  <0> d           1.175  -1.609   0.350  0.00  0.00     0.162 HD
ENDROOT
TORSDOF 0
