REMARK  1 active torsions:
REMARK  status: ('A' for Active; 'I' for Inactive)
REMARK    1  A    between atoms: C1_1  and  C2_2 
ROOT
ATOM      1  C2  <0> d           1.172   1.794   0.001  0.00  0.00    -0.034 A 
ATOM      2  C3  <0> d          -0.013   1.076   0.008  0.00  0.00    -0.020 A 
ATOM      3  C4  <0> d          -1.216   1.761   0.017  0.00  0.00     0.210 A 
ATOM      4  N1  <0> d          -1.241   3.081   0.030  0.00  0.00    -0.231 NA
ATOM      5  C5  <0> d          -0.132   3.795   0.024  0.00  0.00     0.027 A 
ATOM      6  C6  <0> d           1.105   3.180   0.009  0.00  0.00     0.057 A 
ATOM      7 Cl1  <0> d           2.559   4.130  -0.001  0.00  0.00    -0.082 Cl
ATOM      8  F1  <0> d          -2.378   1.071   0.019  0.00  0.00    -0.184 F 
ATOM      9  H4  <0> d           0.002  -0.004   0.002  0.00  0.00     0.091 H 
ATOM     10  H5  <0> d          -0.192   4.874   0.030  0.00  0.00     0.117 H 
ENDROOT
BRANCH   1  11
ATOM     11  C1  <0> d           2.503   1.086  -0.016  0.00  0.00    -0.049 C 
ATOM     12  H1  <0> d           2.814   0.920  -1.047  0.00  0.00     0.033 H 
ATOM     13  H2  <0> d           3.246   1.698   0.494  0.00  0.00     0.033 H 
ATOM     14  H3  <0> d           2.410   0.127   0.494  0.00  0.00     0.033 H 
ENDBRANCH   1  11
TORSDOF 1
