REMARK  1 active torsions:
REMARK  status: ('A' for Active; 'I' for Inactive)
REMARK    1  A    between atoms: C4_4  and  C7_7 
ROOT
ATOM      1  C1  <0> d           0.002  -0.004   0.002  0.00  0.00    -0.083 A 
ATOM      2  C2  <0> d          -0.017   1.379   0.010  0.00  0.00    -0.082 A 
ATOM      3  C3  <0> d           1.167   2.088   0.002  0.00  0.00    -0.069 A 
ATOM      4  C4  <0> d           2.384   1.407  -0.013  0.00  0.00     0.012 A 
ATOM      5  C5  <0> d           2.397   0.014  -0.020  0.00  0.00    -0.069 A 
ATOM      6  C6  <0> d           1.206  -0.685  -0.013  0.00  0.00    -0.082 A 
ATOM      7  H1  <0> d          -0.927  -0.555   0.008  0.00  0.00     0.083 H 
ATOM      8  H2  <0> d          -0.960   1.905   0.017  0.00  0.00     0.083 H 
ATOM      9  H3  <0> d           1.152   3.168   0.008  0.00  0.00     0.085 H 
ATOM     10  H4  <0> d           3.336  -0.519  -0.031  0.00  0.00     0.085 H 
ATOM     11  H5  <0> d           1.215  -1.765  -0.018  0.00  0.00     0.083 H 
ENDROOT
BRANCH   4  12
ATOM     12  C7  <0> d           3.660   2.164  -0.021  0.00  0.00     0.159 A 
ATOM     13  N2  <0> d           3.627   3.489  -0.014  0.00  0.00    -0.241 NA
ATOM     14  C10 <0> d           4.745   4.193  -0.020  0.00  0.00     0.006 A 
ATOM     15  C9  <0> d           5.963   3.529  -0.034  0.00  0.00    -0.049 A 
ATOM     16  H8  <0> d           4.712   5.272  -0.014  0.00  0.00     0.114 H 
ATOM     17  C8  <0> d           5.961   2.142  -0.041  0.00  0.00     0.006 A 
ATOM     18  H7  <0> d           6.892   4.079  -0.040  0.00  0.00     0.087 H 
ATOM     19  N1  <0> d           4.806   1.498  -0.029  0.00  0.00    -0.241 NA
ATOM     20  H6  <0> d           6.892   1.594  -0.052  0.00  0.00     0.114 H 
ENDBRANCH   4  12
TORSDOF 1
