REMARK  2 active torsions:
REMARK  status: ('A' for Active; 'I' for Inactive)
REMARK    1  A    between atoms: C7_7  and  O1_12 
REMARK    2  A    between atoms: C9_9  and  N1_11 
ROOT
ATOM      1  C1  <0> d          -3.633   1.621  -0.076  0.00  0.00    -0.080 A 
ATOM      2  C2  <0> d          -3.689   2.977   0.033  0.00  0.00    -0.072 A 
ATOM      3  C3  <0> d          -2.502   3.722   0.139  0.00  0.00    -0.021 A 
ATOM      4  C4  <0> d          -2.531   5.123   0.253  0.00  0.00    -0.072 A 
ATOM      5  C5  <0> d          -1.367   5.821   0.354  0.00  0.00    -0.080 A 
ATOM      6  C6  <0> d          -0.137   5.170   0.347  0.00  0.00    -0.050 A 
ATOM      7  C7  <0> d          -0.066   3.799   0.237  0.00  0.00     0.079 A 
ATOM      8  C8  <0> d          -1.255   3.050   0.137  0.00  0.00     0.033 A 
ATOM      9  C9  <0> d          -1.227   1.646   0.017  0.00  0.00     0.039 A 
ATOM     10  C10 <0> d          -2.414   0.951  -0.085  0.00  0.00    -0.057 A 
ATOM     11  H1  <0> d          -4.550   1.056  -0.157  0.00  0.00     0.083 H 
ATOM     12  H2  <0> d          -4.644   3.480   0.039  0.00  0.00     0.084 H 
ATOM     13  H3  <0> d          -3.477   5.645   0.260  0.00  0.00     0.084 H 
ATOM     14  H4  <0> d          -1.398   6.897   0.440  0.00  0.00     0.083 H 
ATOM     15  H5  <0> d           0.773   5.746   0.429  0.00  0.00     0.087 H 
ATOM     16  H6  <0> d          -2.397  -0.126  -0.173  0.00  0.00     0.086 H 
ENDROOT
BRANCH   9  17
ATOM     17  N1  <0> d          -0.011   0.966   0.007  0.00  0.00    -0.398 N 
ATOM     18  H7  <0> d           0.789   1.408  -0.316  0.00  0.00     0.156 HD
ATOM     19  H8  <0> d           0.036   0.051   0.328  0.00  0.00     0.156 HD
ENDBRANCH   9  17
BRANCH   7  20
ATOM     20  O1  <0> d           1.139   3.173   0.232  0.00  0.00    -0.360 OA
ATOM     21  H9  <0> d           1.454   2.920   1.110  0.00  0.00     0.217 HD
ENDBRANCH   7  20
TORSDOF 2
