REMARK  3 active torsions:
REMARK  status: ('A' for Active; 'I' for Inactive)
REMARK    1  A    between atoms: C2_2  and  C3_3 
REMARK    2  A    between atoms: C3_3  and  N1_4 
REMARK    3  A    between atoms: N1_4  and  C4_5 
ROOT
ATOM      1  C3  <0> d           1.248   1.716  -0.001  0.00  0.00     0.009 C 
ATOM      2  H4  <0> d           1.306   2.344   0.900  0.00  0.00     0.070 H 
ATOM      3  H5  <0> d           1.289   2.353  -0.896  0.00  0.00     0.070 H 
ENDROOT
BRANCH   1   4
ATOM      4  C2  <0> d           2.406   0.752  -0.017  0.00  0.00    -0.095 C 
ATOM      5  C1  <0> d           3.317   0.838  -0.955  0.00  0.00    -0.123 C 
ATOM      6  H1  <0> d           4.163   0.135  -0.966  0.00  0.00     0.066 H 
ATOM      7  H2  <0> d           3.236   1.614  -1.730  0.00  0.00     0.066 H 
ATOM      8  H3  <0> d           2.487  -0.024   0.758  0.00  0.00     0.078 H 
ENDBRANCH   1   4
BRANCH   1   9
ATOM      9  N1  <0> d          -0.011   0.966   0.007  0.00  0.00    -0.363 N 
ATOM     10  H6  <0> d           0.004  -0.134   0.006  0.00  0.00     0.162 HD
BRANCH   9  11
ATOM     11  C4  <0> d          -1.219   1.641   0.017  0.00  0.00     0.209 A 
ATOM     12  S1  <0> d          -2.839   1.016   0.021  0.00  0.00     0.076 SA
ATOM     13  N4  <0> d          -3.651   2.526   0.033  0.00  0.00    -0.087 NA
ATOM     14  N3  <0> d          -2.655   3.356   0.033  0.00  0.00    -0.033 NA
ATOM     15  N2  <0> d          -1.459   2.947   0.031  0.00  0.00    -0.103 NA
ENDBRANCH   9  11
ENDBRANCH   1   9
TORSDOF 3
