REMARK  4 active torsions:
REMARK  status: ('A' for Active; 'I' for Inactive)
REMARK    1  A    between atoms: C3_3  and  C7_8 
REMARK    2  A    between atoms: C5_5  and  O1_7 
REMARK    3  A    between atoms: C7_8  and  C8_10 
REMARK    4  A    between atoms: C8_10  and  O3_11 
ROOT
ATOM      1  C1  <0> d          -0.017   1.379   0.010  0.00  0.00    -0.079 A 
ATOM      2  C2  <0> d           1.165   2.089   0.002  0.00  0.00    -0.069 A 
ATOM      3  C3  <0> d           2.388   1.410  -0.013  0.00  0.00     0.015 A 
ATOM      4  C4  <0> d           2.404   0.013  -0.021  0.00  0.00    -0.037 A 
ATOM      5  C5  <0> d           1.211  -0.688  -0.013  0.00  0.00     0.066 A 
ATOM      6  C6  <0> d           0.002  -0.004   0.002  0.00  0.00    -0.051 A 
ATOM      7  H1  <0> d          -0.960   1.904   0.026  0.00  0.00     0.083 H 
ATOM      8  H2  <0> d           1.147   3.169   0.008  0.00  0.00     0.085 H 
ATOM      9  H3  <0> d           3.344  -0.519  -0.033  0.00  0.00     0.089 H 
ATOM     10  H4  <0> d          -0.927  -0.554   0.008  0.00  0.00     0.087 H 
ENDROOT
BRANCH   3  11
ATOM     11  C7  <0> d           3.652   2.164  -0.022  0.00  0.00     0.182 C 
ATOM     12  O2  <0> d           4.710   1.573  -0.035  0.00  0.00    -0.290 OA
BRANCH  11  13
ATOM     13  C8  <0> d           3.631   3.671  -0.014  0.00  0.00     0.076 C 
ATOM     14  H6  <0> d           3.103   4.032  -0.897  0.00  0.00     0.086 H 
ATOM     15  H7  <0> d           3.121   4.023   0.883  0.00  0.00     0.086 H 
BRANCH  13  16
ATOM     16  O3  <0> d           4.971   4.166  -0.024  0.00  0.00    -0.393 OA
ATOM     17  H8  <0> d           5.034   5.131  -0.020  0.00  0.00     0.209 HD
ENDBRANCH  13  16
ENDBRANCH  11  13
ENDBRANCH   3  11
BRANCH   5  18
ATOM     18  O1  <0> d           1.221  -2.047  -0.021  0.00  0.00    -0.361 OA
ATOM     19  H5  <0> d           1.233  -2.445   0.861  0.00  0.00     0.217 HD
ENDBRANCH   5  18
TORSDOF 4
