REMARK  2 active torsions:
REMARK  status: ('A' for Active; 'I' for Inactive)
REMARK    1  A    between atoms: C1_1  and  C2_2 
REMARK    2  A    between atoms: C5_5  and  C7_9 
ROOT
ATOM      1  C2  <0> d          -0.742   1.585  -1.213  0.00  0.00     0.011 A 
ATOM      2  C3  <0> d          -0.053   1.817  -2.351  0.00  0.00    -0.026 A 
ATOM      3  C4  <0> d          -0.730   2.284  -3.496  0.00  0.00     0.120 A 
ATOM      4  C5  <0> d          -2.094   2.496  -3.428  0.00  0.00     0.043 A 
ATOM      5  C6  <0> d          -2.764   2.241  -2.226  0.00  0.00     0.254 A 
ATOM      6  N1  <0> d          -2.084   1.790  -1.155  0.00  0.00    -0.327 N 
ATOM      7  O1  <0> d          -3.969   2.423  -2.149  0.00  0.00    -0.268 OA
ATOM      8  O2  <0> d          -0.053   2.523  -4.645  0.00  0.00    -0.191 OA
ATOM      9  H4  <0> d           1.013   1.646  -2.384  0.00  0.00     0.090 H 
ATOM     10  H5  <0> d          -2.558   1.613  -0.328  0.00  0.00     0.169 HD
ENDROOT
BRANCH   1  11
ATOM     11  C1  <0> d          -0.013   1.086   0.008  0.00  0.00    -0.037 C 
ATOM     12  H1  <0> d           0.002  -0.004   0.002  0.00  0.00     0.035 H 
ATOM     13  H2  <0> d           1.010   1.463   0.000  0.00  0.00     0.035 H 
ATOM     14  H3  <0> d          -0.523   1.437   0.905  0.00  0.00     0.035 H 
ENDBRANCH   1  11
BRANCH   4  15
ATOM     15  C7  <0> d          -2.850   2.995  -4.632  0.00  0.00    -0.043 C 
ATOM     16  H6  <0> d          -3.197   2.146  -5.221  0.00  0.00     0.033 H 
ATOM     17  H7  <0> d          -3.706   3.585  -4.305  0.00  0.00     0.033 H 
ATOM     18  H8  <0> d          -2.193   3.615  -5.242  0.00  0.00     0.033 H 
ENDBRANCH   4  15
TORSDOF 2
