REMARK  1 active torsions:
REMARK  status: ('A' for Active; 'I' for Inactive)
REMARK    1  A    between atoms: C4_4  and  C8_9 
REMARK       I    between atoms: C8_9  and  N2_11 
ROOT
ATOM      1  C1  <0> d          -1.244   3.494   0.032  0.00  0.00    -0.082 A 
ATOM      2  C2  <0> d          -0.057   4.206   0.025  0.00  0.00    -0.082 A 
ATOM      3  C3  <0> d           1.155   3.545   0.010  0.00  0.00    -0.066 A 
ATOM      4  C4  <0> d           1.190   2.153   0.002  0.00  0.00     0.052 A 
ATOM      5  C5  <0> d          -0.017   1.428   0.010  0.00  0.00     0.060 A 
ATOM      6  C6  <0> d          -1.231   2.113   0.019  0.00  0.00    -0.062 A 
ATOM      7  C7  <0> d           0.002  -0.004   0.002  0.00  0.00     0.100 C 
ATOM      8  N1  <0> d           0.018  -1.140  -0.004  0.00  0.00    -0.191 NA
ATOM      9  H1  <0> d          -2.187   4.021   0.044  0.00  0.00     0.083 H 
ATOM     10  H2  <0> d          -0.080   5.286   0.031  0.00  0.00     0.083 H 
ATOM     11  H3  <0> d           2.077   4.108   0.004  0.00  0.00     0.085 H 
ATOM     12  H4  <0> d          -2.161   1.563   0.020  0.00  0.00     0.085 H 
ENDROOT
BRANCH   4  13
ATOM     13  C8  <0> d           2.485   1.441  -0.015  0.00  0.00     0.250 C 
ATOM     14  O1  <0> d           2.510   0.226  -0.022  0.00  0.00    -0.268 OA
ATOM     15  N2  <0> d           3.638   2.139  -0.022  0.00  0.00    -0.366 N 
ATOM     16  H5  <0> d           3.617   3.109  -0.016  0.00  0.00     0.159 HD
ATOM     17  H6  <0> d           4.487   1.672  -0.033  0.00  0.00     0.159 HD
ENDBRANCH   4  13
TORSDOF 1
