REMARK  1 active torsions:
REMARK  status: ('A' for Active; 'I' for Inactive)
REMARK    1  A    between atoms: C4_4  and  C7_7 
ROOT
ATOM      1  C7  <0> d          -0.070   5.347   0.031  0.00  0.00     0.357 C 
ATOM      2  C8  <0> d          -0.064   5.830   1.422  0.00  0.00     0.143 C 
ATOM      3  N1  <0> d          -0.059   6.203   2.495  0.00  0.00    -0.190 NA
ATOM      4  F1  <0> d           1.059   5.832  -0.637  0.00  0.00    -0.184 F 
ATOM      5  F2  <0> d          -1.225   5.801  -0.615  0.00  0.00    -0.184 F 
ENDROOT
BRANCH   1   6
ATOM      6  C4  <0> d          -0.050   3.840   0.023  0.00  0.00     0.028 A 
ATOM      7  C3  <0> d          -1.238   3.133   0.030  0.00  0.00    -0.070 A 
ATOM      8  C2  <0> d          -1.219   1.751   0.017  0.00  0.00    -0.082 A 
ATOM      9  H3  <0> d          -2.180   3.660   0.041  0.00  0.00     0.084 H 
ATOM     10  C1  <0> d          -0.013   1.076   0.008  0.00  0.00    -0.083 A 
ATOM     11  H2  <0> d          -2.147   1.198   0.019  0.00  0.00     0.083 H 
ATOM     12  C6  <0> d           1.175   1.783   0.000  0.00  0.00    -0.082 A 
ATOM     13  H1  <0> d           0.002  -0.004   0.002  0.00  0.00     0.083 H 
ATOM     14  C5  <0> d           1.156   3.165   0.008  0.00  0.00    -0.070 A 
ATOM     15  H5  <0> d           2.118   1.256  -0.011  0.00  0.00     0.083 H 
ATOM     16  H4  <0> d           2.084   3.718   0.002  0.00  0.00     0.084 H 
ENDBRANCH   1   6
TORSDOF 1
