REMARK  1 active torsions:
REMARK  status: ('A' for Active; 'I' for Inactive)
REMARK    1  A    between atoms: C2_2  and  C4_6 
REMARK       I    between atoms: C4_6  and  N2_8 
ROOT
ATOM      1  C1  <0> d          -0.016   1.338   0.009  0.00  0.00     0.053 A 
ATOM      2  C2  <0> d           1.280   1.753  -0.001  0.00  0.00     0.148 A 
ATOM      3  N1  <0> d           2.057   0.636  -0.014  0.00  0.00    -0.229 NA
ATOM      4  C3  <0> d           1.281  -0.406  -0.012  0.00  0.00     0.103 A 
ATOM      5  O1  <0> d           0.002  -0.004   0.002  0.00  0.00    -0.314 OA
ATOM      6  H1  <0> d          -0.893   1.969   0.025  0.00  0.00     0.127 H 
ATOM      7  H2  <0> d           1.613  -1.433  -0.021  0.00  0.00     0.155 H 
ENDROOT
BRANCH   2   8
ATOM      8  C4  <0> d           1.753   3.149   0.002  0.00  0.00     0.270 C 
ATOM      9  O2  <0> d           0.951   4.063   0.013  0.00  0.00    -0.266 OA
ATOM     10  N2  <0> d           3.075   3.413  -0.010  0.00  0.00    -0.365 N 
ATOM     11  H3  <0> d           3.715   2.684  -0.019  0.00  0.00     0.159 HD
ATOM     12  H4  <0> d           3.386   4.331  -0.008  0.00  0.00     0.159 HD
ENDBRANCH   2   8
TORSDOF 1
