REMARK  4 active torsions:
REMARK  status: ('A' for Active; 'I' for Inactive)
REMARK    1  A    between atoms: C1_1  and  C2_2 
REMARK    2  A    between atoms: C5_5  and  C8_8 
REMARK    3  A    between atoms: C8_8  and  O2_10 
REMARK    4  A    between atoms: O2_10  and  C9_11 
ROOT
ATOM      1  C2  <0> d           0.002  -0.004   0.002  0.00  0.00    -0.062 A 
ATOM      2  C3  <0> d           0.006  -0.686  -1.202  0.00  0.00    -0.076 A 
ATOM      3  C4  <0> d           0.024  -2.065  -1.217  0.00  0.00    -0.067 A 
ATOM      4  C5  <0> d           0.040  -2.773  -0.013  0.00  0.00     0.039 A 
ATOM      5  C6  <0> d           0.036  -2.079   1.198  0.00  0.00    -0.067 A 
ATOM      6  C7  <0> d           0.023  -0.699   1.198  0.00  0.00    -0.076 A 
ATOM      7  H4  <0> d          -0.006  -0.137  -2.132  0.00  0.00     0.084 H 
ATOM      8  H5  <0> d           0.027  -2.596  -2.157  0.00  0.00     0.085 H 
ATOM      9  H6  <0> d           0.047  -2.620   2.132  0.00  0.00     0.085 H 
ATOM     10  H7  <0> d           0.024  -0.161   2.134  0.00  0.00     0.084 H 
ENDROOT
BRANCH   4  11
ATOM     11  C8  <0> d           0.059  -4.250  -0.021  0.00  0.00     0.292 C 
ATOM     12  O1  <0> d           0.062  -4.852  -1.077  0.00  0.00    -0.259 OA
BRANCH  11  13
ATOM     13  O2  <0> d           0.074  -4.930   1.141  0.00  0.00    -0.323 OA
BRANCH  13  14
ATOM     14  C9  <0> d           0.092  -6.357   1.059  0.00  0.00     0.013 C 
ATOM     15  H8  <0> d           0.984  -6.678   0.520  0.00  0.00     0.067 H 
ATOM     16  H9  <0> d           0.103  -6.779   2.064  0.00  0.00     0.067 H 
ATOM     17  H10 <0> d          -0.796  -6.701   0.529  0.00  0.00     0.067 H 
ENDBRANCH  13  14
ENDBRANCH  11  13
ENDBRANCH   4  11
BRANCH   1  18
ATOM     18  C1  <0> d          -0.018   1.503   0.010  0.00  0.00    -0.051 C 
ATOM     19  H1  <0> d           1.004   1.880   0.003  0.00  0.00     0.033 H 
ATOM     20  H2  <0> d          -0.545   1.864  -0.873  0.00  0.00     0.033 H 
ATOM     21  H3  <0> d          -0.529   1.854   0.907  0.00  0.00     0.033 H 
ENDBRANCH   1  18
TORSDOF 4
