REMARK  4 active torsions:
REMARK  status: ('A' for Active; 'I' for Inactive)
REMARK    1  A    between atoms: C1_1  and  C2_2 
REMARK    2  A    between atoms: C5_6  and  N1_7 
REMARK       I    between atoms: N1_7  and  C6_8 
REMARK    3  A    between atoms: C6_8  and  O3_10 
REMARK    4  A    between atoms: O3_10  and  C7_11 
ROOT
ATOM      1  C2  <0> d           0.002  -0.004   0.002  0.00  0.00    -0.009 A 
ATOM      2  C3  <0> d           0.009  -0.841  -1.137  0.00  0.00    -0.051 A 
ATOM      3  C4  <0> d           0.029  -2.109  -0.691  0.00  0.00     0.022 A 
ATOM      4  O1  <0> d           0.034  -2.090   0.654  0.00  0.00    -0.305 OA
ATOM      5  C5  <0> d           0.023  -0.817   1.084  0.00  0.00     0.157 A 
ATOM      6  H4  <0> d          -0.000  -0.522  -2.169  0.00  0.00     0.087 H 
ATOM      7  H5  <0> d           0.038  -2.995  -1.309  0.00  0.00     0.123 H 
ENDROOT
BRANCH   5   8
ATOM      8  N1  <0> d           0.030  -0.404   2.416  0.00  0.00    -0.282 N 
ATOM      9  C6  <0> d           0.052  -1.319   3.405  0.00  0.00     0.366 C 
ATOM     10  O2  <0> d           0.066  -2.504   3.136  0.00  0.00    -0.238 OA
ATOM     11  H6  <0> d           0.018   0.542   2.631  0.00  0.00     0.173 HD
BRANCH   9  12
ATOM     12  O3  <0> d           0.058  -0.920   4.691  0.00  0.00    -0.309 OA
BRANCH  12  13
ATOM     13  C7  <0> d           0.081  -1.944   5.688  0.00  0.00     0.015 C 
ATOM     14  H7  <0> d           0.084  -1.488   6.678  0.00  0.00     0.067 H 
ATOM     15  H8  <0> d          -0.801  -2.575   5.581  0.00  0.00     0.067 H 
ATOM     16  H9  <0> d           0.979  -2.550   5.565  0.00  0.00     0.067 H 
ENDBRANCH  12  13
ENDBRANCH   9  12
ENDBRANCH   5   8
BRANCH   1  17
ATOM     17  C1  <0> d          -0.018   1.503   0.010  0.00  0.00    -0.047 C 
ATOM     18  H1  <0> d           1.004   1.880   0.003  0.00  0.00     0.033 H 
ATOM     19  H2  <0> d          -0.545   1.864  -0.873  0.00  0.00     0.033 H 
ATOM     20  H3  <0> d          -0.529   1.854   0.907  0.00  0.00     0.033 H 
ENDBRANCH   1  17
TORSDOF 4
