REMARK  3 active torsions:
REMARK  status: ('A' for Active; 'I' for Inactive)
REMARK    1  A    between atoms: C1_1  and  C2_2 
REMARK    2  A    between atoms: C3_3  and  C4_4 
REMARK    3  A    between atoms: C4_4  and  C5_5 
ROOT
ATOM      1  C2  <0> d           0.002  -0.004   0.002  0.00  0.00    -0.085 C 
ATOM      2  C3  <0> d          -1.170  -0.702   0.009  0.00  0.00    -0.046 C 
ATOM      3  H3  <0> d           0.945  -0.531  -0.010  0.00  0.00     0.083 H 
ATOM      4  H4  <0> d          -2.113  -0.175   0.021  0.00  0.00     0.096 H 
ENDROOT
BRANCH   2   5
ATOM      5  C4  <0> d          -1.152  -2.009   0.002  0.00  0.00    -0.155 C 
BRANCH   5   6
ATOM      6  C5  <0> d          -1.135  -3.316  -0.005  0.00  0.00    -0.008 C 
ATOM      7  H5  <0> d          -1.136  -3.851  -0.943  0.00  0.00     0.052 H 
ATOM      8  H6  <0> d          -1.118  -3.861   0.927  0.00  0.00     0.052 H 
ENDBRANCH   5   6
ENDBRANCH   2   5
BRANCH   1   9
ATOM      9  C1  <0> d          -0.016   1.360   0.009  0.00  0.00    -0.121 C 
ATOM     10  H1  <0> d           0.911   1.913   0.004  0.00  0.00     0.066 H 
ATOM     11  H2  <0> d          -0.959   1.887   0.017  0.00  0.00     0.066 H 
ENDBRANCH   1   9
TORSDOF 3
