REMARK  1 active torsions:
REMARK  status: ('A' for Active; 'I' for Inactive)
REMARK    1  A    between atoms: C1_1  and  C2_2 
ROOT
ATOM      1  C2  <0> d           0.002  -0.004   0.002  0.00  0.00     0.102 A 
ATOM      2  C3  <0> d           0.026  -0.932   1.150  0.00  0.00     0.192 A 
ATOM      3  N1  <0> d           0.036  -2.111   0.564  0.00  0.00    -0.092 NA
ATOM      4  O1  <0> d           0.023  -1.959  -0.635  0.00  0.00    -0.105 OA
ATOM      5  N2  <0> d          -0.002  -0.814  -1.022  0.00  0.00    -0.107 NA
ATOM      6  C4  <0> d           0.034  -0.626   2.549  0.00  0.00     0.124 C 
ATOM      7  N3  <0> d           0.041  -0.384   3.659  0.00  0.00    -0.190 NA
ENDROOT
BRANCH   1   8
ATOM      8  C1  <0> d          -0.018   1.503   0.010  0.00  0.00    -0.030 C 
ATOM      9  H1  <0> d           1.004   1.880   0.003  0.00  0.00     0.035 H 
ATOM     10  H2  <0> d          -0.545   1.864  -0.873  0.00  0.00     0.035 H 
ATOM     11  H3  <0> d          -0.529   1.854   0.907  0.00  0.00     0.035 H 
ENDBRANCH   1   8
TORSDOF 1
