REMARK  4 active torsions:
REMARK  status: ('A' for Active; 'I' for Inactive)
REMARK    1  A    between atoms: C1_1  and  C2_2 
REMARK    2  A    between atoms: C2_2  and  N1_3 
REMARK    3  A    between atoms: C3_4  and  C5_8 
REMARK    4  A    between atoms: C5_8  and  O1_9 
ROOT
ATOM      1  N1  <0> d          -0.654   3.157   0.025  0.00  0.00    -0.253 N 
ATOM      2  C3  <0> d           0.690   3.119   0.012  0.00  0.00     0.147 A 
ATOM      3  N2  <0> d           1.061   1.865   0.002  0.00  0.00    -0.223 NA
ATOM      4  C4  <0> d          -0.013   1.076   0.008  0.00  0.00     0.108 A 
ATOM      5  N3  <0> d          -1.087   1.821   0.017  0.00  0.00    -0.164 NA
ATOM      6  H6  <0> d           0.002  -0.004   0.002  0.00  0.00     0.149 H 
ENDROOT
BRANCH   1   7
ATOM      7  C2  <0> d          -1.498   4.354   0.040  0.00  0.00     0.015 C 
ATOM      8  H4  <0> d          -2.430   4.134   0.561  0.00  0.00     0.066 H 
ATOM      9  H5  <0> d          -0.976   5.161   0.553  0.00  0.00     0.066 H 
BRANCH   7  10
ATOM     10  C1  <0> d          -1.806   4.778  -1.397  0.00  0.00    -0.059 C 
ATOM     11  H1  <0> d          -0.875   4.997  -1.919  0.00  0.00     0.029 H 
ATOM     12  H2  <0> d          -2.329   3.971  -1.911  0.00  0.00     0.029 H 
ATOM     13  H3  <0> d          -2.435   5.668  -1.387  0.00  0.00     0.029 H 
ENDBRANCH   7  10
ENDBRANCH   1   7
BRANCH   2  14
ATOM     14  C5  <0> d           1.609   4.314   0.009  0.00  0.00     0.072 C 
ATOM     15  H7  <0> d           1.130   5.142   0.532  0.00  0.00     0.086 H 
ATOM     16  H8  <0> d           2.541   4.057   0.513  0.00  0.00     0.086 H 
BRANCH  14  17
ATOM     17  O1  <0> d           1.886   4.698  -1.339  0.00  0.00    -0.393 OA
ATOM     18  H9  <0> d           2.473   5.463  -1.417  0.00  0.00     0.209 HD
ENDBRANCH  14  17
ENDBRANCH   2  14
TORSDOF 4
