REMARK  5 active torsions:
REMARK  status: ('A' for Active; 'I' for Inactive)
REMARK    1  A    between atoms: C1_1  and  C2_2 
REMARK    2  A    between atoms: C5_6  and  C8_12 
REMARK    3  A    between atoms: C6_8  and  O1_11 
REMARK    4  A    between atoms: C8_12  and  C9_14 
REMARK    5  A    between atoms: C8_12  and  C10_15 
ROOT
ATOM      1  C2  <0> d           4.314   1.145  -0.033  0.00  0.00    -0.055 C 
ATOM      2  H1  <0> d           5.293   1.523  -0.327  0.00  0.00     0.039 H 
ATOM      3  C3  <0> d           3.256   1.646  -1.018  0.00  0.00    -0.061 C 
ATOM      4  C4  <0> d           1.882   1.115  -0.605  0.00  0.00    -0.059 C 
ATOM      5  C5  <0> d           1.545   1.613   0.802  0.00  0.00    -0.026 C 
ATOM      6  H2  <0> d           1.530   2.703   0.808  0.00  0.00     0.044 H 
ATOM      7  C6  <0> d           2.603   1.111   1.787  0.00  0.00     0.040 C 
ATOM      8  H3  <0> d           2.363   1.466   2.789  0.00  0.00     0.083 H 
ATOM      9  C7  <0> d           3.977   1.643   1.374  0.00  0.00    -0.038 C 
ATOM     10  H8  <0> d           3.497   1.291  -2.021  0.00  0.00     0.033 H 
ATOM     11  H9  <0> d           3.242   2.736  -1.012  0.00  0.00     0.033 H 
ATOM     12  H10 <0> d           1.897   0.025  -0.611  0.00  0.00     0.033 H 
ATOM     13  H11 <0> d           1.129   1.472  -1.307  0.00  0.00     0.033 H 
ATOM     14  H12 <0> d           4.731   1.286   2.076  0.00  0.00     0.037 H 
ATOM     15  H13 <0> d           3.962   2.732   1.380  0.00  0.00     0.037 H 
ENDROOT
BRANCH   5  16
ATOM     16  C8  <0> d           0.171   1.082   1.215  0.00  0.00    -0.055 C 
ATOM     17  H4  <0> d           0.186  -0.008   1.209  0.00  0.00     0.039 H 
BRANCH  16  18
ATOM     18  C9  <0> d          -0.166   1.579   2.622  0.00  0.00    -0.073 C 
ATOM     19  H15 <0> d          -0.181   2.669   2.628  0.00  0.00     0.028 H 
ATOM     20  H16 <0> d          -1.145   1.201   2.916  0.00  0.00     0.028 H 
ATOM     21  H17 <0> d           0.588   1.222   3.324  0.00  0.00     0.028 H 
ENDBRANCH  16  18
BRANCH  16  22
ATOM     22  C10 <0> d          -0.887   1.583   0.230  0.00  0.00    -0.073 C 
ATOM     23  H18 <0> d          -0.647   1.228  -0.773  0.00  0.00     0.028 H 
ATOM     24  H19 <0> d          -1.866   1.204   0.524  0.00  0.00     0.028 H 
ATOM     25  H20 <0> d          -0.901   2.673   0.236  0.00  0.00     0.028 H 
ENDBRANCH  16  22
ENDBRANCH   5  16
BRANCH   7  26
ATOM     26  O1  <0> d           2.622  -0.317   1.779  0.00  0.00    -0.395 OA
ATOM     27  H14 <0> d           3.271  -0.705   2.382  0.00  0.00     0.210 HD
ENDBRANCH   7  26
BRANCH   1  28
ATOM     28  C1  <0> d           4.335  -0.385  -0.041  0.00  0.00    -0.073 C 
ATOM     29  H5  <0> d           4.765  -0.738  -0.979  0.00  0.00     0.028 H 
ATOM     30  H6  <0> d           4.937  -0.745   0.793  0.00  0.00     0.028 H 
ATOM     31  H7  <0> d           3.317  -0.763   0.056  0.00  0.00     0.028 H 
ENDBRANCH   1  28
TORSDOF 5
