REMARK  6 active torsions:
REMARK  status: ('A' for Active; 'I' for Inactive)
REMARK    1  A    between atoms: C1_1  and  C2_2 
REMARK    2  A    between atoms: C2_2  and  C3_3 
REMARK    3  A    between atoms: C3_3  and  C4_4 
REMARK    4  A    between atoms: C5_5  and  C6_6 
REMARK    5  A    between atoms: C7_7  and  C8_8 
REMARK    6  A    between atoms: C8_8  and  C9_10 
ROOT
ATOM      1  C4  <0> d           0.739  -2.004  -1.265  0.00  0.00    -0.095 C 
ATOM      2  C5  <0> d           0.249  -2.673  -2.313  0.00  0.00    -0.036 C 
ATOM      3  H8  <0> d           1.149  -2.543  -0.424  0.00  0.00     0.077 H 
ATOM      4  H9  <0> d          -0.162  -2.134  -3.154  0.00  0.00     0.097 H 
ENDROOT
BRANCH   1   5
ATOM      5  C3  <0> d           0.718  -0.497  -1.257  0.00  0.00    -0.050 C 
ATOM      6  H6  <0> d           0.191  -0.136  -2.140  0.00  0.00     0.038 H 
ATOM      7  H7  <0> d           1.741  -0.120  -1.264  0.00  0.00     0.038 H 
BRANCH   5   8
ATOM      8  C2  <0> d           0.002  -0.004   0.002  0.00  0.00    -0.066 C 
ATOM      9  H4  <0> d           0.529  -0.365   0.885  0.00  0.00     0.032 H 
ATOM     10  H5  <0> d          -1.020  -0.381   0.010  0.00  0.00     0.032 H 
BRANCH   8  11
ATOM     11  C1  <0> d          -0.019   1.526   0.010  0.00  0.00    -0.076 C 
ATOM     12  H1  <0> d           1.004   1.903   0.003  0.00  0.00     0.027 H 
ATOM     13  H2  <0> d          -0.546   1.887  -0.873  0.00  0.00     0.027 H 
ATOM     14  H3  <0> d          -0.529   1.877   0.907  0.00  0.00     0.027 H 
ENDBRANCH   8  11
ENDBRANCH   5   8
ENDBRANCH   1   5
BRANCH   2  15
ATOM     15  C6  <0> d           0.268  -4.105  -2.321  0.00  0.00    -0.070 C 
ATOM     16  C7  <0> d           0.284  -5.279  -2.327  0.00  0.00    -0.025 C 
BRANCH  16  17
ATOM     17  C8  <0> d           0.304  -6.711  -2.335  0.00  0.00     0.198 C 
ATOM     18  O1  <0> d          -0.142  -7.319  -3.287  0.00  0.00    -0.284 OA
BRANCH  17  19
ATOM     19  C9  <0> d           0.877  -7.463  -1.161  0.00  0.00    -0.010 C 
ATOM     20  H10 <0> d           0.088  -7.659  -0.435  0.00  0.00     0.039 H 
ATOM     21  H11 <0> d           1.297  -8.408  -1.506  0.00  0.00     0.039 H 
ATOM     22  H12 <0> d           1.660  -6.866  -0.694  0.00  0.00     0.039 H 
ENDBRANCH  17  19
ENDBRANCH  16  17
ENDBRANCH   2  15
TORSDOF 6
