REMARK  0 active torsions:
REMARK  status: ('A' for Active; 'I' for Inactive)
ROOT
ATOM      1  C1  <0> d          -0.018   1.516   0.010  0.00  0.00    -0.046 C 
ATOM      2  C2  <0> d           1.419   1.984  -0.001  0.00  0.00    -0.106 C 
ATOM      3  C3  <0> d           2.435   1.246   0.327  0.00  0.00    -0.105 C 
ATOM      4  C4  <0> d           2.328  -0.189   0.792  0.00  0.00    -0.043 C 
ATOM      5  C5  <0> d           0.892  -0.418   1.217  0.00  0.00    -0.031 C 
ATOM      6  H1  <0> d           0.657   0.208   2.078  0.00  0.00     0.046 H 
ATOM      7  C6  <0> d           0.002  -0.004   0.002  0.00  0.00    -0.041 C 
ATOM      8  H2  <0> d           0.377  -0.400  -0.942  0.00  0.00     0.041 H 
ATOM      9  C7  <0> d          -1.302  -0.685   0.451  0.00  0.00    -0.046 C 
ATOM     10  C8  <0> d          -0.784  -1.984   1.064  0.00  0.00    -0.105 C 
ATOM     11  C9  <0> d           0.463  -1.825   1.483  0.00  0.00    -0.102 C 
ATOM     12  H3  <0> d          -0.519   1.875   0.910  0.00  0.00     0.039 H 
ATOM     13  H4  <0> d          -0.536   1.884  -0.875  0.00  0.00     0.039 H 
ATOM     14  H5  <0> d           1.613   3.003  -0.303  0.00  0.00     0.076 H 
ATOM     15  H6  <0> d           3.420   1.685   0.264  0.00  0.00     0.076 H 
ATOM     16  H7  <0> d           2.586  -0.864  -0.024  0.00  0.00     0.039 H 
ATOM     17  H8  <0> d           2.996  -0.356   1.638  0.00  0.00     0.039 H 
ATOM     18  H9  <0> d          -1.820  -0.081   1.196  0.00  0.00     0.039 H 
ATOM     19  H10 <0> d          -1.949  -0.887  -0.403  0.00  0.00     0.039 H 
ATOM     20  H11 <0> d          -1.353  -2.898   1.147  0.00  0.00     0.076 H 
ATOM     21  H12 <0> d           1.073  -2.590   1.941  0.00  0.00     0.076 H 
ENDROOT
TORSDOF 0
