REMARK  4 active torsions:
REMARK  status: ('A' for Active; 'I' for Inactive)
REMARK    1  A    between atoms: C3_3  and  C6_7 
REMARK    2  A    between atoms: C3_3  and  C7_9 
REMARK    3  A    between atoms: C6_7  and  O2_8 
REMARK    4  A    between atoms: C7_9  and  O3_10 
ROOT
ATOM      1  C1  <0> d          -0.013   1.086   0.008  0.00  0.00    -0.045 C 
ATOM      2  C2  <0> d          -0.730   1.580   1.269  0.00  0.00    -0.029 C 
ATOM      3  C3  <0> d          -2.234   1.322   1.095  0.00  0.00     0.109 C 
ATOM      4  O1  <0> d          -2.694   2.085  -0.023  0.00  0.00    -0.348 OA
ATOM      5  C4  <0> d          -1.969   2.027  -1.163  0.00  0.00     0.010 C 
ATOM      6  C5  <0> d          -0.741   1.584  -1.211  0.00  0.00    -0.082 C 
ATOM      7  H1  <0> d           0.002  -0.004   0.002  0.00  0.00     0.039 H 
ATOM      8  H2  <0> d           1.010   1.463   0.000  0.00  0.00     0.039 H 
ATOM      9  H3  <0> d          -0.361   1.037   2.139  0.00  0.00     0.038 H 
ATOM     10  H4  <0> d          -0.553   2.648   1.398  0.00  0.00     0.038 H 
ATOM     11  H5  <0> d          -2.430   2.362  -2.080  0.00  0.00     0.122 H 
ATOM     12  H6  <0> d          -0.228   1.577  -2.161  0.00  0.00     0.079 H 
ENDROOT
BRANCH   3  13
ATOM     13  C6  <0> d          -2.981   1.755   2.358  0.00  0.00     0.048 C 
ATOM     14  H7  <0> d          -2.566   1.235   3.222  0.00  0.00     0.078 H 
ATOM     15  H8  <0> d          -2.870   2.831   2.495  0.00  0.00     0.078 H 
BRANCH  13  16
ATOM     16  O2  <0> d          -4.366   1.431   2.227  0.00  0.00    -0.398 OA
ATOM     17  H9  <0> d          -4.902   1.678   2.993  0.00  0.00     0.209 HD
ENDBRANCH  13  16
ENDBRANCH   3  13
BRANCH   3  18
ATOM     18  C7  <0> d          -2.476  -0.167   0.838  0.00  0.00     0.048 C 
ATOM     19  H10 <0> d          -1.934  -0.474  -0.056  0.00  0.00     0.078 H 
ATOM     20  H11 <0> d          -2.124  -0.745   1.693  0.00  0.00     0.078 H 
BRANCH  18  21
ATOM     21  O3  <0> d          -3.873  -0.397   0.650  0.00  0.00    -0.398 OA
ATOM     22  H12 <0> d          -4.101  -1.322   0.482  0.00  0.00     0.209 HD
ENDBRANCH  18  21
ENDBRANCH   3  18
TORSDOF 4
