REMARK  4 active torsions:
REMARK  status: ('A' for Active; 'I' for Inactive)
REMARK    1  A    between atoms: C1_1  and  C2_2 
REMARK    2  A    between atoms: C3_3  and  C6_8 
REMARK    3  A    between atoms: C4_5  and  C5_7 
REMARK    4  A    between atoms: C6_8  and  O2_9 
ROOT
ATOM      1  C2  <0> d           0.002  -0.004   0.002  0.00  0.00     0.065 A 
ATOM      2  C3  <0> d           0.008  -0.791  -1.087  0.00  0.00     0.102 A 
ATOM      3  O1  <0> d           0.027  -2.067  -0.654  0.00  0.00    -0.296 OA
ATOM      4  C4  <0> d           0.033  -2.044   0.685  0.00  0.00     0.142 A 
ATOM      5  N1  <0> d           0.024  -0.803   1.083  0.00  0.00    -0.231 NA
ENDROOT
BRANCH   2   6
ATOM      6  C6  <0> d          -0.005  -0.333  -2.522  0.00  0.00     0.063 C 
ATOM      7  H7  <0> d          -0.512  -1.077  -3.137  0.00  0.00     0.084 H 
ATOM      8  H8  <0> d          -0.533   0.619  -2.595  0.00  0.00     0.084 H 
BRANCH   6   9
ATOM      9  O2  <0> d           1.338  -0.169  -2.982  0.00  0.00    -0.394 OA
ATOM     10  H9  <0> d           1.406   0.125  -3.901  0.00  0.00     0.209 HD
ENDBRANCH   6   9
ENDBRANCH   2   6
BRANCH   1  11
ATOM     11  C1  <0> d          -0.018   1.503   0.010  0.00  0.00    -0.033 C 
ATOM     12  H1  <0> d           1.004   1.880   0.003  0.00  0.00     0.035 H 
ATOM     13  H2  <0> d          -0.545   1.864  -0.873  0.00  0.00     0.035 H 
ATOM     14  H3  <0> d          -0.529   1.854   0.907  0.00  0.00     0.035 H 
ENDBRANCH   1  11
BRANCH   4  15
ATOM     15  C5  <0> d           0.053  -3.253   1.584  0.00  0.00    -0.015 C 
ATOM     16  H4  <0> d           1.085  -3.531   1.796  0.00  0.00     0.038 H 
ATOM     17  H5  <0> d          -0.460  -3.021   2.518  0.00  0.00     0.038 H 
ATOM     18  H6  <0> d          -0.452  -4.082   1.089  0.00  0.00     0.038 H 
ENDBRANCH   4  15
TORSDOF 4
