REMARK  4 active torsions:
REMARK  status: ('A' for Active; 'I' for Inactive)
REMARK    1  A    between atoms: C1_1  and  C2_2 
REMARK    2  A    between atoms: N4_6  and  C3_7 
REMARK    3  A    between atoms: C3_7  and  C4_8 
REMARK    4  A    between atoms: C4_8  and  C5_9 
ROOT
ATOM      1  C2  <0> d          -1.686   0.923   1.872  0.00  0.00     0.144 A 
ATOM      2  N1  <0> d          -2.012   1.687   2.887  0.00  0.00    -0.114 NA
ATOM      3  N2  <0> d          -1.264   2.735   2.853  0.00  0.00    -0.023 NA
ATOM      4  N3  <0> d          -0.466   2.658   1.846  0.00  0.00    -0.044 NA
ATOM      5  N4  <0> d          -0.698   1.558   1.213  0.00  0.00    -0.234 N 
ENDROOT
BRANCH   5   6
ATOM      6  C3  <0> d          -0.013   1.086   0.008  0.00  0.00     0.029 C 
ATOM      7  H4  <0> d           0.002  -0.004   0.002  0.00  0.00     0.068 H 
ATOM      8  H5  <0> d           1.010   1.463   0.000  0.00  0.00     0.068 H 
BRANCH   6   9
ATOM      9  C4  <0> d          -0.753   1.593  -1.232  0.00  0.00     0.032 C 
ATOM     10  H6  <0> d          -1.775   1.215  -1.224  0.00  0.00     0.051 H 
ATOM     11  H7  <0> d          -0.767   2.683  -1.226  0.00  0.00     0.051 H 
BRANCH   9  12
ATOM     12  C5  <0> d          -0.047   1.107  -2.471  0.00  0.00     0.174 C 
ATOM     13  O1  <0> d           0.945   0.425  -2.374  0.00  0.00    -0.648 OA
ATOM     14  O2  <0> d          -0.522   1.431  -3.684  0.00  0.00    -0.648 OA
ENDBRANCH   9  12
ENDBRANCH   6   9
ENDBRANCH   5   6
BRANCH   1  15
ATOM     15  C1  <0> d          -2.296  -0.407   1.514  0.00  0.00    -0.018 C 
ATOM     16  H1  <0> d          -1.747  -1.205   2.012  0.00  0.00     0.038 H 
ATOM     17  H2  <0> d          -3.338  -0.427   1.835  0.00  0.00     0.038 H 
ATOM     18  H3  <0> d          -2.247  -0.550   0.434  0.00  0.00     0.038 H 
ENDBRANCH   1  15
TORSDOF 4
