REMARK  3 active torsions:
REMARK  status: ('A' for Active; 'I' for Inactive)
REMARK    1  A    between atoms: C1_1  and  C2_2 
REMARK    2  A    between atoms: C5_5  and  C6_7 
REMARK    3  A    between atoms: C6_7  and  C7_9 
ROOT
ATOM      1  C2  <0> d           2.352   0.161  -0.019  0.00  0.00    -0.021 A 
ATOM      2  C3  <0> d           1.231  -0.610  -0.013  0.00  0.00    -0.069 A 
ATOM      3  C4  <0> d           0.002  -0.004   0.002  0.00  0.00    -0.062 A 
ATOM      4  C5  <0> d          -0.017   1.387   0.010  0.00  0.00     0.050 A 
ATOM      5  S1  <0> d           1.724   1.777  -0.005  0.00  0.00    -0.092 SA
ATOM      6  H4  <0> d           1.308  -1.687  -0.019  0.00  0.00     0.085 H 
ATOM      7  H5  <0> d          -0.911  -0.581   0.008  0.00  0.00     0.085 H 
ENDROOT
BRANCH   4   8
ATOM      8  C6  <0> d          -1.125   2.263   0.020  0.00  0.00     0.162 C 
ATOM      9  O1  <0> d          -2.253   1.814   0.023  0.00  0.00    -0.292 OA
BRANCH   8  10
ATOM     10  C7  <0> d          -0.907   3.754   0.027  0.00  0.00    -0.016 C 
ATOM     11  H6  <0> d           0.074   3.947   0.023  0.00  0.00     0.038 H 
ATOM     12  H7  <0> d          -1.368   4.192  -0.858  0.00  0.00     0.038 H 
ATOM     13  H8  <0> d          -1.359   4.183   0.922  0.00  0.00     0.038 H 
ENDBRANCH   8  10
ENDBRANCH   4   8
BRANCH   1  14
ATOM     14  C1  <0> d           3.792  -0.283  -0.035  0.00  0.00    -0.045 C 
ATOM     15  H1  <0> d           4.130  -0.385  -1.067  0.00  0.00     0.034 H 
ATOM     16  H2  <0> d           4.407   0.458   0.477  0.00  0.00     0.034 H 
ATOM     17  H3  <0> d           3.882  -1.243   0.473  0.00  0.00     0.034 H 
ENDBRANCH   1  14
TORSDOF 3
