REMARK  8 active torsions:
REMARK  status: ('A' for Active; 'I' for Inactive)
REMARK    1  A    between atoms: C1_1  and  C2_2 
REMARK    2  A    between atoms: C2_2  and  O1_3 
REMARK    3  A    between atoms: O1_3  and  C3_4 
REMARK    4  A    between atoms: C3_4  and  N1_5 
REMARK       I    between atoms: N1_5  and  C4_6 
REMARK    5  A    between atoms: C4_6  and  C5_8 
REMARK    6  A    between atoms: C5_8  and  C6_9 
REMARK    7  A    between atoms: C6_9  and  C7_10 
REMARK    8  A    between atoms: C6_9  and  C8_11 
ROOT
ATOM      1  N1  <0> d           3.455   1.358  -1.389  0.00  0.00    -0.340 N 
ATOM      2  C4  <0> d           2.165   1.031  -1.177  0.00  0.00     0.219 C 
ATOM      3  O2  <0> d           1.601   0.266  -1.931  0.00  0.00    -0.274 OA
ATOM      4  H8  <0> d           3.906   1.970  -0.786  0.00  0.00     0.164 HD
ENDROOT
BRANCH   2   5
ATOM      5  C5  <0> d           1.423   1.615  -0.003  0.00  0.00     0.012 C 
ATOM      6  H9  <0> d           1.408   2.702  -0.086  0.00  0.00     0.047 H 
ATOM      7  H10 <0> d           1.923   1.329   0.922  0.00  0.00     0.047 H 
BRANCH   5   8
ATOM      8  C6  <0> d          -0.013   1.086   0.008  0.00  0.00    -0.053 C 
ATOM      9  H11 <0> d           0.002  -0.004   0.002  0.00  0.00     0.039 H 
BRANCH   8  10
ATOM     10  C7  <0> d          -0.753   1.593  -1.232  0.00  0.00    -0.073 C 
ATOM     11  H12 <0> d          -0.767   2.683  -1.226  0.00  0.00     0.028 H 
ATOM     12  H13 <0> d          -0.242   1.241  -2.128  0.00  0.00     0.028 H 
ATOM     13  H14 <0> d          -1.775   1.215  -1.224  0.00  0.00     0.028 H 
ENDBRANCH   8  10
BRANCH   8  14
ATOM     14  C8  <0> d          -0.729   1.579   1.267  0.00  0.00    -0.073 C 
ATOM     15  H15 <0> d          -0.744   2.669   1.273  0.00  0.00     0.028 H 
ATOM     16  H16 <0> d          -1.751   1.202   1.275  0.00  0.00     0.028 H 
ATOM     17  H17 <0> d          -0.202   1.218   2.150  0.00  0.00     0.028 H 
ENDBRANCH   8  14
ENDBRANCH   5   8
ENDBRANCH   2   5
BRANCH   1  18
ATOM     18  C3  <0> d           4.176   0.790  -2.531  0.00  0.00     0.079 C 
ATOM     19  H6  <0> d           5.217   0.619  -2.254  0.00  0.00     0.107 H 
ATOM     20  H7  <0> d           3.716  -0.156  -2.817  0.00  0.00     0.107 H 
BRANCH  18  21
ATOM     21  O1  <0> d           4.120   1.700  -3.631  0.00  0.00    -0.372 OA
BRANCH  21  22
ATOM     22  C2  <0> d           5.059   2.774  -3.546  0.00  0.00     0.018 C 
ATOM     23  H4  <0> d           4.870   3.351  -2.641  0.00  0.00     0.073 H 
ATOM     24  H5  <0> d           6.071   2.370  -3.515  0.00  0.00     0.073 H 
BRANCH  22  25
ATOM     25  C1  <0> d           4.909   3.680  -4.770  0.00  0.00    -0.056 C 
ATOM     26  H1  <0> d           5.625   4.499  -4.705  0.00  0.00     0.030 H 
ATOM     27  H2  <0> d           5.098   3.103  -5.675  0.00  0.00     0.030 H 
ATOM     28  H3  <0> d           3.897   4.084  -4.801  0.00  0.00     0.030 H 
ENDBRANCH  22  25
ENDBRANCH  21  22
ENDBRANCH  18  21
ENDBRANCH   1  18
TORSDOF 8
