REMARK  7 active torsions:
REMARK  status: ('A' for Active; 'I' for Inactive)
REMARK    1  A    between atoms: C1_1  and  C2_2 
REMARK    2  A    between atoms: C1_1  and  O4_10 
REMARK    3  A    between atoms: C2_2  and  C3_4 
REMARK    4  A    between atoms: C2_2  and  O3_9 
REMARK    5  A    between atoms: C3_4  and  C4_6 
REMARK    6  A    between atoms: C3_4  and  O2_8 
REMARK    7  A    between atoms: C4_6  and  O1_7 
ROOT
ATOM      1  C2  <0> d          -0.019   1.526   0.010  0.00  0.00     0.082 C 
ATOM      2  H1  <0> d           1.004   1.903   0.003  0.00  0.00     0.090 H 
ENDROOT
BRANCH   1   3
ATOM      3  C1  <0> d          -0.759   2.033  -1.229  0.00  0.00     0.043 C 
ATOM      4  H3  <0> d          -0.302   1.609  -2.123  0.00  0.00     0.078 H 
ATOM      5  H4  <0> d          -1.804   1.730  -1.177  0.00  0.00     0.078 H 
BRANCH   3   6
ATOM      6  O4  <0> d          -0.678   3.458  -1.282  0.00  0.00    -0.398 OA
ATOM      7  H10 <0> d          -1.126   3.849  -2.045  0.00  0.00     0.209 HD
ENDBRANCH   3   6
ENDBRANCH   1   3
BRANCH   1   8
ATOM      8  C3  <0> d           0.002  -0.004   0.002  0.00  0.00     0.082 C 
ATOM      9  H2  <0> d           0.588  -0.355  -0.847  0.00  0.00     0.090 H 
BRANCH   8  10
ATOM     10  C4  <0> d           0.631  -0.513   1.301  0.00  0.00     0.043 C 
ATOM     11  H5  <0> d           1.617  -0.065   1.427  0.00  0.00     0.078 H 
ATOM     12  H6  <0> d          -0.003  -0.238   2.144  0.00  0.00     0.078 H 
BRANCH  10  13
ATOM     13  O1  <0> d           0.757  -1.935   1.244  0.00  0.00    -0.398 OA
ATOM     14  H7  <0> d           1.149  -2.327   2.036  0.00  0.00     0.209 HD
ENDBRANCH  10  13
ENDBRANCH   8  10
BRANCH   8  15
ATOM     15  O2  <0> d          -1.335  -0.498  -0.105  0.00  0.00    -0.391 OA
ATOM     16  H8  <0> d          -1.914  -0.225   0.619  0.00  0.00     0.210 HD
ENDBRANCH   8  15
ENDBRANCH   1   8
BRANCH   1  17
ATOM     17  O3  <0> d          -0.688   1.987   1.186  0.00  0.00    -0.391 OA
ATOM     18  H9  <0> d          -1.605   1.688   1.259  0.00  0.00     0.210 HD
ENDBRANCH   1  17
TORSDOF 7
