REMARK  2 active torsions:
REMARK  status: ('A' for Active; 'I' for Inactive)
REMARK    1  A    between atoms: C9_9  and  C10_11 
REMARK    2  A    between atoms: C10_11  and  O1_12 
ROOT
ATOM      1  C1  <0> d          -2.673   4.958   0.741  0.00  0.00    -0.082 A 
ATOM      2  C2  <0> d          -2.684   4.965  -0.642  0.00  0.00    -0.082 A 
ATOM      3  C3  <0> d          -2.107   3.924  -1.341  0.00  0.00    -0.076 A 
ATOM      4  C4  <0> d          -1.516   2.871  -0.662  0.00  0.00    -0.046 A 
ATOM      5  C5  <0> d          -1.505   2.864   0.720  0.00  0.00    -0.051 A 
ATOM      6  C6  <0> d          -2.085   3.909   1.420  0.00  0.00    -0.076 A 
ATOM      7  C7  <0> d          -0.803   1.617   1.223  0.00  0.00    -0.040 C 
ATOM      8  C8  <0> d          -0.013   1.086   0.008  0.00  0.00    -0.052 C 
ATOM      9  C9  <0> d          -0.826   1.630  -1.186  0.00  0.00    -0.007 C 
ATOM     10  H1  <0> d          -1.563   0.895  -1.508  0.00  0.00     0.050 H 
ATOM     11  H2  <0> d          -3.125   5.772   1.289  0.00  0.00     0.083 H 
ATOM     12  H3  <0> d          -3.144   5.785  -1.174  0.00  0.00     0.083 H 
ATOM     13  H4  <0> d          -2.115   3.931  -2.421  0.00  0.00     0.084 H 
ATOM     14  H5  <0> d          -2.077   3.904   2.500  0.00  0.00     0.084 H 
ATOM     15  H6  <0> d          -1.534   0.878   1.551  0.00  0.00     0.040 H 
ATOM     16  H7  <0> d          -0.122   1.865   2.038  0.00  0.00     0.040 H 
ATOM     17  H8  <0> d           0.002  -0.004   0.002  0.00  0.00     0.034 H 
ATOM     18  H9  <0> d           1.001   1.486   0.001  0.00  0.00     0.034 H 
ENDROOT
BRANCH   9  19
ATOM     19  C10 <0> d           0.107   1.988  -2.345  0.00  0.00     0.024 C 
ATOM     20  H10 <0> d           0.756   2.811  -2.047  0.00  0.00     0.075 H 
ATOM     21  H11 <0> d           0.715   1.121  -2.602  0.00  0.00     0.075 H 
BRANCH  19  22
ATOM     22  O1  <0> d          -0.670   2.378  -3.478  0.00  0.00    -0.400 OA
ATOM     23  H12 <0> d          -0.143   2.620  -4.252  0.00  0.00     0.209 HD
ENDBRANCH  19  22
ENDBRANCH   9  19
TORSDOF 2
