REMARK  3 active torsions:
REMARK  status: ('A' for Active; 'I' for Inactive)
REMARK    1  A    between atoms: C5_6  and  C6_7 
REMARK    2  A    between atoms: C6_7  and  C7_8 
REMARK    3  A    between atoms: C7_8  and  O1_9 
ROOT
ATOM      1  C1  <0> d          -0.017   1.383   0.010  0.00  0.00    -0.060 A 
ATOM      2  C2  <0> d           1.180   2.073   0.002  0.00  0.00     0.004 A 
ATOM      3  N1  <0> d           2.331   1.429  -0.013  0.00  0.00    -0.249 NA
ATOM      4  C3  <0> d           2.388   0.110  -0.020  0.00  0.00     0.126 A 
ATOM      5  C4  <0> d           1.230  -0.647  -0.014  0.00  0.00    -0.038 A 
ATOM      6  C5  <0> d           0.002  -0.004   0.002  0.00  0.00    -0.052 A 
ATOM      7 Cl1  <0> d           3.932  -0.683  -0.039  0.00  0.00    -0.062 Cl
ATOM      8  H1  <0> d          -0.955   1.916   0.026  0.00  0.00     0.086 H 
ATOM      9  H2  <0> d           1.174   3.153   0.007  0.00  0.00     0.114 H 
ATOM     10  H3  <0> d           1.282  -1.726  -0.021  0.00  0.00     0.089 H 
ENDROOT
BRANCH   6  11
ATOM     11  C6  <0> d          -1.282  -0.793   0.011  0.00  0.00    -0.021 C 
ATOM     12  H4  <0> d          -1.121  -1.744   0.518  0.00  0.00     0.043 H 
ATOM     13  H5  <0> d          -2.052  -0.228   0.535  0.00  0.00     0.043 H 
BRANCH  11  14
ATOM     14  C7  <0> d          -1.731  -1.052  -1.429  0.00  0.00     0.020 C 
ATOM     15  H6  <0> d          -1.892  -0.101  -1.936  0.00  0.00     0.074 H 
ATOM     16  H7  <0> d          -0.961  -1.617  -1.954  0.00  0.00     0.074 H 
BRANCH  14  17
ATOM     17  O1  <0> d          -2.948  -1.800  -1.421  0.00  0.00    -0.401 OA
ATOM     18  H8  <0> d          -3.292  -2.001  -2.302  0.00  0.00     0.209 HD
ENDBRANCH  14  17
ENDBRANCH  11  14
ENDBRANCH   6  11
TORSDOF 3
