REMARK  1 active torsions:
REMARK  status: ('A' for Active; 'I' for Inactive)
REMARK    1  A    between atoms: C8_9  and  O1_11 
ROOT
ATOM      1  C1  <0> d          -0.017   1.387   0.010  0.00  0.00    -0.080 A 
ATOM      2  C2  <0> d           1.141   2.107   0.003  0.00  0.00    -0.072 A 
ATOM      3  C3  <0> d           2.374   1.442  -0.013  0.00  0.00    -0.020 A 
ATOM      4  C4  <0> d           3.599   2.135  -0.020  0.00  0.00    -0.055 A 
ATOM      5  C5  <0> d           4.755   1.416  -0.035  0.00  0.00     0.003 A 
ATOM      6  N1  <0> d           4.756   0.090  -0.042  0.00  0.00    -0.272 NA
ATOM      7  C6  <0> d           3.652  -0.621  -0.036  0.00  0.00     0.015 A 
ATOM      8  C7  <0> d           2.406   0.023  -0.021  0.00  0.00     0.025 A 
ATOM      9  C8  <0> d           1.194  -0.695  -0.014  0.00  0.00     0.078 A 
ATOM     10  C9  <0> d           0.002  -0.004   0.002  0.00  0.00    -0.050 A 
ATOM     11  H1  <0> d          -0.964   1.905   0.026  0.00  0.00     0.083 H 
ATOM     12  H2  <0> d           1.107   3.187   0.008  0.00  0.00     0.084 H 
ATOM     13  H3  <0> d           3.621   3.215  -0.015  0.00  0.00     0.087 H 
ATOM     14  H4  <0> d           5.699   1.942  -0.040  0.00  0.00     0.114 H 
ATOM     15  H5  <0> d           3.703  -1.699  -0.043  0.00  0.00     0.116 H 
ATOM     16  H6  <0> d          -0.930  -0.550   0.008  0.00  0.00     0.087 H 
ENDROOT
BRANCH   9  17
ATOM     17  O1  <0> d           1.201  -2.052  -0.022  0.00  0.00    -0.360 OA
ATOM     18  H7  <0> d           1.210  -2.450   0.860  0.00  0.00     0.217 HD
ENDBRANCH   9  17
TORSDOF 1
