REMARK  3 active torsions:
REMARK  status: ('A' for Active; 'I' for Inactive)
REMARK    1  A    between atoms: C1_1  and  C2_2 
REMARK    2  A    between atoms: C3_3  and  C7_9 
REMARK    3  A    between atoms: C7_9  and  O1_10 
ROOT
ATOM      1  C2  <0> d           2.269   3.868   0.001  0.00  0.00     0.042 A 
ATOM      2  C3  <0> d           1.147   3.062   0.008  0.00  0.00    -0.010 A 
ATOM      3  C4  <0> d          -0.109   3.650   0.017  0.00  0.00    -0.069 A 
ATOM      4  C5  <0> d          -0.191   5.033   0.032  0.00  0.00    -0.026 A 
ATOM      5  C6  <0> d           0.978   5.778   0.024  0.00  0.00     0.210 A 
ATOM      6  N1  <0> d           2.156   5.183   0.010  0.00  0.00    -0.225 NA
ATOM      7  F1  <0> d           0.910   7.127   0.033  0.00  0.00    -0.184 F 
ATOM      8  H4  <0> d          -1.003   3.044   0.018  0.00  0.00     0.084 H 
ATOM      9  H5  <0> d          -1.152   5.525   0.044  0.00  0.00     0.090 H 
ENDROOT
BRANCH   2  10
ATOM     10  C7  <0> d           1.286   1.562  -0.002  0.00  0.00     0.042 C 
ATOM     11  H6  <0> d           1.840   1.243   0.881  0.00  0.00     0.081 H 
ATOM     12  H7  <0> d           1.823   1.252  -0.899  0.00  0.00     0.081 H 
BRANCH  10  13
ATOM     13  O1  <0> d          -0.011   0.963   0.007  0.00  0.00    -0.396 OA
ATOM     14  H8  <0> d           0.002  -0.004   0.002  0.00  0.00     0.209 HD
ENDBRANCH  10  13
ENDBRANCH   2  10
BRANCH   1  15
ATOM     15  C1  <0> d           3.638   3.239  -0.015  0.00  0.00    -0.035 C 
ATOM     16  H1  <0> d           3.958   3.092  -1.047  0.00  0.00     0.035 H 
ATOM     17  H2  <0> d           4.345   3.893   0.495  0.00  0.00     0.035 H 
ATOM     18  H3  <0> d           3.601   2.276   0.494  0.00  0.00     0.035 H 
ENDBRANCH   1  15
TORSDOF 3
