REMARK  4 active torsions:
REMARK  status: ('A' for Active; 'I' for Inactive)
REMARK    1  A    between atoms: C1_1  and  C2_2 
REMARK    2  A    between atoms: C2_2  and  C3_3 
REMARK    3  A    between atoms: C3_3  and  C4_4 
REMARK    4  A    between atoms: C9_9  and  N1_10 
ROOT
ATOM      1  C4  <0> d           0.762  -2.018   1.233  0.00  0.00    -0.032 A 
ATOM      2  C5  <0> d          -0.198  -2.726   1.929  0.00  0.00    -0.075 A 
ATOM      3  C6  <0> d          -0.182  -4.109   1.918  0.00  0.00    -0.082 A 
ATOM      4  C7  <0> d           0.800  -4.787   1.220  0.00  0.00    -0.081 A 
ATOM      5  C8  <0> d           1.766  -4.085   0.526  0.00  0.00    -0.057 A 
ATOM      6  C9  <0> d           1.750  -2.696   0.530  0.00  0.00     0.032 A 
ATOM      7  H8  <0> d          -0.963  -2.199   2.480  0.00  0.00     0.084 H 
ATOM      8  H9  <0> d          -0.936  -4.660   2.460  0.00  0.00     0.083 H 
ATOM      9  H10 <0> d           0.811  -5.867   1.217  0.00  0.00     0.083 H 
ATOM     10  H11 <0> d           2.532  -4.615  -0.019  0.00  0.00     0.086 H 
ENDROOT
BRANCH   1  11
ATOM     11  C3  <0> d           0.742  -0.511   1.242  0.00  0.00    -0.039 C 
ATOM     12  H6  <0> d           1.765  -0.134   1.234  0.00  0.00     0.040 H 
ATOM     13  H7  <0> d           0.232  -0.159   2.138  0.00  0.00     0.040 H 
BRANCH  11  14
ATOM     14  C2  <0> d           0.002  -0.004   0.002  0.00  0.00    -0.065 C 
ATOM     15  H4  <0> d          -1.020  -0.381   0.010  0.00  0.00     0.032 H 
ATOM     16  H5  <0> d           0.512  -0.356  -0.895  0.00  0.00     0.032 H 
BRANCH  14  17
ATOM     17  C1  <0> d          -0.019   1.526   0.010  0.00  0.00    -0.076 C 
ATOM     18  H1  <0> d           1.004   1.903   0.003  0.00  0.00     0.027 H 
ATOM     19  H2  <0> d          -0.546   1.887  -0.873  0.00  0.00     0.027 H 
ATOM     20  H3  <0> d          -0.529   1.877   0.907  0.00  0.00     0.027 H 
ENDBRANCH  14  17
ENDBRANCH  11  14
ENDBRANCH   1  11
BRANCH   6  21
ATOM     21  N1  <0> d           2.726  -1.983  -0.170  0.00  0.00    -0.399 N 
ATOM     22  H12 <0> d           2.714  -1.013  -0.165  0.00  0.00     0.156 HD
ATOM     23  H13 <0> d           3.415  -2.457  -0.660  0.00  0.00     0.156 HD
ENDBRANCH   6  21
TORSDOF 4
