REMARK  1 active torsions:
REMARK  status: ('A' for Active; 'I' for Inactive)
REMARK    1  A    between atoms: C1_1  and  C2_2 
ROOT
ATOM      1  C2  <0> d           0.002  -0.004   0.002  0.00  0.00    -0.054 A 
ATOM      2  C3  <0> d          -1.168  -0.704   0.004  0.00  0.00    -0.029 A 
ATOM      3  C4  <0> d          -1.129  -2.109  -0.005  0.00  0.00     0.179 A 
ATOM      4  N1  <0> d          -2.064  -3.050  -0.005  0.00  0.00    -0.109 NA
ATOM      5  N2  <0> d          -1.521  -4.215  -0.014  0.00  0.00    -0.022 NA
ATOM      6  N3  <0> d          -0.235  -4.121  -0.020  0.00  0.00    -0.037 NA
ATOM      7  N4  <0> d           0.077  -2.755  -0.014  0.00  0.00    -0.169 N 
ATOM      8  C5  <0> d           1.242  -2.050  -0.017  0.00  0.00     0.205 A 
ATOM      9  C6  <0> d           1.222  -0.690  -0.013  0.00  0.00    -0.023 A 
ATOM     10  O1  <0> d           2.427  -2.707  -0.026  0.00  0.00    -0.170 OA
ATOM     11  H4  <0> d          -2.115  -0.184   0.012  0.00  0.00     0.090 H 
ATOM     12  H5  <0> d           2.150  -0.138  -0.019  0.00  0.00     0.091 H 
ENDROOT
BRANCH   1  13
ATOM     13  C1  <0> d          -0.018   1.503   0.010  0.00  0.00    -0.051 C 
ATOM     14  H1  <0> d           1.004   1.880   0.003  0.00  0.00     0.033 H 
ATOM     15  H2  <0> d          -0.545   1.864  -0.873  0.00  0.00     0.033 H 
ATOM     16  H3  <0> d          -0.529   1.854   0.907  0.00  0.00     0.033 H 
ENDBRANCH   1  13
TORSDOF 1
