REMARK  1 active torsions:
REMARK  status: ('A' for Active; 'I' for Inactive)
REMARK    1  A    between atoms: C3_3  and  N3_7 
ROOT
ATOM      1  C1  <0> d          -0.016   1.321   0.009  0.00  0.00     0.028 A 
ATOM      2  C2  <0> d           1.181   2.012   0.002  0.00  0.00     0.097 A 
ATOM      3  C3  <0> d           2.370   1.277  -0.014  0.00  0.00     0.145 A 
ATOM      4  N1  <0> d           2.305  -0.051  -0.020  0.00  0.00    -0.223 NA
ATOM      5  C4  <0> d           1.140  -0.668  -0.012  0.00  0.00     0.088 A 
ATOM      6  N2  <0> d           0.002  -0.004   0.002  0.00  0.00    -0.252 NA
ATOM      7 Cl1  <0> d           1.208   3.747   0.010  0.00  0.00    -0.079 Cl
ATOM      8  H1  <0> d          -0.955   1.855   0.026  0.00  0.00     0.117 H 
ATOM      9  H2  <0> d           1.118  -1.747  -0.018  0.00  0.00     0.146 H 
ENDROOT
BRANCH   3  10
ATOM     10  N3  <0> d           3.596   1.922  -0.022  0.00  0.00    -0.383 N 
ATOM     11  H3  <0> d           3.635   2.891  -0.018  0.00  0.00     0.157 HD
ATOM     12  H4  <0> d           4.417   1.404  -0.033  0.00  0.00     0.157 HD
ENDBRANCH   3  10
TORSDOF 1
