REMARK  1 active torsions:
REMARK  status: ('A' for Active; 'I' for Inactive)
REMARK    1  A    between atoms: C5_5  and  N1_8 
REMARK       I    between atoms: N1_8  and  C8_9 
REMARK       I    between atoms: C8_9  and  N2_11 
ROOT
ATOM      1  C1  <0> d          -1.545  -5.106  -1.511  0.00  0.00    -0.065 C 
ATOM      2  C2  <0> d          -2.779  -4.741  -0.665  0.00  0.00    -0.065 C 
ATOM      3  C3  <0> d          -2.408  -4.189   0.685  0.00  0.00    -0.063 C 
ATOM      4  C4  <0> d          -2.372  -2.650   0.592  0.00  0.00    -0.046 C 
ATOM      5  C5  <0> d          -1.136  -2.159   0.001  0.00  0.00     0.014 C 
ATOM      6  C6  <0> d          -0.943  -2.648  -1.449  0.00  0.00    -0.046 C 
ATOM      7  C7  <0> d          -0.420  -4.058  -1.412  0.00  0.00    -0.063 C 
ATOM      8  H1  <0> d          -1.159  -6.069  -1.174  0.00  0.00     0.033 H 
ATOM      9  H2  <0> d          -1.849  -5.198  -2.554  0.00  0.00     0.033 H 
ATOM     10  H3  <0> d          -3.388  -5.634  -0.525  0.00  0.00     0.033 H 
ATOM     11  H4  <0> d          -3.365  -3.995  -1.202  0.00  0.00     0.033 H 
ATOM     12  H5  <0> d          -1.425  -4.562   0.976  0.00  0.00     0.033 H 
ATOM     13  H6  <0> d          -3.148  -4.494   1.425  0.00  0.00     0.033 H 
ATOM     14  H7  <0> d          -2.474  -2.233   1.595  0.00  0.00     0.035 H 
ATOM     15  H8  <0> d          -3.212  -2.313  -0.015  0.00  0.00     0.035 H 
ATOM     16  H9  <0> d          -0.295  -2.503   0.604  0.00  0.00     0.072 H 
ATOM     17  H10 <0> d          -1.898  -2.625  -1.973  0.00  0.00     0.035 H 
ATOM     18  H11 <0> d          -0.226  -2.005  -1.960  0.00  0.00     0.035 H 
ATOM     19  H12 <0> d           0.121  -4.209  -0.478  0.00  0.00     0.033 H 
ATOM     20  H13 <0> d           0.269  -4.200  -2.244  0.00  0.00     0.033 H 
ENDROOT
BRANCH   5  21
ATOM     21  N1  <0> d          -1.156  -0.694   0.009  0.00  0.00    -0.339 N 
ATOM     22  C8  <0> d           0.002  -0.004   0.002  0.00  0.00     0.314 C 
ATOM     23  O1  <0> d           1.063  -0.598  -0.011  0.00  0.00    -0.248 OA
ATOM     24  N2  <0> d          -0.016   1.344   0.009  0.00  0.00    -0.352 N 
ATOM     25  H15 <0> d           0.817   1.840   0.004  0.00  0.00     0.160 HD
ATOM     26  H16 <0> d          -0.863   1.817   0.016  0.00  0.00     0.160 HD
ATOM     27  H14 <0> d          -2.002  -0.220   0.020  0.00  0.00     0.164 HD
ENDBRANCH   5  21
TORSDOF 1
