REMARK  3 active torsions:
REMARK  status: ('A' for Active; 'I' for Inactive)
REMARK    1  A    between atoms: C1_1  and  C2_2 
REMARK    2  A    between atoms: C4_4  and  C7_9 
REMARK    3  A    between atoms: C5_6  and  C6_8 
ROOT
ATOM      1  C2  <0> d           2.298  -0.057  -0.020  0.00  0.00     0.034 A 
ATOM      2  C3  <0> d           2.320   1.329  -0.013  0.00  0.00    -0.036 A 
ATOM      3  C4  <0> d           1.111   2.007   0.002  0.00  0.00     0.034 A 
ATOM      4  N1  <0> d          -0.016   1.314   0.009  0.00  0.00    -0.239 NA
ATOM      5  C5  <0> d           0.002  -0.004   0.002  0.00  0.00     0.122 A 
ATOM      6  N2  <0> d           1.132  -0.682  -0.012  0.00  0.00    -0.239 NA
ATOM      7  H4  <0> d           3.256   1.867  -0.019  0.00  0.00     0.089 H 
ENDROOT
BRANCH   1   8
ATOM      8  C1  <0> d           3.585  -0.841  -0.035  0.00  0.00    -0.035 C 
ATOM      9  H1  <0> d           3.886  -1.025  -1.067  0.00  0.00     0.035 H 
ATOM     10  H2  <0> d           4.363  -0.272   0.474  0.00  0.00     0.035 H 
ATOM     11  H3  <0> d           3.437  -1.792   0.475  0.00  0.00     0.035 H 
ENDBRANCH   1   8
BRANCH   5  12
ATOM     12  C6  <0> d          -1.304  -0.755   0.011  0.00  0.00    -0.019 C 
ATOM     13  H5  <0> d          -1.629  -0.931  -1.015  0.00  0.00     0.037 H 
ATOM     14  H6  <0> d          -1.171  -1.711   0.518  0.00  0.00     0.037 H 
ATOM     15  H7  <0> d          -2.058  -0.168   0.535  0.00  0.00     0.037 H 
ENDBRANCH   5  12
BRANCH   3  16
ATOM     16  C7  <0> d           1.081   3.514   0.011  0.00  0.00    -0.035 C 
ATOM     17  H8  <0> d           1.084   3.872   1.040  0.00  0.00     0.035 H 
ATOM     18  H9  <0> d           1.959   3.898  -0.510  0.00  0.00     0.035 H 
ATOM     19  H10 <0> d           0.179   3.862  -0.493  0.00  0.00     0.035 H 
ENDBRANCH   3  16
TORSDOF 3
