REMARK  1 active torsions:
REMARK  status: ('A' for Active; 'I' for Inactive)
REMARK    1  A    between atoms: C6_6  and  O1_7 
ROOT
ATOM      1  C1  <0> d           0.002  -0.004   0.002  0.00  0.00    -0.050 A 
ATOM      2  C2  <0> d           1.201  -0.682  -0.013  0.00  0.00    -0.064 A 
ATOM      3  C3  <0> d           2.403   0.030  -0.021  0.00  0.00     0.048 A 
ATOM      4  C4  <0> d           2.375   1.430  -0.013  0.00  0.00    -0.015 A 
ATOM      5  C5  <0> d           1.178   2.100   0.002  0.00  0.00    -0.042 A 
ATOM      6  C6  <0> d          -0.017   1.386   0.010  0.00  0.00     0.066 A 
ATOM      7  C7  <0> d           3.814   1.882  -0.024  0.00  0.00     0.054 A 
ATOM      8  O2  <0> d           4.623   0.674  -0.038  0.00  0.00    -0.313 OA
ATOM      9  C8  <0> d           3.812  -0.397  -0.036  0.00  0.00     0.294 A 
ATOM     10  O3  <0> d           4.186  -1.553  -0.046  0.00  0.00    -0.259 OA
ATOM     11  H1  <0> d          -0.927  -0.555   0.008  0.00  0.00     0.087 H 
ATOM     12  H2  <0> d           1.212  -1.762  -0.019  0.00  0.00     0.085 H 
ATOM     13  H3  <0> d           1.162   3.180   0.008  0.00  0.00     0.088 H 
ATOM     14  H5  <0> d           4.030   2.466   0.871  0.00  0.00     0.082 H 
ATOM     15  H6  <0> d           4.014   2.476  -0.916  0.00  0.00     0.082 H 
ENDROOT
BRANCH   6  16
ATOM     16  O1  <0> d          -1.202   2.047   0.019  0.00  0.00    -0.361 OA
ATOM     17  H4  <0> d          -1.541   2.234   0.905  0.00  0.00     0.217 HD
ENDBRANCH   6  16
TORSDOF 1
