REMARK  7 active torsions:
REMARK  status: ('A' for Active; 'I' for Inactive)
REMARK    1  A    between atoms: C1_1  and  C2_2 
REMARK    2  A    between atoms: C2_2  and  C3_4 
REMARK    3  A    between atoms: C2_2  and  O2_6 
REMARK    4  A    between atoms: C3_4  and  O1_5 
REMARK    5  A    between atoms: O2_6  and  C4_7 
REMARK    6  A    between atoms: C4_7  and  O3_8 
REMARK    7  A    between atoms: O3_8  and  C5_9 
ROOT
ATOM      1  C2  <0> d          -1.897   0.852   1.471  0.00  0.00     0.058 C 
ATOM      2  H1  <0> d          -1.760  -0.167   1.079  0.00  0.00     0.086 H 
ENDROOT
BRANCH   1   3
ATOM      3  C1  <0> d          -3.064   1.560   0.781  0.00  0.00    -0.050 C 
ATOM      4  H2  <0> d          -2.896   1.571  -0.306  0.00  0.00     0.031 H 
ATOM      5  H3  <0> d          -3.137   2.594   1.151  0.00  0.00     0.031 H 
ATOM      6  H4  <0> d          -4.000   1.025   1.002  0.00  0.00     0.031 H 
ENDBRANCH   1   3
BRANCH   1   7
ATOM      7  C3  <0> d          -2.131   0.837   2.983  0.00  0.00     0.040 C 
ATOM      8  H5  <0> d          -3.017   0.227   3.211  0.00  0.00     0.077 H 
ATOM      9  H6  <0> d          -1.251   0.409   3.486  0.00  0.00     0.077 H 
BRANCH   7  10
ATOM     10  O1  <0> d          -2.340   2.173   3.446  0.00  0.00    -0.398 OA
ATOM     11  H7  <0> d          -2.526   2.363   4.513  0.00  0.00     0.209 HD
ENDBRANCH   7  10
ENDBRANCH   1   7
BRANCH   1  12
ATOM     12  O2  <0> d          -0.682   1.547   1.184  0.00  0.00    -0.360 OA
BRANCH  12  13
ATOM     13  C4  <0> d          -0.013   1.086   0.008  0.00  0.00     0.103 C 
ATOM     14  H8  <0> d           1.019   1.466   0.000  0.00  0.00     0.117 H 
ATOM     15  H9  <0> d           0.002  -0.014   0.002  0.00  0.00     0.117 H 
BRANCH  13  16
ATOM     16  O3  <0> d          -0.704   1.559  -1.150  0.00  0.00    -0.372 OA
BRANCH  16  17
ATOM     17  C5  <0> d          -0.496   2.946  -1.424  0.00  0.00     0.006 C 
ATOM     18  H10 <0> d          -1.059   3.230  -2.325  0.00  0.00     0.066 H 
ATOM     19  H11 <0> d           0.575   3.131  -1.587  0.00  0.00     0.066 H 
ATOM     20  H12 <0> d          -0.846   3.545  -0.570  0.00  0.00     0.066 H 
ENDBRANCH  16  17
ENDBRANCH  13  16
ENDBRANCH  12  13
ENDBRANCH   1  12
TORSDOF 7
