REMARK  1 active torsions:
REMARK  status: ('A' for Active; 'I' for Inactive)
REMARK    1  A    between atoms: C5_5  and  O1_8 
ROOT
ATOM      1  C1  <0> d           3.122   2.399   1.185  0.00  0.00    -0.040 A 
ATOM      2  C2  <0> d           3.739   2.695  -0.017  0.00  0.00    -0.040 A 
ATOM      3  C3  <0> d           3.101   2.412  -1.212  0.00  0.00     0.157 A 
ATOM      4  C4  <0> d           1.843   1.831  -1.207  0.00  0.00     0.190 A 
ATOM      5  C5  <0> d           1.224   1.533  -0.001  0.00  0.00     0.146 A 
ATOM      6  C6  <0> d           1.864   1.823   1.196  0.00  0.00     0.152 A 
ATOM      7  F1  <0> d           1.261   1.539   2.371  0.00  0.00    -0.203 F 
ATOM      8  F2  <0> d           1.221   1.555  -2.374  0.00  0.00    -0.200 F 
ATOM      9  F3  <0> d           3.706   2.702  -2.385  0.00  0.00    -0.203 F 
ATOM     10  H1  <0> d           3.622   2.621   2.117  0.00  0.00     0.088 H 
ATOM     11  H2  <0> d           4.718   3.149  -0.022  0.00  0.00     0.088 H 
ENDROOT
BRANCH   5  12
ATOM     12  O1  <0> d          -0.011   0.963   0.007  0.00  0.00    -0.355 OA
ATOM     13  H3  <0> d           0.002  -0.004   0.002  0.00  0.00     0.218 HD
ENDBRANCH   5  12
TORSDOF 1
