REMARK  2 active torsions:
REMARK  status: ('A' for Active; 'I' for Inactive)
REMARK    1  A    between atoms: C1_1  and  C2_2 
REMARK    2  A    between atoms: C2_2  and  C3_3 
ROOT
ATOM      1  C3  <0> d           0.707  -0.490  -1.238  0.00  0.00     0.123 A 
ATOM      2  N1  <0> d           1.755  -1.331  -1.271  0.00  0.00    -0.262 N 
ATOM      3  H1  <0> d           2.198  -1.738  -0.510  0.00  0.00     0.190 HD
ATOM      4  N2  <0> d           2.081  -1.505  -2.626  0.00  0.00    -0.140 NA
ATOM      5  C4  <0> d           1.236  -0.780  -3.313  0.00  0.00     0.242 A 
ATOM      6  N3  <0> d           0.403  -0.171  -2.470  0.00  0.00    -0.202 NA
ATOM      7 Cl1  <0> d           1.202  -0.640  -5.043  0.00  0.00    -0.040 Cl
ENDROOT
BRANCH   1   8
ATOM      8  C2  <0> d           0.002  -0.004   0.002  0.00  0.00    -0.012 C 
ATOM      9  H5  <0> d           0.529  -0.365   0.885  0.00  0.00     0.044 H 
ATOM     10  H6  <0> d          -1.020  -0.381   0.010  0.00  0.00     0.044 H 
BRANCH   8  11
ATOM     11  C1  <0> d          -0.019   1.526   0.010  0.00  0.00    -0.070 C 
ATOM     12  H2  <0> d           1.004   1.903   0.003  0.00  0.00     0.028 H 
ATOM     13  H3  <0> d          -0.546   1.887  -0.873  0.00  0.00     0.028 H 
ATOM     14  H4  <0> d          -0.529   1.877   0.907  0.00  0.00     0.028 H 
ENDBRANCH   8  11
ENDBRANCH   1   8
TORSDOF 2
