REMARK  2 active torsions:
REMARK  status: ('A' for Active; 'I' for Inactive)
REMARK    1  A    between atoms: C1_1  and  C2_2 
REMARK    2  A    between atoms: C3_3  and  O3_12 
ROOT
ATOM      1  C2  <0> d           0.002  -0.004   0.002  0.00  0.00     0.048 A 
ATOM      2  C3  <0> d          -1.157  -0.700   0.004  0.00  0.00     0.157 A 
ATOM      3  C4  <0> d          -1.109  -2.119  -0.004  0.00  0.00     0.284 A 
ATOM      4  O1  <0> d          -2.140  -2.768  -0.003  0.00  0.00    -0.265 OA
ATOM      5  N1  <0> d           0.087  -2.740  -0.013  0.00  0.00    -0.273 N 
ATOM      6  H1  <0> d           0.127  -3.709  -0.019  0.00  0.00     0.173 HD
ATOM      7  C5  <0> d           1.226  -2.023  -0.015  0.00  0.00     0.327 A 
ATOM      8  O2  <0> d           2.296  -2.600  -0.023  0.00  0.00    -0.247 OA
ATOM      9  N2  <0> d           1.198  -0.678  -0.013  0.00  0.00    -0.310 N 
ATOM     10  H2  <0> d           2.030  -0.180  -0.018  0.00  0.00     0.170 HD
ENDROOT
BRANCH   1  11
ATOM     11  C1  <0> d          -0.018   1.503   0.010  0.00  0.00    -0.035 C 
ATOM     12  H3  <0> d           1.004   1.880   0.003  0.00  0.00     0.035 H 
ATOM     13  H4  <0> d          -0.545   1.864  -0.873  0.00  0.00     0.035 H 
ATOM     14  H5  <0> d          -0.529   1.854   0.907  0.00  0.00     0.035 H 
ENDBRANCH   1  11
BRANCH   2  15
ATOM     15  O3  <0> d          -2.353  -0.049   0.013  0.00  0.00    -0.354 OA
ATOM     16  H6  <0> d          -3.121  -0.637   0.014  0.00  0.00     0.218 HD
ENDBRANCH   2  15
TORSDOF 2
