REMARK  7 active torsions:
REMARK  status: ('A' for Active; 'I' for Inactive)
REMARK    1  A    between atoms: C1_1  and  C2_2 
REMARK    2  A    between atoms: C2_2  and  C3_3 
REMARK    3  A    between atoms: C3_3  and  C4_4 
REMARK    4  A    between atoms: C4_4  and  C5_5 
REMARK    5  A    between atoms: C5_5  and  C6_7 
REMARK    6  A    between atoms: C5_5  and  O1_9 
REMARK    7  A    between atoms: C6_7  and  C7_8 
ROOT
ATOM      1  C4  <0> d          -2.918   1.643   2.470  0.00  0.00    -0.041 C 
ATOM      2  H9  <0> d          -2.471   1.284   3.397  0.00  0.00     0.036 H 
ATOM      3  H10 <0> d          -2.856   2.731   2.434  0.00  0.00     0.036 H 
ENDROOT
BRANCH   1   4
ATOM      4  C3  <0> d          -4.385   1.213   2.411  0.00  0.00    -0.063 C 
ATOM      5  H7  <0> d          -4.832   1.572   1.484  0.00  0.00     0.033 H 
ATOM      6  H8  <0> d          -4.447   0.126   2.447  0.00  0.00     0.033 H 
BRANCH   4   7
ATOM      7  C2  <0> d          -5.138   1.807   3.603  0.00  0.00    -0.068 C 
ATOM      8  H5  <0> d          -4.692   1.448   4.530  0.00  0.00     0.032 H 
ATOM      9  H6  <0> d          -5.077   2.894   3.567  0.00  0.00     0.032 H 
BRANCH   7  10
ATOM     10  C1  <0> d          -6.606   1.377   3.544  0.00  0.00    -0.077 C 
ATOM     11  H2  <0> d          -7.143   1.800   4.393  0.00  0.00     0.027 H 
ATOM     12  H3  <0> d          -7.052   1.736   2.617  0.00  0.00     0.027 H 
ATOM     13  H4  <0> d          -6.667   0.289   3.580  0.00  0.00     0.027 H 
ENDBRANCH   7  10
ENDBRANCH   4   7
ENDBRANCH   1   4
BRANCH   1  14
ATOM     14  C5  <0> d          -2.164   1.050   1.278  0.00  0.00     0.035 C 
ATOM     15  H1  <0> d          -2.664   1.336   0.353  0.00  0.00     0.082 H 
BRANCH  14  16
ATOM     16  C6  <0> d          -0.729   1.579   1.267  0.00  0.00    -0.044 C 
ATOM     17  H11 <0> d          -0.202   1.218   2.150  0.00  0.00     0.036 H 
ATOM     18  H12 <0> d          -0.744   2.669   1.273  0.00  0.00     0.036 H 
BRANCH  16  19
ATOM     19  C7  <0> d          -0.013   1.086   0.008  0.00  0.00    -0.074 C 
ATOM     20  H13 <0> d           0.002  -0.004   0.002  0.00  0.00     0.027 H 
ATOM     21  H14 <0> d           1.010   1.463   0.000  0.00  0.00     0.027 H 
ATOM     22  H15 <0> d          -0.540   1.447  -0.875  0.00  0.00     0.027 H 
ENDBRANCH  16  19
ENDBRANCH  14  16
BRANCH  14  23
ATOM     23  O1  <0> d          -2.146  -0.375   1.387  0.00  0.00    -0.396 OA
ATOM     24  H16 <0> d          -1.715  -0.702   2.189  0.00  0.00     0.210 HD
ENDBRANCH  14  23
ENDBRANCH   1  14
TORSDOF 7
