REMARK  1 active torsions:
REMARK  status: ('A' for Active; 'I' for Inactive)
REMARK    1  A    between atoms: C2_3  and  C3_6 
ROOT
ATOM      1  C1  <0> d          -0.668   3.500   0.027  0.00  0.00     0.130 A 
ATOM      2  N1  <0> d          -1.117   2.269   0.019  0.00  0.00    -0.209 NA
ATOM      3  C2  <0> d          -0.018   1.482   0.010  0.00  0.00     0.228 A 
ATOM      4  N2  <0> d           1.023   2.272   0.004  0.00  0.00    -0.103 NA
ATOM      5  O1  <0> d           0.667   3.431   0.014  0.00  0.00    -0.205 OA
ATOM      6  H1  <0> d          -1.264   4.400   0.038  0.00  0.00     0.159 H 
ENDROOT
BRANCH   3   7
ATOM      7  C3  <0> d           0.002  -0.004   0.002  0.00  0.00     0.228 A 
ATOM      8  N4  <0> d          -1.039  -0.794   0.007  0.00  0.00    -0.103 NA
ATOM      9  O2  <0> d          -0.683  -1.953  -0.003  0.00  0.00    -0.205 OA
ATOM     10  C4  <0> d           0.652  -2.022  -0.015  0.00  0.00     0.130 A 
ATOM     11  N3  <0> d           1.101  -0.791  -0.018  0.00  0.00    -0.209 NA
ATOM     12  H2  <0> d           1.248  -2.922  -0.025  0.00  0.00     0.159 H 
ENDBRANCH   3   7
TORSDOF 1
