REMARK  3 active torsions:
REMARK  status: ('A' for Active; 'I' for Inactive)
REMARK    1  A    between atoms: C1_1  and  C2_2 
REMARK    2  A    between atoms: C2_2  and  N1_3 
REMARK    3  A    between atoms: C4_5  and  C7_10 
ROOT
ATOM      1  N1  <0> d           2.647   4.801  -0.912  0.00  0.00    -0.352 N 
ATOM      2  C3  <0> d           2.695   3.591  -0.082  0.00  0.00     0.011 C 
ATOM      3  C4  <0> d           1.235   3.094   0.007  0.00  0.00     0.054 C 
ATOM      4  H1  <0> d           0.739   3.498   0.890  0.00  0.00     0.059 H 
ATOM      5  C5  <0> d           0.623   3.678  -1.287  0.00  0.00     0.023 C 
ATOM      6  C6  <0> d           1.497   4.872  -1.605  0.00  0.00     0.220 C 
ATOM      7  O1  <0> d           1.202   5.764  -2.372  0.00  0.00    -0.273 OA
ATOM      8  H7  <0> d           3.073   3.831   0.912  0.00  0.00     0.065 H 
ATOM      9  H8  <0> d           3.323   2.834  -0.552  0.00  0.00     0.065 H 
ATOM     10  H9  <0> d           0.668   2.947  -2.095  0.00  0.00     0.048 H 
ATOM     11  H10 <0> d          -0.406   3.994  -1.114  0.00  0.00     0.048 H 
ENDROOT
BRANCH   1  12
ATOM     12  C2  <0> d           3.715   5.801  -0.979  0.00  0.00    -0.006 C 
ATOM     13  H5  <0> d           3.284   6.779  -1.190  0.00  0.00     0.063 H 
ATOM     14  H6  <0> d           4.242   5.834  -0.025  0.00  0.00     0.063 H 
BRANCH  12  15
ATOM     15  C1  <0> d           4.697   5.426  -2.090  0.00  0.00    -0.061 C 
ATOM     16  H2  <0> d           5.492   6.170  -2.140  0.00  0.00     0.029 H 
ATOM     17  H3  <0> d           5.128   4.447  -1.879  0.00  0.00     0.029 H 
ATOM     18  H4  <0> d           4.170   5.393  -3.044  0.00  0.00     0.029 H 
ENDBRANCH  12  15
ENDBRANCH   1  12
BRANCH   3  19
ATOM     19  C7  <0> d           1.177   1.588  -0.001  0.00  0.00     0.179 C 
ATOM     20  O2  <0> d           2.199   0.944  -0.014  0.00  0.00    -0.648 OA
ATOM     21  O3  <0> d          -0.011   0.963   0.007  0.00  0.00    -0.648 OA
ENDBRANCH   3  19
TORSDOF 3
