REMARK  3 active torsions:
REMARK  status: ('A' for Active; 'I' for Inactive)
REMARK    1  A    between atoms: C1_1  and  C2_2 
REMARK    2  A    between atoms: C2_2  and  C8_8 
REMARK    3  A    between atoms: C8_8  and  O1_9 
ROOT
ATOM      1  C2  <0> d          -0.753   1.593  -1.232  0.00  0.00    -0.023 C 
ATOM      2  C3  <0> d          -0.013   1.086   0.008  0.00  0.00    -0.056 C 
ATOM      3  C4  <0> d          -0.729   1.579   1.267  0.00  0.00    -0.064 C 
ATOM      4  C5  <0> d          -0.750   3.109   1.275  0.00  0.00    -0.065 C 
ATOM      5  C6  <0> d          -1.490   3.616   0.036  0.00  0.00    -0.064 C 
ATOM      6  C7  <0> d          -0.773   3.123  -1.223  0.00  0.00    -0.056 C 
ATOM      7  H4  <0> d           0.002  -0.004   0.002  0.00  0.00     0.034 H 
ATOM      8  H5  <0> d           1.010   1.463   0.000  0.00  0.00     0.034 H 
ATOM      9  H6  <0> d          -1.751   1.202   1.275  0.00  0.00     0.033 H 
ATOM     10  H7  <0> d          -0.202   1.218   2.150  0.00  0.00     0.033 H 
ATOM     11  H8  <0> d           0.273   3.486   1.268  0.00  0.00     0.033 H 
ATOM     12  H9  <0> d          -1.260   3.461   2.172  0.00  0.00     0.033 H 
ATOM     13  H10 <0> d          -1.504   4.706   0.042  0.00  0.00     0.033 H 
ATOM     14  H11 <0> d          -2.512   3.239   0.043  0.00  0.00     0.033 H 
ATOM     15  H12 <0> d           0.249   3.500  -1.231  0.00  0.00     0.034 H 
ATOM     16  H13 <0> d          -1.301   3.484  -2.106  0.00  0.00     0.034 H 
ENDROOT
BRANCH   1  17
ATOM     17  C1  <0> d          -2.188   1.063  -1.221  0.00  0.00    -0.067 C 
ATOM     18  H1  <0> d          -2.698   1.415  -0.324  0.00  0.00     0.028 H 
ATOM     19  H2  <0> d          -2.715   1.424  -2.104  0.00  0.00     0.028 H 
ATOM     20  H3  <0> d          -2.173  -0.027  -1.227  0.00  0.00     0.028 H 
ENDBRANCH   1  17
BRANCH   1  21
ATOM     21  C8  <0> d          -0.037   1.099  -2.490  0.00  0.00     0.023 C 
ATOM     22  H14 <0> d           0.986   1.476  -2.498  0.00  0.00     0.075 H 
ATOM     23  H15 <0> d          -0.022   0.009  -2.496  0.00  0.00     0.075 H 
BRANCH  21  24
ATOM     24  O1  <0> d          -0.728   1.573  -3.648  0.00  0.00    -0.400 OA
ATOM     25  H16 <0> d          -0.328   1.297  -4.484  0.00  0.00     0.209 HD
ENDBRANCH  21  24
ENDBRANCH   1  21
TORSDOF 3
