REMARK  1 active torsions:
REMARK  status: ('A' for Active; 'I' for Inactive)
REMARK    1  A    between atoms: C4_7  and  C6_10 
ROOT
ATOM      1  C1  <0> d          -0.017   1.399   0.010  0.00  0.00    -0.032 A 
ATOM      2  C2  <0> d           1.145   2.092   0.002  0.00  0.00    -0.017 A 
ATOM      3  N1  <0> d           2.345   1.460  -0.013  0.00  0.00    -0.333 N 
ATOM      4  H1  <0> d           3.160   1.987  -0.018  0.00  0.00     0.168 HD
ATOM      5  C3  <0> d           2.428   0.117  -0.020  0.00  0.00     0.265 A 
ATOM      6  O1  <0> d           3.518  -0.428  -0.033  0.00  0.00    -0.267 OA
ATOM      7  C4  <0> d           1.244  -0.663  -0.013  0.00  0.00     0.144 A 
ATOM      8  C5  <0> d           0.002  -0.004   0.002  0.00  0.00     0.131 A 
ATOM      9  O2  <0> d          -1.151  -0.708   0.010  0.00  0.00    -0.191 OA
ATOM     10  H2  <0> d          -0.960   1.926   0.026  0.00  0.00     0.090 H 
ATOM     11  H3  <0> d           1.116   3.172   0.008  0.00  0.00     0.111 H 
ENDROOT
BRANCH   7  12
ATOM     12  C6  <0> d           1.312  -2.123  -0.021  0.00  0.00     0.218 C 
ATOM     13  O3  <0> d           0.282  -2.785  -0.015  0.00  0.00    -0.644 OA
ATOM     14  O4  <0> d           2.401  -2.685  -0.035  0.00  0.00    -0.644 OA
ENDBRANCH   7  12
TORSDOF 1
