REMARK  5 active torsions:
REMARK  status: ('A' for Active; 'I' for Inactive)
REMARK    1  A    between atoms: C1_1  and  C2_2 
REMARK    2  A    between atoms: C2_2  and  O1_3 
REMARK    3  A    between atoms: O1_3  and  C3_4 
REMARK    4  A    between atoms: C4_5  and  C5_6 
REMARK    5  A    between atoms: C6_7  and  C7_8 
ROOT
ATOM      1  C3  <0> d           0.776  -1.805  -1.335  0.00  0.00     0.020 C 
ATOM      2  C4  <0> d           1.393  -2.303  -2.418  0.00  0.00    -0.012 C 
ATOM      3  H6  <0> d           0.364  -2.472  -0.593  0.00  0.00     0.123 H 
ATOM      4  H7  <0> d           1.805  -1.636  -3.160  0.00  0.00     0.100 H 
ENDROOT
BRANCH   1   5
ATOM      5  O1  <0> d           0.671  -0.465  -1.174  0.00  0.00    -0.363 OA
BRANCH   5   6
ATOM      6  C2  <0> d           0.002  -0.004   0.002  0.00  0.00     0.022 C 
ATOM      7  H4  <0> d           0.529  -0.365   0.885  0.00  0.00     0.074 H 
ATOM      8  H5  <0> d          -1.020  -0.381   0.010  0.00  0.00     0.074 H 
BRANCH   6   9
ATOM      9  C1  <0> d          -0.019   1.526   0.010  0.00  0.00    -0.056 C 
ATOM     10  H1  <0> d           1.004   1.903   0.003  0.00  0.00     0.030 H 
ATOM     11  H2  <0> d          -0.546   1.887  -0.873  0.00  0.00     0.030 H 
ATOM     12  H3  <0> d          -0.529   1.877   0.907  0.00  0.00     0.030 H 
ENDBRANCH   6   9
ENDBRANCH   5   6
ENDBRANCH   1   5
BRANCH   2  13
ATOM     13  C5  <0> d           1.504  -3.721  -2.589  0.00  0.00    -0.072 C 
ATOM     14  C6  <0> d           1.596  -4.883  -2.729  0.00  0.00    -0.075 C 
BRANCH  14  15
ATOM     15  C7  <0> d           1.707  -6.300  -2.901  0.00  0.00    -0.042 C 
ATOM     16  C8  <0> d           2.320  -6.795  -3.977  0.00  0.00    -0.114 C 
ATOM     17  H9  <0> d           2.732  -6.128  -4.719  0.00  0.00     0.067 H 
ATOM     18  H10 <0> d           2.404  -7.864  -4.106  0.00  0.00     0.067 H 
ATOM     19  H8  <0> d           1.295  -6.968  -2.159  0.00  0.00     0.096 H 
ENDBRANCH  14  15
ENDBRANCH   2  13
TORSDOF 5
