REMARK  3 active torsions:
REMARK  status: ('A' for Active; 'I' for Inactive)
REMARK    1  A    between atoms: C1_1  and  C2_2 
REMARK    2  A    between atoms: C6_6  and  C8_9 
REMARK    3  A    between atoms: C7_7  and  O1_8 
ROOT
ATOM      1  C2  <0> d           1.205  -0.674  -0.013  0.00  0.00    -0.027 A 
ATOM      2  C3  <0> d           0.002  -0.004   0.002  0.00  0.00    -0.054 A 
ATOM      3  C4  <0> d          -0.017   1.393   0.010  0.00  0.00     0.045 A 
ATOM      4  C5  <0> d           1.186   2.105   0.002  0.00  0.00    -0.054 A 
ATOM      5  C6  <0> d           2.385   1.426  -0.013  0.00  0.00    -0.027 A 
ATOM      6  C7  <0> d           2.399   0.037  -0.021  0.00  0.00     0.077 A 
ATOM      7  C9  <0> d          -1.266   2.095   0.019  0.00  0.00     0.099 C 
ATOM      8  N1  <0> d          -2.256   2.651   0.027  0.00  0.00    -0.191 NA
ATOM      9  H4  <0> d          -0.925  -0.557   0.007  0.00  0.00     0.086 H 
ATOM     10  H5  <0> d           1.176   3.184   0.008  0.00  0.00     0.086 H 
ENDROOT
BRANCH   1  11
ATOM     11  C1  <0> d           1.227  -2.181  -0.021  0.00  0.00    -0.049 C 
ATOM     12  H1  <0> d           1.222  -2.539  -1.051  0.00  0.00     0.033 H 
ATOM     13  H2  <0> d           2.127  -2.534   0.482  0.00  0.00     0.033 H 
ATOM     14  H3  <0> d           0.347  -2.560   0.499  0.00  0.00     0.033 H 
ENDBRANCH   1  11
BRANCH   5  15
ATOM     15  C8  <0> d           3.683   2.192  -0.022  0.00  0.00    -0.049 C 
ATOM     16  H7  <0> d           3.985   2.382  -1.052  0.00  0.00     0.033 H 
ATOM     17  H8  <0> d           3.548   3.140   0.498  0.00  0.00     0.033 H 
ATOM     18  H9  <0> d           4.453   1.607   0.481  0.00  0.00     0.033 H 
ENDBRANCH   5  15
BRANCH   6  19
ATOM     19  O1  <0> d           3.583  -0.628  -0.036  0.00  0.00    -0.360 OA
ATOM     20  H6  <0> d           3.917  -0.816  -0.924  0.00  0.00     0.217 HD
ENDBRANCH   6  19
TORSDOF 3
