REMARK  4 active torsions:
REMARK  status: ('A' for Active; 'I' for Inactive)
REMARK    1  A    between atoms: C1_1  and  O1_2 
REMARK    2  A    between atoms: O1_2  and  C2_3 
REMARK    3  A    between atoms: C4_5  and  O2_9 
REMARK    4  A    between atoms: O2_9  and  C7_10 
ROOT
ATOM      1  C2  <0> d          -1.975   1.163   1.348  0.00  0.00     0.088 A 
ATOM      2  C3  <0> d          -2.694   1.570   2.466  0.00  0.00    -0.016 A 
ATOM      3  C4  <0> d          -4.014   1.153   2.590  0.00  0.00     0.088 A 
ATOM      4  C5  <0> d          -4.564   0.350   1.601  0.00  0.00     0.034 A 
ATOM      5  N1  <0> d          -3.850  -0.016   0.554  0.00  0.00    -0.268 NA
ATOM      6  C6  <0> d          -2.598   0.364   0.400  0.00  0.00     0.034 A 
ATOM      7  H4  <0> d          -2.238   2.196   3.220  0.00  0.00     0.092 H 
ATOM      8  H5  <0> d          -5.588   0.021   1.689  0.00  0.00     0.119 H 
ATOM      9  H6  <0> d          -2.048   0.047  -0.474  0.00  0.00     0.119 H 
ENDROOT
BRANCH   1  10
ATOM     10  O1  <0> d          -0.682   1.547   1.184  0.00  0.00    -0.354 OA
BRANCH  10  11
ATOM     11  C1  <0> d          -0.013   1.086   0.008  0.00  0.00     0.010 C 
ATOM     12  H1  <0> d           0.002  -0.004   0.002  0.00  0.00     0.066 H 
ATOM     13  H2  <0> d           1.010   1.463   0.000  0.00  0.00     0.066 H 
ATOM     14  H3  <0> d          -0.540   1.447  -0.875  0.00  0.00     0.066 H 
ENDBRANCH  10  11
ENDBRANCH   1  10
BRANCH   3  15
ATOM     15  O2  <0> d          -4.756   1.525   3.666  0.00  0.00    -0.354 OA
BRANCH  15  16
ATOM     16  C7  <0> d          -6.104   1.054   3.719  0.00  0.00     0.010 C 
ATOM     17  H7  <0> d          -6.108  -0.036   3.723  0.00  0.00     0.066 H 
ATOM     18  H8  <0> d          -6.583   1.423   4.626  0.00  0.00     0.066 H 
ATOM     19  H9  <0> d          -6.650   1.416   2.847  0.00  0.00     0.066 H 
ENDBRANCH  15  16
ENDBRANCH   3  15
TORSDOF 4
