REMARK  4 active torsions:
REMARK  status: ('A' for Active; 'I' for Inactive)
REMARK    1  A    between atoms: C1_1  and  C2_2 
REMARK    2  A    between atoms: C3_3  and  N4_10 
REMARK    3  A    between atoms: C4_4  and  C6_9 
REMARK    4  A    between atoms: C5_6  and  N3_8 
ROOT
ATOM      1  C2  <0> d           2.283   1.438  -0.012  0.00  0.00     0.078 A 
ATOM      2  C3  <0> d           2.342   0.048  -0.020  0.00  0.00     0.076 A 
ATOM      3  C4  <0> d           1.147  -0.666  -0.013  0.00  0.00     0.078 A 
ATOM      4  N1  <0> d           0.002  -0.004   0.002  0.00  0.00    -0.066 NA
ATOM      5  C5  <0> d          -0.016   1.320   0.009  0.00  0.00     0.720 A 
ATOM      6  N2  <0> d           1.101   2.032   0.003  0.00  0.00    -0.066 NA
ENDROOT
BRANCH   1   7
ATOM      7  C1  <0> d           3.548   2.256  -0.020  0.00  0.00    -0.033 C 
ATOM      8  H1  <0> d           4.419   1.584  -0.032  0.00  0.00     0.035 H 
ATOM      9  H2  <0> d           3.583   2.886   0.881  0.00  0.00     0.035 H 
ATOM     10  H3  <0> d           3.566   2.895  -0.915  0.00  0.00     0.035 H 
ENDBRANCH   1   7
BRANCH   2  11
ATOM     11  N4  <0> d           3.575  -0.618  -0.036  0.00  0.00    -0.396 N 
ATOM     12  H9  <0> d           3.606  -1.717  -0.042  0.00  0.00     0.156 HD
ATOM     13  H10 <0> d           4.511  -0.041  -0.042  0.00  0.00     0.156 HD
ENDBRANCH   2  11
BRANCH   5  14
ATOM     14  N3  <0> d          -1.236   1.979   0.019  0.00  0.00    -0.231 N 
ATOM     15  H4  <0> d          -1.268   3.078   0.025  0.00  0.00     0.174 HD
ATOM     16  H5  <0> d          -2.173   1.402   0.020  0.00  0.00     0.174 HD
ENDBRANCH   5  14
BRANCH   3  17
ATOM     17  C6  <0> d           1.158  -2.173  -0.021  0.00  0.00    -0.033 C 
ATOM     18  H6  <0> d           0.124  -2.547  -0.013  0.00  0.00     0.035 H 
ATOM     19  H7  <0> d           1.688  -2.541   0.870  0.00  0.00     0.035 H 
ATOM     20  H8  <0> d           1.670  -2.531  -0.926  0.00  0.00     0.035 H 
ENDBRANCH   3  17
TORSDOF 4
