REMARK  4 active torsions:
REMARK  status: ('A' for Active; 'I' for Inactive)
REMARK    1  A    between atoms: C1_1  and  C2_2 
REMARK    2  A    between atoms: C2_2  and  C3_3 
REMARK    3  A    between atoms: C3_3  and  C4_5 
REMARK    4  A    between atoms: C7_8  and  C10_11 
ROOT
ATOM      1  C4  <0> d          -1.299   1.927   0.019  0.00  0.00     0.010 A 
ATOM      2  C5  <0> d          -1.322   3.325   0.032  0.00  0.00    -0.069 A 
ATOM      3  C6  <0> d          -2.529   3.991   0.036  0.00  0.00    -0.076 A 
ATOM      4  C7  <0> d          -3.716   3.279   0.038  0.00  0.00    -0.062 A 
ATOM      5  C8  <0> d          -3.702   1.895   0.030  0.00  0.00    -0.076 A 
ATOM      6  C9  <0> d          -2.502   1.215   0.021  0.00  0.00    -0.069 A 
ATOM      7  H6  <0> d          -0.396   3.882   0.035  0.00  0.00     0.085 H 
ATOM      8  H7  <0> d          -2.549   5.071   0.042  0.00  0.00     0.084 H 
ATOM      9  H8  <0> d          -4.632   1.347   0.031  0.00  0.00     0.084 H 
ATOM     10  H9  <0> d          -2.493   0.135   0.014  0.00  0.00     0.085 H 
ENDROOT
BRANCH   1  11
ATOM     11  C3  <0> d          -0.014   1.208   0.009  0.00  0.00     0.159 C 
ATOM     12  O1  <0> d           0.002  -0.004   0.002  0.00  0.00    -0.292 OA
BRANCH  11  13
ATOM     13  C2  <0> d           1.280   1.980   0.001  0.00  0.00    -0.008 C 
ATOM     14  H4  <0> d           1.318   2.559  -0.813  0.00  0.00     0.044 H 
ATOM     15  H5  <0> d           1.338   2.602   0.893  0.00  0.00     0.044 H 
BRANCH  13  16
ATOM     16  C1  <0> d           2.457   1.001  -0.016  0.00  0.00    -0.070 C 
ATOM     17  H1  <0> d           2.399   0.379  -0.909  0.00  0.00     0.028 H 
ATOM     18  H2  <0> d           3.393   1.559  -0.022  0.00  0.00     0.028 H 
ATOM     19  H3  <0> d           2.416   0.369   0.871  0.00  0.00     0.028 H 
ENDBRANCH  13  16
ENDBRANCH  11  13
ENDBRANCH   1  11
BRANCH   4  20
ATOM     20  C10 <0> d          -5.031   4.015   0.048  0.00  0.00    -0.051 C 
ATOM     21  H10 <0> d          -5.344   4.186   1.078  0.00  0.00     0.033 H 
ATOM     22  H11 <0> d          -4.916   4.972  -0.461  0.00  0.00     0.033 H 
ATOM     23  H12 <0> d          -5.785   3.418  -0.466  0.00  0.00     0.033 H 
ENDBRANCH   4  20
TORSDOF 4
