REMARK  2 active torsions:
REMARK  status: ('A' for Active; 'I' for Inactive)
REMARK    1  A    between atoms: C1_1  and  C2_2 
REMARK    2  A    between atoms: C4_4  and  N1_10 
ROOT
ATOM      1  C2  <0> d           1.208  -0.678  -0.013  0.00  0.00    -0.021 A 
ATOM      2  C3  <0> d           0.002  -0.004   0.002  0.00  0.00    -0.047 A 
ATOM      3  C4  <0> d          -0.017   1.384   0.010  0.00  0.00     0.048 A 
ATOM      4  C5  <0> d           1.179   2.093   0.002  0.00  0.00     0.063 A 
ATOM      5  C6  <0> d           2.383   1.415  -0.014  0.00  0.00    -0.022 A 
ATOM      6  C7  <0> d           2.398   0.030  -0.021  0.00  0.00     0.124 A 
ATOM      7  F1  <0> d           3.576  -0.631  -0.036  0.00  0.00    -0.206 F 
ATOM      8 Cl1  <0> d           1.159   3.829   0.011  0.00  0.00    -0.082 Cl
ATOM      9  H4  <0> d          -0.926  -0.557   0.008  0.00  0.00     0.087 H 
ATOM     10  H5  <0> d           3.312   1.965  -0.020  0.00  0.00     0.090 H 
ENDROOT
BRANCH   1  11
ATOM     11  C1  <0> d           1.229  -2.185  -0.021  0.00  0.00    -0.048 C 
ATOM     12  H1  <0> d           1.224  -2.542  -1.051  0.00  0.00     0.033 H 
ATOM     13  H2  <0> d           2.129  -2.538   0.482  0.00  0.00     0.033 H 
ATOM     14  H3  <0> d           0.349  -2.563   0.499  0.00  0.00     0.033 H 
ENDBRANCH   1  11
BRANCH   3  15
ATOM     15  N1  <0> d          -1.237   2.068   0.019  0.00  0.00    -0.398 N 
ATOM     16  H6  <0> d          -2.071   1.572   0.020  0.00  0.00     0.156 HD
ATOM     17  H7  <0> d          -1.249   3.038   0.025  0.00  0.00     0.156 HD
ENDBRANCH   3  15
TORSDOF 2
