REMARK  1 active torsions:
REMARK  status: ('A' for Active; 'I' for Inactive)
REMARK    1  A    between atoms: C2_2  and  C3_3 
ROOT
ATOM      1  C3  <0> d          -0.018   1.463   0.010  0.00  0.00     0.028 C 
ATOM      2  H1  <0> d          -0.510   1.829   0.911  0.00  0.00     0.079 H 
ATOM      3  C4  <0> d           1.465   1.896  -0.002  0.00  0.00    -0.035 C 
ATOM      4  C5  <0> d           2.144   0.675  -0.664  0.00  0.00     0.011 C 
ATOM      5  C6  <0> d           1.203  -0.474  -0.379  0.00  0.00     0.218 C 
ATOM      6  O1  <0> d           1.489  -1.648  -0.478  0.00  0.00    -0.274 OA
ATOM      7  N1  <0> d           0.002  -0.004   0.002  0.00  0.00    -0.353 N 
ATOM      8  H5  <0> d           1.605   2.794  -0.603  0.00  0.00     0.037 H 
ATOM      9  H6  <0> d           1.836   2.046   1.012  0.00  0.00     0.037 H 
ATOM     10  H7  <0> d           3.120   0.490  -0.214  0.00  0.00     0.047 H 
ATOM     11  H8  <0> d           2.244   0.828  -1.739  0.00  0.00     0.047 H 
ATOM     12  H9  <0> d          -0.754  -0.563   0.241  0.00  0.00     0.163 HD
ENDROOT
BRANCH   1  13
ATOM     13  C2  <0> d          -0.722   1.982  -1.217  0.00  0.00    -0.090 C 
ATOM     14  C1  <0> d          -1.317   1.147  -2.033  0.00  0.00    -0.123 C 
ATOM     15  H2  <0> d          -1.303   0.088  -1.826  0.00  0.00     0.066 H 
ATOM     16  H3  <0> d          -1.822   1.519  -2.912  0.00  0.00     0.066 H 
ATOM     17  H4  <0> d          -0.736   3.042  -1.424  0.00  0.00     0.078 H 
ENDBRANCH   1  13
TORSDOF 1
