REMARK  2 active torsions:
REMARK  status: ('A' for Active; 'I' for Inactive)
REMARK    1  A    between atoms: C1_1  and  C2_2 
REMARK    2  A    between atoms: C9_9  and  O1_12 
ROOT
ATOM      1  C2  <0> d           0.047  -0.782   3.606  0.00  0.00    -0.061 A 
ATOM      2  C3  <0> d           0.066  -2.175   3.577  0.00  0.00    -0.076 A 
ATOM      3  C4  <0> d           0.064  -2.851   2.396  0.00  0.00    -0.072 A 
ATOM      4  C5  <0> d           0.042  -2.137   1.186  0.00  0.00    -0.023 A 
ATOM      5  C6  <0> d           0.040  -2.800  -0.053  0.00  0.00    -0.072 A 
ATOM      6  C7  <0> d           0.020  -2.078  -1.207  0.00  0.00    -0.080 A 
ATOM      7  C8  <0> d          -0.005  -0.686  -1.182  0.00  0.00    -0.050 A 
ATOM      8  C9  <0> d           0.002  -0.004   0.002  0.00  0.00     0.076 A 
ATOM      9  C10 <0> d           0.023  -0.720   1.216  0.00  0.00     0.008 A 
ATOM     10  C11 <0> d           0.026  -0.057   2.454  0.00  0.00    -0.064 A 
ATOM     11  H4  <0> d           0.082  -2.726   4.506  0.00  0.00     0.084 H 
ATOM     12  H5  <0> d           0.079  -3.931   2.389  0.00  0.00     0.084 H 
ATOM     13  H6  <0> d           0.055  -3.879  -0.090  0.00  0.00     0.084 H 
ATOM     14  H7  <0> d           0.018  -2.592  -2.156  0.00  0.00     0.083 H 
ATOM     15  H8  <0> d          -0.027  -0.137  -2.112  0.00  0.00     0.087 H 
ATOM     16  H9  <0> d           0.012   1.022   2.492  0.00  0.00     0.085 H 
ENDROOT
BRANCH   1  17
ATOM     17  C1  <0> d           0.050  -0.067   4.933  0.00  0.00    -0.051 C 
ATOM     18  H1  <0> d           1.078   0.119   5.243  0.00  0.00     0.033 H 
ATOM     19  H2  <0> d          -0.478   0.882   4.835  0.00  0.00     0.033 H 
ATOM     20  H3  <0> d          -0.449  -0.685   5.680  0.00  0.00     0.033 H 
ENDBRANCH   1  17
BRANCH   8  21
ATOM     21  O1  <0> d          -0.016   1.354   0.009  0.00  0.00    -0.360 OA
ATOM     22  H10 <0> d           0.862   1.759   0.003  0.00  0.00     0.217 HD
ENDBRANCH   8  21
TORSDOF 2
