REMARK  4 active torsions:
REMARK  status: ('A' for Active; 'I' for Inactive)
REMARK    1  A    between atoms: C2_2  and  C7_9 
REMARK    2  A    between atoms: C5_6  and  C6_7 
REMARK    3  A    between atoms: C6_7  and  O1_8 
REMARK    4  A    between atoms: C7_9  and  O2_10 
ROOT
ATOM      1  C1  <0> d          -0.017   1.382   0.010  0.00  0.00    -0.064 A 
ATOM      2  C2  <0> d           1.194   2.059   0.002  0.00  0.00    -0.017 A 
ATOM      3  C3  <0> d           2.370   1.334  -0.013  0.00  0.00     0.010 A 
ATOM      4  N1  <0> d           2.350   0.015  -0.021  0.00  0.00    -0.272 NA
ATOM      5  C4  <0> d           1.218  -0.661  -0.014  0.00  0.00     0.010 A 
ATOM      6  C5  <0> d           0.002  -0.004   0.002  0.00  0.00    -0.017 A 
ATOM      7  H1  <0> d          -0.952   1.922   0.026  0.00  0.00     0.085 H 
ATOM      8  H2  <0> d           3.317   1.853  -0.020  0.00  0.00     0.115 H 
ATOM      9  H3  <0> d           1.241  -1.741  -0.020  0.00  0.00     0.115 H 
ENDROOT
BRANCH   2  10
ATOM     10  C7  <0> d           1.226   3.565   0.009  0.00  0.00     0.042 C 
ATOM     11  H7  <0> d           2.118   3.912  -0.511  0.00  0.00     0.081 H 
ATOM     12  H8  <0> d           0.339   3.950  -0.495  0.00  0.00     0.081 H 
BRANCH  10  13
ATOM     13  O2  <0> d           1.248   4.035   1.359  0.00  0.00    -0.396 OA
ATOM     14  H9  <0> d           1.270   4.998   1.440  0.00  0.00     0.209 HD
ENDBRANCH  10  13
ENDBRANCH   2  10
BRANCH   6  15
ATOM     15  C6  <0> d          -1.287  -0.785   0.011  0.00  0.00     0.042 C 
ATOM     16  H4  <0> d          -1.132  -1.737   0.518  0.00  0.00     0.081 H 
ATOM     17  H5  <0> d          -2.054  -0.214   0.535  0.00  0.00     0.081 H 
BRANCH  15  18
ATOM     18  O1  <0> d          -1.708  -1.024  -1.334  0.00  0.00    -0.396 OA
ATOM     19  H6  <0> d          -2.533  -1.523  -1.405  0.00  0.00     0.209 HD
ENDBRANCH  15  18
ENDBRANCH   6  15
TORSDOF 4
