REMARK  2 active torsions:
REMARK  status: ('A' for Active; 'I' for Inactive)
REMARK    1  A    between atoms: C4_5  and  C6_7 
REMARK    2  A    between atoms: C6_7  and  N2_8 
REMARK       I    between atoms: N2_8  and  C7_9 
REMARK       I    between atoms: C7_9  and  N3_11 
ROOT
ATOM      1  C1  <0> d           1.174   1.794   0.001  0.00  0.00    -0.080 A 
ATOM      2  C2  <0> d          -0.013   1.076   0.008  0.00  0.00    -0.066 A 
ATOM      3  C3  <0> d          -1.214   1.759   0.017  0.00  0.00     0.003 A 
ATOM      4  N1  <0> d          -1.239   3.078   0.030  0.00  0.00    -0.264 NA
ATOM      5  C4  <0> d          -0.132   3.793   0.024  0.00  0.00     0.051 A 
ATOM      6  C5  <0> d           1.107   3.179   0.009  0.00  0.00    -0.058 A 
ATOM      7  H1  <0> d           2.127   1.287  -0.011  0.00  0.00     0.083 H 
ATOM      8  H2  <0> d           0.002  -0.004   0.002  0.00  0.00     0.085 H 
ATOM      9  H3  <0> d          -2.142   1.207   0.018  0.00  0.00     0.114 H 
ATOM     10  H4  <0> d           2.010   3.770   0.004  0.00  0.00     0.086 H 
ENDROOT
BRANCH   5  11
ATOM     11  C6  <0> d          -0.217   5.298   0.032  0.00  0.00     0.036 C 
ATOM     12  H5  <0> d          -1.072   5.610   0.632  0.00  0.00     0.073 H 
ATOM     13  H6  <0> d           0.697   5.711   0.460  0.00  0.00     0.073 H 
BRANCH  11  14
ATOM     14  N2  <0> d          -0.378   5.785  -1.340  0.00  0.00    -0.338 N 
ATOM     15  C7  <0> d          -0.476   7.108  -1.577  0.00  0.00     0.314 C 
ATOM     16  O1  <0> d          -0.431   7.897  -0.653  0.00  0.00    -0.248 OA
ATOM     17  N3  <0> d          -0.625   7.557  -2.840  0.00  0.00    -0.352 N 
ATOM     18  H8  <0> d          -0.660   6.928  -3.577  0.00  0.00     0.160 HD
ATOM     19  H9  <0> d          -0.696   8.509  -3.011  0.00  0.00     0.160 HD
ATOM     20  H7  <0> d          -0.414   5.156  -2.077  0.00  0.00     0.164 HD
ENDBRANCH  11  14
ENDBRANCH   5  11
TORSDOF 2
