REMARK  4 active torsions:
REMARK  status: ('A' for Active; 'I' for Inactive)
REMARK    1  A    between atoms: C1_1  and  C2_2 
REMARK    2  A    between atoms: C2_2  and  C3_3 
REMARK    3  A    between atoms: C3_3  and  C4_4 
REMARK    4  A    between atoms: C4_4  and  C5_5 
ROOT
ATOM      1  C4  <0> d           3.829   2.759  -2.438  0.00  0.00    -0.025 C 
ATOM      2  H8  <0> d           3.172   2.563  -3.299  0.00  0.00     0.042 H 
ATOM      3  H9  <0> d           4.737   2.144  -2.523  0.00  0.00     0.042 H 
ENDROOT
BRANCH   1   4
ATOM      4  C3  <0> d           4.216   4.240  -2.419  0.00  0.00    -0.060 C 
ATOM      5  H6  <0> d           4.873   4.436  -1.559  0.00  0.00     0.033 H 
ATOM      6  H7  <0> d           3.308   4.855  -2.335  0.00  0.00     0.033 H 
BRANCH   4   7
ATOM      7  C2  <0> d           4.952   4.591  -3.714  0.00  0.00    -0.068 C 
ATOM      8  H4  <0> d           4.295   4.395  -4.574  0.00  0.00     0.032 H 
ATOM      9  H5  <0> d           5.860   3.976  -3.798  0.00  0.00     0.032 H 
BRANCH   7  10
ATOM     10  C1  <0> d           5.339   6.072  -3.695  0.00  0.00    -0.077 C 
ATOM     11  H1  <0> d           5.868   6.324  -4.625  0.00  0.00     0.027 H 
ATOM     12  H2  <0> d           5.996   6.268  -2.834  0.00  0.00     0.027 H 
ATOM     13  H3  <0> d           4.431   6.687  -3.610  0.00  0.00     0.027 H 
ENDBRANCH   7  10
ENDBRANCH   4   7
ENDBRANCH   1   4
BRANCH   1  14
ATOM     14  C5  <0> d           3.105   2.413  -1.163  0.00  0.00     0.040 A 
ATOM     15  C6  <0> d           1.850   1.834  -1.207  0.00  0.00    -0.007 A 
ATOM     16  C7  <0> d           1.219   1.531  -0.001  0.00  0.00     0.181 A 
ATOM     17  H10 <0> d           1.418   1.643  -2.088  0.00  0.00     0.093 H 
ATOM     18  O1  <0> d          -0.011   0.963   0.007  0.00  0.00    -0.172 OA
ATOM     19  N1  <0> d           1.840   1.813   1.139  0.00  0.00    -0.329 N 
ATOM     20  C8  <0> d           3.038   2.361   1.135  0.00  0.00     0.066 A 
ATOM     21  H12 <0> d           1.342   1.585   2.093  0.00  0.00     0.168 HD
ATOM     22  N2  <0> d           3.662   2.660   0.013  0.00  0.00    -0.248 NA
ATOM     23  H11 <0> d           3.474   2.550   2.015  0.00  0.00     0.143 H 
ENDBRANCH   1  14
TORSDOF 4
