REMARK  4 active torsions:
REMARK  status: ('A' for Active; 'I' for Inactive)
REMARK    1  A    between atoms: C2_2  and  C3_3 
REMARK    2  A    between atoms: C3_3  and  C4_5 
REMARK    3  A    between atoms: C3_3  and  O1_12 
REMARK    4  A    between atoms: C4_5  and  C5_6 
ROOT
ATOM      1  C1  <0> d           0.018  -1.178  -0.004  0.00  0.00    -0.151 C 
ATOM      2  C2  <0> d           0.002  -0.004   0.002  0.00  0.00    -0.085 C 
ATOM      3  H2  <0> d           0.033  -2.278  -0.010  0.00  0.00     0.166 H 
ENDROOT
BRANCH   2   4
ATOM      4  C3  <0> d          -0.018   1.468   0.010  0.00  0.00     0.097 C 
ATOM      5  H1  <0> d          -0.497   1.828  -0.912  0.00  0.00     0.103 H 
BRANCH   4   6
ATOM      6  C4  <0> d          -0.734   1.961   1.269  0.00  0.00    -0.007 C 
ATOM      7  H3  <0> d          -1.735   1.509   1.322  0.00  0.00     0.045 H 
ATOM      8  H4  <0> d          -0.153   1.673   2.158  0.00  0.00     0.045 H 
BRANCH   6   9
ATOM      9  C5  <0> d          -0.863   3.462   1.218  0.00  0.00    -0.055 A 
ATOM     10  C10 <0> d          -1.976   4.040   0.638  0.00  0.00    -0.077 A 
ATOM     11  C9  <0> d          -2.095   5.417   0.591  0.00  0.00    -0.082 A 
ATOM     12  H9  <0> d          -2.754   3.417   0.221  0.00  0.00     0.084 H 
ATOM     13  C8  <0> d          -1.100   6.215   1.125  0.00  0.00    -0.083 A 
ATOM     14  H8  <0> d          -2.965   5.869   0.138  0.00  0.00     0.083 H 
ATOM     15  C7  <0> d           0.013   5.636   1.705  0.00  0.00    -0.082 A 
ATOM     16  H7  <0> d          -1.193   7.290   1.089  0.00  0.00     0.083 H 
ATOM     17  C6  <0> d           0.129   4.260   1.756  0.00  0.00    -0.077 A 
ATOM     18  H6  <0> d           0.790   6.259   2.122  0.00  0.00     0.083 H 
ATOM     19  H5  <0> d           0.997   3.808   2.213  0.00  0.00     0.084 H 
ENDBRANCH   6   9
ENDBRANCH   4   6
BRANCH   4  20
ATOM     20  O1  <0> d           1.323   1.962  -0.000  0.00  0.00    -0.383 OA
ATOM     21  H10 <0> d           1.509   3.046   0.004  0.00  0.00     0.211 HD
ENDBRANCH   4  20
ENDBRANCH   2   4
TORSDOF 4
