REMARK  2 active torsions:
REMARK  status: ('A' for Active; 'I' for Inactive)
REMARK    1  A    between atoms: C1_1  and  C2_2 
REMARK    2  A    between atoms: C6_8  and  O1_12 
ROOT
ATOM      1  C2  <0> d           2.067   0.780  -0.013  0.00  0.00     0.101 A 
ATOM      2  N1  <0> d           1.336  -0.367  -0.013  0.00  0.00    -0.343 N 
ATOM      3  H1  <0> d           1.844  -1.342  -0.023  0.00  0.00     0.167 HD
ATOM      4  C3  <0> d           0.002  -0.004   0.002  0.00  0.00     0.062 A 
ATOM      5  C4  <0> d          -1.190  -0.715   0.010  0.00  0.00    -0.052 A 
ATOM      6  C5  <0> d          -2.392  -0.041   0.025  0.00  0.00    -0.049 A 
ATOM      7  C6  <0> d          -2.419   1.351   0.033  0.00  0.00     0.068 A 
ATOM      8  C7  <0> d          -1.242   2.073   0.030  0.00  0.00    -0.021 A 
ATOM      9  C8  <0> d          -0.017   1.401   0.010  0.00  0.00     0.088 A 
ATOM     10  N2  <0> d           1.276   1.814  -0.000  0.00  0.00    -0.234 NA
ATOM     11  H5  <0> d          -1.176  -1.795   0.004  0.00  0.00     0.087 H 
ATOM     12  H6  <0> d          -3.318  -0.596   0.031  0.00  0.00     0.087 H 
ATOM     13  H7  <0> d          -1.268   3.152   0.036  0.00  0.00     0.091 H 
ENDROOT
BRANCH   1  14
ATOM     14  C1  <0> d           3.572   0.845  -0.028  0.00  0.00    -0.021 C 
ATOM     15  H2  <0> d           3.983  -0.175  -0.037  0.00  0.00     0.037 H 
ATOM     16  H3  <0> d           3.925   1.374   0.870  0.00  0.00     0.037 H 
ATOM     17  H4  <0> d           3.907   1.383  -0.927  0.00  0.00     0.037 H 
ENDBRANCH   1  14
BRANCH   7  18
ATOM     18  O1  <0> d          -3.611   2.004   0.048  0.00  0.00    -0.361 OA
ATOM     19  H8  <0> d          -3.637   3.103   0.054  0.00  0.00     0.217 HD
ENDBRANCH   7  18
TORSDOF 2
