REMARK  4 active torsions:
REMARK  status: ('A' for Active; 'I' for Inactive)
REMARK    1  A    between atoms: C1_1  and  C2_2 
REMARK    2  A    between atoms: C4_4  and  C6_9 
REMARK    3  A    between atoms: C5_6  and  N3_8 
REMARK    4  A    between atoms: C6_9  and  C7_11 
ROOT
ATOM      1  C2  <0> d          -2.577   4.253   0.038  0.00  0.00     0.052 A 
ATOM      2  C3  <0> d          -1.341   3.621   0.034  0.00  0.00    -0.027 A 
ATOM      3  C4  <0> d          -1.309   2.225   0.020  0.00  0.00     0.123 A 
ATOM      4  N1  <0> d          -2.460   1.554   0.022  0.00  0.00    -0.060 NA
ATOM      5  C5  <0> d          -3.615   2.197   0.032  0.00  0.00     0.721 A 
ATOM      6  N2  <0> d          -3.676   3.522   0.040  0.00  0.00    -0.068 NA
ATOM      7  H4  <0> d          -0.426   4.195   0.037  0.00  0.00     0.090 H 
ENDROOT
BRANCH   3   8
ATOM      8  C6  <0> d          -0.018   1.503   0.010  0.00  0.00     0.174 C 
ATOM      9  O1  <0> d           1.020   2.121   0.004  0.00  0.00    -0.291 OA
BRANCH   8  10
ATOM     10  C7  <0> d           0.002  -0.004   0.002  0.00  0.00    -0.015 C 
ATOM     11  H7  <0> d           0.949  -0.325  -0.009  0.00  0.00     0.038 H 
ATOM     12  H8  <0> d          -0.498  -0.379   0.895  0.00  0.00     0.038 H 
ATOM     13  H9  <0> d          -0.515  -0.370  -0.885  0.00  0.00     0.038 H 
ENDBRANCH   8  10
ENDBRANCH   3   8
BRANCH   1  14
ATOM     14  C1  <0> d          -2.663   5.758   0.048  0.00  0.00    -0.035 C 
ATOM     15  H1  <0> d          -2.679   6.115   1.077  0.00  0.00     0.035 H 
ATOM     16  H2  <0> d          -1.798   6.175  -0.468  0.00  0.00     0.035 H 
ATOM     17  H3  <0> d          -3.575   6.073  -0.460  0.00  0.00     0.035 H 
ENDBRANCH   1  14
BRANCH   5  18
ATOM     18  N3  <0> d          -4.792   1.468   0.033  0.00  0.00    -0.231 N 
ATOM     19  H5  <0> d          -4.762   0.498   0.027  0.00  0.00     0.174 HD
ATOM     20  H6  <0> d          -5.647   1.927   0.040  0.00  0.00     0.174 HD
ENDBRANCH   5  18
TORSDOF 4
