REMARK  3 active torsions:
REMARK  status: ('A' for Active; 'I' for Inactive)
REMARK    1  A    between atoms: C1_1  and  C2_2 
REMARK    2  A    between atoms: C3_3  and  S1_7 
REMARK    3  A    between atoms: S1_7  and  C6_8 
ROOT
ATOM      1  C2  <0> d          -0.721   3.181   0.026  0.00  0.00     0.065 A 
ATOM      2  C3  <0> d          -1.163   1.905   0.017  0.00  0.00     0.031 A 
ATOM      3  C4  <0> d          -0.013   1.076   0.008  0.00  0.00    -0.043 A 
ATOM      4  C5  <0> d           1.057   1.892   0.002  0.00  0.00     0.020 A 
ATOM      5  O1  <0> d           0.625   3.163   0.013  0.00  0.00    -0.326 OA
ATOM      6  H4  <0> d           0.002  -0.004   0.002  0.00  0.00     0.088 H 
ATOM      7  H5  <0> d           2.090   1.577  -0.010  0.00  0.00     0.123 H 
ENDROOT
BRANCH   2   8
ATOM      8  S1  <0> d          -2.842   1.373   0.021  0.00  0.00    -0.132 SA
BRANCH   8   9
ATOM      9  C6  <0> d          -2.729  -0.438   0.012  0.00  0.00    -0.030 C 
ATOM     10  H6  <0> d          -3.741  -0.868   0.014  0.00  0.00     0.042 H 
ATOM     11  H7  <0> d          -2.185  -0.776   0.906  0.00  0.00     0.042 H 
ATOM     12  H8  <0> d          -2.192  -0.767  -0.890  0.00  0.00     0.042 H 
ENDBRANCH   8   9
ENDBRANCH   2   8
BRANCH   1  13
ATOM     13  C1  <0> d          -1.587   4.414   0.041  0.00  0.00    -0.030 C 
ATOM     14  H1  <0> d          -2.647   4.118   0.050  0.00  0.00     0.036 H 
ATOM     15  H2  <0> d          -1.383   5.017  -0.856  0.00  0.00     0.036 H 
ATOM     16  H3  <0> d          -1.365   5.007   0.940  0.00  0.00     0.036 H 
ENDBRANCH   1  13
TORSDOF 3
