REMARK  4 active torsions:
REMARK  status: ('A' for Active; 'I' for Inactive)
REMARK    1  A    between atoms: C1_1  and  C2_2 
REMARK    2  A    between atoms: C2_2  and  N1_3 
REMARK    3  A    between atoms: C4_5  and  C6_9 
REMARK    4  A    between atoms: C5_6  and  N3_8 
ROOT
ATOM      1  N1  <0> d           0.688  -0.476  -1.203  0.00  0.00    -0.279 N 
ATOM      2  C3  <0> d           1.740  -1.321  -1.237  0.00  0.00     0.008 A 
ATOM      3  C4  <0> d           2.079  -1.510  -2.533  0.00  0.00     0.002 A 
ATOM      4  C5  <0> d           1.200  -0.751  -3.323  0.00  0.00     0.148 A 
ATOM      5  N2  <0> d           0.362  -0.135  -2.522  0.00  0.00    -0.155 NA
ATOM      6  H6  <0> d           2.225  -1.767  -0.382  0.00  0.00     0.115 H 
ENDROOT
BRANCH   1   7
ATOM      7  C2  <0> d           0.002  -0.004   0.002  0.00  0.00     0.013 C 
ATOM      8  H4  <0> d           0.529  -0.365   0.885  0.00  0.00     0.066 H 
ATOM      9  H5  <0> d          -1.020  -0.381   0.010  0.00  0.00     0.066 H 
BRANCH   7  10
ATOM     10  C1  <0> d          -0.019   1.526   0.010  0.00  0.00    -0.059 C 
ATOM     11  H1  <0> d           1.004   1.903   0.003  0.00  0.00     0.029 H 
ATOM     12  H2  <0> d          -0.546   1.887  -0.873  0.00  0.00     0.029 H 
ATOM     13  H3  <0> d          -0.529   1.877   0.907  0.00  0.00     0.029 H 
ENDBRANCH   7  10
ENDBRANCH   1   7
BRANCH   4  14
ATOM     14  N3  <0> d           1.212  -0.670  -4.720  0.00  0.00    -0.382 N 
ATOM     15  H7  <0> d           1.872  -1.167  -5.229  0.00  0.00     0.157 HD
ATOM     16  H8  <0> d           0.562  -0.116  -5.180  0.00  0.00     0.157 HD
ENDBRANCH   4  14
BRANCH   3  17
ATOM     17  C6  <0> d           3.200  -2.380  -3.039  0.00  0.00    -0.046 C 
ATOM     18  H9  <0> d           2.827  -3.389  -3.213  0.00  0.00     0.033 H 
ATOM     19  H10 <0> d           3.586  -1.969  -3.972  0.00  0.00     0.033 H 
ATOM     20  H11 <0> d           3.999  -2.410  -2.298  0.00  0.00     0.033 H 
ENDBRANCH   3  17
TORSDOF 4
