REMARK  5 active torsions:
REMARK  status: ('A' for Active; 'I' for Inactive)
REMARK    1  A    between atoms: C1_1  and  C2_2 
REMARK    2  A    between atoms: C2_2  and  C3_4 
REMARK    3  A    between atoms: C2_2  and  N1_8 
REMARK    4  A    between atoms: C3_4  and  O2_6 
REMARK    5  A    between atoms: O2_6  and  C4_7 
ROOT
ATOM      1  C2  <0> d           0.002  -0.004   0.002  0.00  0.00     0.209 C 
ATOM      2  H1  <0> d          -1.020  -0.381   0.010  0.00  0.00     0.103 H 
ENDROOT
BRANCH   1   3
ATOM      3  C1  <0> d          -0.019   1.526   0.010  0.00  0.00    -0.039 C 
ATOM      4  H2  <0> d           1.004   1.903   0.003  0.00  0.00     0.031 H 
ATOM      5  H3  <0> d          -0.546   1.887  -0.873  0.00  0.00     0.031 H 
ATOM      6  H4  <0> d          -0.529   1.877   0.907  0.00  0.00     0.031 H 
ENDBRANCH   1   3
BRANCH   1   7
ATOM      7  C3  <0> d           0.707  -0.490  -1.238  0.00  0.00     0.291 C 
ATOM      8  O1  <0> d           1.700  -1.172  -1.140  0.00  0.00    -0.263 OA
BRANCH   7   9
ATOM      9  O2  <0> d           0.233  -0.166  -2.451  0.00  0.00    -0.325 OA
BRANCH   9  10
ATOM     10  C4  <0> d           0.952  -0.660  -3.582  0.00  0.00     0.013 C 
ATOM     11  H5  <0> d           1.974  -0.283  -3.557  0.00  0.00     0.067 H 
ATOM     12  H6  <0> d           0.966  -1.750  -3.555  0.00  0.00     0.067 H 
ATOM     13  H7  <0> d           0.463  -0.326  -4.498  0.00  0.00     0.067 H 
ENDBRANCH   9  10
ENDBRANCH   7   9
ENDBRANCH   1   7
BRANCH   1  14
ATOM     14  N1  <0> d           0.713  -0.491   1.192  0.00  0.00     0.092 N 
ATOM     15  H8  <0> d           1.681  -0.208   1.176  0.00  0.00     0.313 HD
ATOM     16  H9  <0> d           0.259  -0.178   2.037  0.00  0.00     0.313 HD
ENDBRANCH   1  14
TORSDOF 5
