REMARK  2 active torsions:
REMARK  status: ('A' for Active; 'I' for Inactive)
REMARK    1  A    between atoms: C4_4  and  N1_7 
REMARK    2  A    between atoms: N1_7  and  S1_8 
ROOT
ATOM      1  C1  <0> d          -0.017   1.380   0.010  0.00  0.00    -0.083 A 
ATOM      2  C2  <0> d           1.168   2.097   0.002  0.00  0.00    -0.081 A 
ATOM      3  C3  <0> d           2.377   1.436  -0.013  0.00  0.00    -0.054 A 
ATOM      4  C4  <0> d           2.406   0.036  -0.021  0.00  0.00     0.067 A 
ATOM      5  C5  <0> d           1.203  -0.681  -0.014  0.00  0.00    -0.054 A 
ATOM      6  C6  <0> d           0.002  -0.004   0.002  0.00  0.00    -0.081 A 
ATOM      7  H1  <0> d          -0.961   1.904   0.017  0.00  0.00     0.083 H 
ATOM      8  H2  <0> d           1.144   3.176   0.008  0.00  0.00     0.083 H 
ATOM      9  H3  <0> d           3.301   1.997  -0.019  0.00  0.00     0.087 H 
ATOM     10  H4  <0> d           1.216  -1.761  -0.019  0.00  0.00     0.087 H 
ATOM     11  H5  <0> d          -0.927  -0.555   0.008  0.00  0.00     0.083 H 
ENDROOT
BRANCH   4  12
ATOM     12  N1  <0> d           3.594  -0.623  -0.037  0.00  0.00    -0.187 NA
BRANCH  12  13
ATOM     13  S1  <0> d           4.931   0.180  -0.046  0.00  0.00     0.175 SA
ATOM     14  O1  <0> d           5.921  -0.960  -0.062  0.00  0.00    -0.124 OA
ENDBRANCH  12  13
ENDBRANCH   4  12
TORSDOF 2
