REMARK  4 active torsions:
REMARK  status: ('A' for Active; 'I' for Inactive)
REMARK    1  A    between atoms: C1_1  and  C2_2 
REMARK    2  A    between atoms: C2_2  and  C3_3 
REMARK    3  A    between atoms: C2_2  and  C4_4 
REMARK    4  A    between atoms: C4_4  and  C5_6 
ROOT
ATOM      1  C2  <0> d          -0.019   1.526   0.010  0.00  0.00     0.004 C 
ATOM      2  H4  <0> d          -0.502   1.857  -0.800  0.00  0.00     0.051 H 
ENDROOT
BRANCH   1   3
ATOM      3  C1  <0> d           0.002  -0.004   0.002  0.00  0.00    -0.066 C 
ATOM      4  H1  <0> d           0.529  -0.365   0.885  0.00  0.00     0.028 H 
ATOM      5  H2  <0> d          -1.020  -0.381   0.010  0.00  0.00     0.028 H 
ATOM      6  H3  <0> d           0.512  -0.356  -0.895  0.00  0.00     0.028 H 
ENDBRANCH   1   3
BRANCH   1   7
ATOM      7  C3  <0> d           1.417   2.055  -0.000  0.00  0.00    -0.066 C 
ATOM      8  H5  <0> d           1.402   3.145   0.006  0.00  0.00     0.028 H 
ATOM      9  H6  <0> d           1.944   1.694   0.883  0.00  0.00     0.028 H 
ATOM     10  H7  <0> d           1.927   1.704  -0.897  0.00  0.00     0.028 H 
ENDBRANCH   1   7
BRANCH   1  11
ATOM     11  C4  <0> d          -0.724   2.012   1.250  0.00  0.00     0.188 C 
ATOM     12  O1  <0> d          -0.688   1.351   2.267  0.00  0.00    -0.290 OA
BRANCH  11  13
ATOM     13  C5  <0> d          -1.453   3.281   1.228  0.00  0.00     0.143 A 
ATOM     14  S1  <0> d          -2.366   4.086   2.536  0.00  0.00    -0.077 SA
ATOM     15  C7  <0> d          -2.867   5.482   1.632  0.00  0.00    -0.026 A 
ATOM     16  C6  <0> d          -2.306   5.233   0.412  0.00  0.00     0.010 A 
ATOM     17  H9  <0> d          -3.464   6.324   1.950  0.00  0.00     0.097 H 
ATOM     18  N1  <0> d          -1.607   4.147   0.230  0.00  0.00    -0.249 NA
ATOM     19  H8  <0> d          -2.436   5.935  -0.398  0.00  0.00     0.115 H 
ENDBRANCH  11  13
ENDBRANCH   1  11
TORSDOF 4
