REMARK  0 active torsions:
REMARK  status: ('A' for Active; 'I' for Inactive)
ROOT
ATOM      1  C1  <0> d           1.181   1.770   0.000  0.00  0.00    -0.064 A 
ATOM      2  C2  <0> d           1.156   3.159   0.009  0.00  0.00    -0.052 A 
ATOM      3  C3  <0> d          -0.077   3.792   0.024  0.00  0.00     0.081 A 
ATOM      4  C4  <0> d          -1.245   3.030   0.029  0.00  0.00     0.191 A 
ATOM      5  N1  <0> d          -1.171   1.708   0.017  0.00  0.00    -0.235 NA
ATOM      6  C5  <0> d          -0.013   1.076   0.008  0.00  0.00     0.005 A 
ATOM      7  O1  <0> d          -2.462   3.632   0.038  0.00  0.00    -0.331 OA
ATOM      8  C6  <0> d          -2.531   4.988   0.484  0.00  0.00     0.042 C 
ATOM      9  C7  <0> d          -1.461   5.808  -0.250  0.00  0.00     0.013 C 
ATOM     10  N2  <0> d          -0.154   5.193   0.038  0.00  0.00    -0.384 N 
ATOM     11  H1  <0> d           2.121   1.240  -0.012  0.00  0.00     0.085 H 
ATOM     12  H2  <0> d           2.072   3.729   0.004  0.00  0.00     0.087 H 
ATOM     13  H3  <0> d           0.002  -0.004   0.002  0.00  0.00     0.114 H 
ATOM     14  H4  <0> d          -3.528   5.396   0.265  0.00  0.00     0.077 H 
ATOM     15  H5  <0> d          -2.349   5.027   1.569  0.00  0.00     0.077 H 
ATOM     16  H6  <0> d          -1.663   5.790  -1.331  0.00  0.00     0.067 H 
ATOM     17  H7  <0> d          -1.484   6.848   0.110  0.00  0.00     0.067 H 
ATOM     18  H8  <0> d           0.718   5.828   0.255  0.00  0.00     0.159 HD
ENDROOT
TORSDOF 0
