REMARK  2 active torsions:
REMARK  status: ('A' for Active; 'I' for Inactive)
REMARK    1  A    between atoms: C2_2  and  C7_9 
REMARK    2  A    between atoms: C3_4  and  C4_6 
ROOT
ATOM      1  C1  <0> d          -0.016   1.337   0.009  0.00  0.00     0.055 A 
ATOM      2  C2  <0> d           1.283   1.752  -0.001  0.00  0.00     0.157 A 
ATOM      3  N1  <0> d           2.059   0.633  -0.014  0.00  0.00    -0.219 NA
ATOM      4  C3  <0> d           1.281  -0.407  -0.012  0.00  0.00     0.150 A 
ATOM      5  O1  <0> d           0.002  -0.004   0.002  0.00  0.00    -0.305 OA
ATOM      6  H1  <0> d          -0.892   1.968   0.025  0.00  0.00     0.127 H 
ENDROOT
BRANCH   4   7
ATOM      7  C4  <0> d           1.743  -1.841  -0.025  0.00  0.00     0.010 A 
ATOM      8  C6  <0> d           1.325  -2.729   1.149  0.00  0.00    -0.054 A 
ATOM      9  C5  <0> d           0.680  -2.924  -0.224  0.00  0.00    -0.054 A 
ATOM     10  H5  <0> d           2.034  -3.486   1.485  0.00  0.00     0.034 H 
ATOM     11  H6  <0> d           0.716  -2.275   1.931  0.00  0.00     0.034 H 
ATOM     12  H3  <0> d          -0.353  -2.599  -0.346  0.00  0.00     0.034 H 
ATOM     13  H4  <0> d           0.964  -3.810  -0.792  0.00  0.00     0.034 H 
ATOM     14  H2  <0> d           2.726  -2.015  -0.462  0.00  0.00     0.052 H 
ENDBRANCH   4   7
BRANCH   2  15
ATOM     15  C7  <0> d           1.756   3.144   0.002  0.00  0.00     0.231 C 
ATOM     16  O2  <0> d           0.949   4.064   0.014  0.00  0.00    -0.643 OA
ATOM     17  O3  <0> d           2.956   3.382  -0.009  0.00  0.00    -0.643 OA
ENDBRANCH   2  15
TORSDOF 2
