REMARK  1 active torsions:
REMARK  status: ('A' for Active; 'I' for Inactive)
REMARK    1  A    between atoms: C3_4  and  C4_7 
ROOT
ATOM      1  C1  <0> d          -0.815   1.625  -1.197  0.00  0.00     0.134 C 
ATOM      2  C2  <0> d          -0.013   1.086   0.008  0.00  0.00     0.047 C 
ATOM      3  O1  <0> d          -0.742   1.578   1.156  0.00  0.00    -0.349 OA
ATOM      4  C3  <0> d          -2.130   1.465   0.759  0.00  0.00     0.317 C 
ATOM      5  H1  <0> d          -2.469   0.427   0.889  0.00  0.00     0.148 H 
ATOM      6  N1  <0> d          -2.174   1.872  -0.663  0.00  0.00     0.123 N 
ATOM      7  H2  <0> d          -0.870   0.889  -2.013  0.00  0.00     0.083 H 
ATOM      8  H3  <0> d          -0.394   2.566  -1.579  0.00  0.00     0.083 H 
ATOM      9  H4  <0> d           0.011  -0.013  -0.030  0.00  0.00     0.077 H 
ATOM     10  H5  <0> d           1.015   1.477  -0.031  0.00  0.00     0.077 H 
ATOM     11  H6  <0> d          -2.420   2.939  -0.765  0.00  0.00     0.319 HD
ENDROOT
BRANCH   4  12
ATOM     12  C4  <0> d          -2.998   2.400   1.603  0.00  0.00     0.441 C 
ATOM     13  F1  <0> d          -2.522   3.711   1.487  0.00  0.00    -0.166 F 
ATOM     14  F2  <0> d          -4.321   2.342   1.152  0.00  0.00    -0.166 F 
ATOM     15  F3  <0> d          -2.945   2.002   2.944  0.00  0.00    -0.166 F 
ENDBRANCH   4  12
TORSDOF 1
