REMARK  2 active torsions:
REMARK  status: ('A' for Active; 'I' for Inactive)
REMARK    1  A    between atoms: C1_1  and  N1_2 
REMARK    2  A    between atoms: N2_5  and  C5_8 
ROOT
ATOM      1  N1  <0> d           1.201   1.895   0.001  0.00  0.00    -0.337 N 
ATOM      2  C2  <0> d           2.220   0.835  -0.015  0.00  0.00     0.014 A 
ATOM      3  C3  <0> d           1.397  -0.468  -0.014  0.00  0.00     0.014 A 
ATOM      4  N2  <0> d           0.002  -0.004   0.002  0.00  0.00    -0.337 N 
ATOM      5  C4  <0> d          -0.016   1.335   0.009  0.00  0.00     0.319 A 
ATOM      6  O1  <0> d          -1.044   1.984   0.018  0.00  0.00    -0.247 OA
ATOM      7  H4  <0> d           2.846   0.893   0.876  0.00  0.00     0.067 H 
ATOM      8  H5  <0> d           2.831   0.901  -0.915  0.00  0.00     0.067 H 
ATOM      9  H6  <0> d           1.615  -1.057   0.877  0.00  0.00     0.067 H 
ATOM     10  H7  <0> d           1.597  -1.050  -0.914  0.00  0.00     0.067 H 
ENDROOT
BRANCH   1  11
ATOM     11  C1  <0> d           1.473   3.334   0.006  0.00  0.00    -0.014 C 
ATOM     12  H1  <0> d           0.531   3.882   0.018  0.00  0.00     0.056 H 
ATOM     13  H2  <0> d           2.055   3.591   0.891  0.00  0.00     0.056 H 
ATOM     14  H3  <0> d           2.037   3.601  -0.888  0.00  0.00     0.056 H 
ENDBRANCH   1  11
BRANCH   4  15
ATOM     15  C5  <0> d          -1.180  -0.869   0.009  0.00  0.00    -0.014 C 
ATOM     16  H8  <0> d          -2.080  -0.254   0.020  0.00  0.00     0.056 H 
ATOM     17  H9  <0> d          -1.178  -1.494  -0.884  0.00  0.00     0.056 H 
ATOM     18  H10 <0> d          -1.162  -1.503   0.895  0.00  0.00     0.056 H 
ENDBRANCH   4  15
TORSDOF 2
