REMARK  3 active torsions:
REMARK  status: ('A' for Active; 'I' for Inactive)
REMARK    1  A    between atoms: C1_1  and  C2_2 
REMARK    2  A    between atoms: C2_2  and  C3_4 
REMARK    3  A    between atoms: C2_2  and  C6_7 
ROOT
ATOM      1  C2  <0> d          -2.179   0.893  -1.445  0.00  0.00     0.030 C 
ATOM      2  H1  <0> d          -2.686   0.253  -0.708  0.00  0.00     0.056 H 
ENDROOT
BRANCH   1   3
ATOM      3  C1  <0> d          -1.476   0.025  -2.490  0.00  0.00    -0.063 C 
ATOM      4  H2  <0> d          -2.216  -0.613  -2.995  0.00  0.00     0.028 H 
ATOM      5  H3  <0> d          -0.723  -0.606  -1.996  0.00  0.00     0.028 H 
ATOM      6  H4  <0> d          -0.983   0.672  -3.232  0.00  0.00     0.028 H 
ENDBRANCH   1   3
BRANCH   1   7
ATOM      7  C3  <0> d          -1.150   1.781  -0.743  0.00  0.00    -0.042 A 
ATOM      8  C5  <0> d          -1.136   1.773   0.788  0.00  0.00    -0.060 A 
ATOM      9  C4  <0> d          -0.013   1.086   0.008  0.00  0.00    -0.060 A 
ATOM     10  H8  <0> d          -1.106   2.808   1.160  0.00  0.00     0.033 H 
ATOM     11  H9  <0> d          -2.043   1.275   1.161  0.00  0.00     0.033 H 
ATOM     12  H6  <0> d           0.008   0.020  -0.264  0.00  0.00     0.033 H 
ATOM     13  H7  <0> d           0.946   1.552  -0.264  0.00  0.00     0.033 H 
ATOM     14  H5  <0> d          -1.210   2.561  -1.516  0.00  0.00     0.041 H 
ENDBRANCH   1   7
BRANCH   1  15
ATOM     15  C6  <0> d          -3.211   1.759  -2.122  0.00  0.00     0.177 C 
ATOM     16  O1  <0> d          -3.131   2.962  -2.050  0.00  0.00    -0.648 OA
ATOM     17  O2  <0> d          -4.218   1.193  -2.805  0.00  0.00    -0.648 OA
ENDBRANCH   1  15
TORSDOF 3
