REMARK  4 active torsions:
REMARK  status: ('A' for Active; 'I' for Inactive)
REMARK    1  A    between atoms: C1_1  and  C2_2 
REMARK    2  A    between atoms: C2_2  and  C3_3 
REMARK    3  A    between atoms: C6_6  and  O1_9 
REMARK    4  A    between atoms: O1_9  and  C8_10 
ROOT
ATOM      1  C3  <0> d          -1.412  -0.526   0.013  0.00  0.00    -0.041 A 
ATOM      2  C4  <0> d          -2.061  -0.769   1.216  0.00  0.00    -0.071 A 
ATOM      3  C5  <0> d          -3.358  -1.248   1.180  0.00  0.00    -0.031 A 
ATOM      4  C6  <0> d          -3.965  -1.466  -0.050  0.00  0.00     0.163 A 
ATOM      5  N1  <0> d          -3.314  -1.222  -1.175  0.00  0.00    -0.237 NA
ATOM      6  C7  <0> d          -2.078  -0.761  -1.173  0.00  0.00     0.011 A 
ATOM      7  H6  <0> d          -1.563  -0.590   2.158  0.00  0.00     0.084 H 
ATOM      8  H7  <0> d          -3.893  -1.449   2.097  0.00  0.00     0.090 H 
ATOM      9  H8  <0> d          -1.579  -0.569  -2.112  0.00  0.00     0.115 H 
ENDROOT
BRANCH   1  10
ATOM     10  C2  <0> d           0.002  -0.004   0.002  0.00  0.00    -0.043 C 
ATOM     11  H4  <0> d           0.512  -0.356  -0.895  0.00  0.00     0.039 H 
ATOM     12  H5  <0> d           0.529  -0.365   0.885  0.00  0.00     0.039 H 
BRANCH  10  13
ATOM     13  C1  <0> d          -0.019   1.526   0.010  0.00  0.00    -0.073 C 
ATOM     14  H1  <0> d           1.004   1.903   0.003  0.00  0.00     0.028 H 
ATOM     15  H2  <0> d          -0.546   1.887  -0.873  0.00  0.00     0.028 H 
ATOM     16  H3  <0> d          -0.529   1.877   0.907  0.00  0.00     0.028 H 
ENDBRANCH  10  13
ENDBRANCH   1  10
BRANCH   4  17
ATOM     17  O1  <0> d          -5.237  -1.935  -0.098  0.00  0.00    -0.339 OA
BRANCH  17  18
ATOM     18  C8  <0> d          -5.805  -2.139  -1.394  0.00  0.00     0.012 C 
ATOM     19  H9  <0> d          -6.823  -2.515  -1.290  0.00  0.00     0.067 H 
ATOM     20  H10 <0> d          -5.820  -1.194  -1.937  0.00  0.00     0.067 H 
ATOM     21  H11 <0> d          -5.205  -2.864  -1.943  0.00  0.00     0.067 H 
ENDBRANCH  17  18
ENDBRANCH   4  17
TORSDOF 4
