REMARK  8 active torsions:
REMARK  status: ('A' for Active; 'I' for Inactive)
REMARK    1  A    between atoms: C1_1  and  C2_2 
REMARK    2  A    between atoms: C2_2  and  C3_4 
REMARK    3  A    between atoms: C2_2  and  N1_11 
REMARK    4  A    between atoms: C3_4  and  O2_6 
REMARK    5  A    between atoms: O2_6  and  C4_7 
REMARK    6  A    between atoms: C4_7  and  C5_8 
REMARK    7  A    between atoms: C4_7  and  C6_9 
REMARK    8  A    between atoms: C4_7  and  C7_10 
ROOT
ATOM      1  C4  <0> d           2.592  -0.643  -2.656  0.00  0.00     0.060 C 
ENDROOT
BRANCH   1   2
ATOM      2  O2  <0> d           1.986  -0.147  -1.461  0.00  0.00    -0.310 OA
BRANCH   2   3
ATOM      3  C3  <0> d           0.707  -0.490  -1.238  0.00  0.00     0.292 C 
ATOM      4  O1  <0> d           0.122  -1.188  -2.031  0.00  0.00    -0.263 OA
BRANCH   3   5
ATOM      5  C2  <0> d           0.002  -0.004   0.002  0.00  0.00     0.209 C 
ATOM      6  H1  <0> d           0.529  -0.365   0.885  0.00  0.00     0.103 H 
BRANCH   5   7
ATOM      7  C1  <0> d          -0.019   1.526   0.010  0.00  0.00    -0.039 C 
ATOM      8  H2  <0> d           1.004   1.903   0.003  0.00  0.00     0.031 H 
ATOM      9  H3  <0> d          -0.546   1.887  -0.873  0.00  0.00     0.031 H 
ATOM     10  H4  <0> d          -0.529   1.877   0.907  0.00  0.00     0.031 H 
ENDBRANCH   5   7
BRANCH   5  11
ATOM     11  N1  <0> d          -1.376  -0.512   0.012  0.00  0.00     0.092 N 
ATOM     12  H14 <0> d          -1.391  -1.519  -0.058  0.00  0.00     0.313 HD
ATOM     13  H15 <0> d          -1.871  -0.200   0.835  0.00  0.00     0.313 HD
ENDBRANCH   5  11
ENDBRANCH   3   5
ENDBRANCH   2   3
ENDBRANCH   1   2
BRANCH   1  14
ATOM     14  C5  <0> d           1.812  -0.137  -3.871  0.00  0.00    -0.048 C 
ATOM     15  H5  <0> d           1.826   0.953  -3.882  0.00  0.00     0.031 H 
ATOM     16  H6  <0> d           2.275  -0.515  -4.783  0.00  0.00     0.031 H 
ATOM     17  H7  <0> d           0.782  -0.487  -3.814  0.00  0.00     0.031 H 
ENDBRANCH   1  14
BRANCH   1  18
ATOM     18  C6  <0> d           4.038  -0.152  -2.736  0.00  0.00    -0.048 C 
ATOM     19  H8  <0> d           4.594  -0.513  -1.871  0.00  0.00     0.031 H 
ATOM     20  H9  <0> d           4.501  -0.530  -3.648  0.00  0.00     0.031 H 
ATOM     21  H10 <0> d           4.052   0.938  -2.748  0.00  0.00     0.031 H 
ENDBRANCH   1  18
BRANCH   1  22
ATOM     22  C7  <0> d           2.573  -2.173  -2.640  0.00  0.00    -0.048 C 
ATOM     23  H11 <0> d           1.543  -2.523  -2.583  0.00  0.00     0.031 H 
ATOM     24  H12 <0> d           3.035  -2.552  -3.552  0.00  0.00     0.031 H 
ATOM     25  H13 <0> d           3.128  -2.534  -1.774  0.00  0.00     0.031 H 
ENDBRANCH   1  22
TORSDOF 8
