REMARK  1 active torsions:
REMARK  status: ('A' for Active; 'I' for Inactive)
REMARK    1  A    between atoms: C2_2  and  C3_3 
ROOT
ATOM      1  C1  <0> d           0.018  -1.178  -0.004  0.00  0.00    -0.149 C 
ATOM      2  C2  <0> d           0.002  -0.004   0.002  0.00  0.00    -0.078 C 
ATOM      3  H1  <0> d           0.032  -2.228  -0.010  0.00  0.00     0.166 H 
ENDROOT
BRANCH   2   4
ATOM      4  C3  <0> d          -0.017   1.428   0.010  0.00  0.00     0.018 A 
ATOM      5  C8  <0> d           1.179   2.144   0.002  0.00  0.00    -0.044 A 
ATOM      6  C7  <0> d           1.154   3.525   0.004  0.00  0.00     0.035 A 
ATOM      7  H5  <0> d           2.124   1.621  -0.010  0.00  0.00     0.088 H 
ATOM      8  C6  <0> d          -0.057   4.197   0.026  0.00  0.00    -0.062 A 
ATOM      9 Cl1  <0> d           2.641   4.420  -0.014  0.00  0.00    -0.084 Cl
ATOM     10  C5  <0> d          -1.246   3.491   0.039  0.00  0.00    -0.080 A 
ATOM     11  H4  <0> d          -0.072   5.277   0.032  0.00  0.00     0.086 H 
ATOM     12  C4  <0> d          -1.234   2.112   0.031  0.00  0.00    -0.065 A 
ATOM     13  H3  <0> d          -2.187   4.021   0.055  0.00  0.00     0.083 H 
ATOM     14  H2  <0> d          -2.163   1.562   0.041  0.00  0.00     0.085 H 
ENDBRANCH   2   4
TORSDOF 1
