REMARK  4 active torsions:
REMARK  status: ('A' for Active; 'I' for Inactive)
REMARK    1  A    between atoms: C1_1  and  C2_2 
REMARK    2  A    between atoms: C5_6  and  C9_12 
REMARK    3  A    between atoms: C6_8  and  C8_11 
REMARK    4  A    between atoms: C9_12  and  O1_13 
ROOT
ATOM      1  C2  <0> d          -0.729   1.579   1.267  0.00  0.00    -0.057 C 
ATOM      2  H1  <0> d          -0.744   2.669   1.273  0.00  0.00     0.039 H 
ATOM      3  C3  <0> d           0.011   1.072   2.506  0.00  0.00    -0.062 C 
ATOM      4  C4  <0> d           0.032  -0.457   2.498  0.00  0.00    -0.059 C 
ATOM      5  C5  <0> d          -1.403  -0.987   2.509  0.00  0.00    -0.030 C 
ATOM      6  H2  <0> d          -1.914  -0.635   3.406  0.00  0.00     0.043 H 
ATOM      7  C6  <0> d          -2.143  -0.480   1.269  0.00  0.00    -0.052 C 
ATOM      8  H3  <0> d          -1.633  -0.832   0.372  0.00  0.00     0.040 H 
ATOM      9  C7  <0> d          -2.164   1.050   1.278  0.00  0.00    -0.059 C 
ATOM     10  H7  <0> d           1.034   1.450   2.499  0.00  0.00     0.033 H 
ATOM     11  H8  <0> d          -0.499   1.424   3.403  0.00  0.00     0.033 H 
ATOM     12  H9  <0> d           0.542  -0.809   1.601  0.00  0.00     0.033 H 
ATOM     13  H10 <0> d           0.559  -0.819   3.381  0.00  0.00     0.033 H 
ATOM     14  H11 <0> d          -2.674   1.401   2.175  0.00  0.00     0.034 H 
ATOM     15  H12 <0> d          -2.691   1.411   0.395  0.00  0.00     0.034 H 
ENDROOT
BRANCH   5  16
ATOM     16  C9  <0> d          -1.383  -2.517   2.500  0.00  0.00     0.020 C 
ATOM     17  H16 <0> d          -2.402  -2.894   2.418  0.00  0.00     0.074 H 
ATOM     18  H17 <0> d          -0.796  -2.868   1.651  0.00  0.00     0.074 H 
BRANCH  16  19
ATOM     19  O1  <0> d          -0.795  -2.992   3.713  0.00  0.00    -0.400 OA
ATOM     20  H18 <0> d          -0.749  -3.956   3.777  0.00  0.00     0.209 HD
ENDBRANCH  16  19
ENDBRANCH   5  16
BRANCH   7  21
ATOM     21  C8  <0> d          -3.579  -1.010   1.280  0.00  0.00    -0.072 C 
ATOM     22  H13 <0> d          -4.089  -0.658   2.177  0.00  0.00     0.028 H 
ATOM     23  H14 <0> d          -4.106  -0.649   0.397  0.00  0.00     0.028 H 
ATOM     24  H15 <0> d          -3.564  -2.100   1.274  0.00  0.00     0.028 H 
ENDBRANCH   7  21
BRANCH   1  25
ATOM     25  C1  <0> d          -0.013   1.086   0.008  0.00  0.00    -0.073 C 
ATOM     26  H4  <0> d           0.002  -0.004   0.002  0.00  0.00     0.028 H 
ATOM     27  H5  <0> d           1.010   1.463   0.000  0.00  0.00     0.028 H 
ATOM     28  H6  <0> d          -0.540   1.447  -0.875  0.00  0.00     0.028 H 
ENDBRANCH   1  25
TORSDOF 4
