REMARK  6 active torsions:
REMARK  status: ('A' for Active; 'I' for Inactive)
REMARK    1  A    between atoms: C1_1  and  O1_2 
REMARK    2  A    between atoms: O1_2  and  C2_3 
REMARK    3  A    between atoms: C2_3  and  C3_5 
REMARK    4  A    between atoms: C3_5  and  C4_6 
REMARK    5  A    between atoms: C4_6  and  S1_7 
REMARK    6  A    between atoms: S1_7  and  O4_9 
ROOT
ATOM      1  C3  <0> d          -0.855   3.478  -1.704  0.00  0.00     0.028 C 
ATOM      2  H4  <0> d           0.157   3.906  -1.648  0.00  0.00     0.049 H 
ATOM      3  H5  <0> d          -1.469   3.880  -0.885  0.00  0.00     0.049 H 
ENDROOT
BRANCH   1   4
ATOM      4  C2  <0> d          -1.481   3.841  -3.026  0.00  0.00     0.259 C 
ATOM      5  O2  <0> d          -1.826   2.972  -3.791  0.00  0.00    -0.265 OA
BRANCH   4   6
ATOM      6  O1  <0> d          -1.656   5.131  -3.354  0.00  0.00    -0.326 OA
BRANCH   6   7
ATOM      7  C1  <0> d          -2.265   5.407  -4.643  0.00  0.00     0.013 C 
ATOM      8  H1  <0> d          -2.349   6.495  -4.783  0.00  0.00     0.067 H 
ATOM      9  H2  <0> d          -3.267   4.955  -4.679  0.00  0.00     0.067 H 
ATOM     10  H3  <0> d          -1.641   4.981  -5.442  0.00  0.00     0.067 H 
ENDBRANCH   6   7
ENDBRANCH   4   6
ENDBRANCH   1   4
BRANCH   1  11
ATOM     11  C4  <0> d          -0.772   1.955  -1.581  0.00  0.00     0.036 C 
ATOM     12  H6  <0> d          -1.784   1.527  -1.637  0.00  0.00     0.056 H 
ATOM     13  H7  <0> d          -0.158   1.554  -2.400  0.00  0.00     0.056 H 
BRANCH  11  14
ATOM     14  S1  <0> d          -0.019   1.518   0.010  0.00  0.00     0.150 S 
ATOM     15  O3  <0> d           1.355   1.880  -0.001  0.00  0.00    -0.229 OA
BRANCH  14  16
ATOM     16  O4  <0> d           0.002  -0.004   0.002  0.00  0.00    -0.306 OA
ATOM     17  H8  <0> d           0.414  -0.553   0.861  0.00  0.00     0.230 HD
ENDBRANCH  14  16
ENDBRANCH  11  14
ENDBRANCH   1  11
TORSDOF 6
