REMARK  5 active torsions:
REMARK  status: ('A' for Active; 'I' for Inactive)
REMARK    1  A    between atoms: C1_1  and  C2_2 
REMARK    2  A    between atoms: C2_2  and  C3_3 
REMARK    3  A    between atoms: C3_3  and  C4_4 
REMARK    4  A    between atoms: C4_4  and  C5_5 
REMARK    5  A    between atoms: N1_9  and  C9_10 
ROOT
ATOM      1  C9  <0> d           3.430   0.747  -0.027  0.00  0.00     0.006 C 
ATOM      2  C10 <0> d           4.604   0.763  -0.039  0.00  0.00    -0.131 C 
ATOM      3  H13 <0> d           5.654   0.778  -0.049  0.00  0.00     0.169 H 
ENDROOT
BRANCH   1   4
ATOM      4  N1  <0> d           2.075   0.729  -0.014  0.00  0.00    -0.287 N 
ATOM      5  C5  <0> d           1.264   1.828  -0.000  0.00  0.00     0.025 A 
ATOM      6  C6  <0> d          -0.017   1.405   0.010  0.00  0.00    -0.059 A 
ATOM      7  C7  <0> d           0.002  -0.004   0.002  0.00  0.00    -0.065 A 
ATOM      8  H10 <0> d          -0.896   2.032   0.018  0.00  0.00     0.086 H 
ATOM      9  C8  <0> d           1.294  -0.392  -0.012  0.00  0.00    -0.006 A 
ATOM     10  H11 <0> d          -0.860  -0.655   0.006  0.00  0.00     0.085 H 
ATOM     11  H12 <0> d           1.649  -1.411  -0.022  0.00  0.00     0.113 H 
BRANCH   5  12
ATOM     12  C4  <0> d           1.720   3.264   0.002  0.00  0.00    -0.026 C 
ATOM     13  H8  <0> d           2.714   3.330  -0.441  0.00  0.00     0.042 H 
ATOM     14  H9  <0> d           1.023   3.868  -0.577  0.00  0.00     0.042 H 
BRANCH  12  15
ATOM     15  C3  <0> d           1.769   3.781   1.442  0.00  0.00    -0.060 C 
ATOM     16  H6  <0> d           0.776   3.715   1.885  0.00  0.00     0.033 H 
ATOM     17  H7  <0> d           2.467   3.177   2.021  0.00  0.00     0.033 H 
BRANCH  15  18
ATOM     18  C2  <0> d           2.233   5.239   1.444  0.00  0.00    -0.068 C 
ATOM     19  H4  <0> d           3.226   5.305   1.000  0.00  0.00     0.032 H 
ATOM     20  H5  <0> d           1.535   5.843   0.865  0.00  0.00     0.032 H 
BRANCH  18  21
ATOM     21  C1  <0> d           2.282   5.756   2.883  0.00  0.00    -0.077 C 
ATOM     22  H1  <0> d           1.288   5.690   3.327  0.00  0.00     0.027 H 
ATOM     23  H2  <0> d           2.980   5.152   3.463  0.00  0.00     0.027 H 
ATOM     24  H3  <0> d           2.612   6.795   2.885  0.00  0.00     0.027 H 
ENDBRANCH  18  21
ENDBRANCH  15  18
ENDBRANCH  12  15
ENDBRANCH   5  12
ENDBRANCH   1   4
TORSDOF 5
