REMARK  2 active torsions:
REMARK  status: ('A' for Active; 'I' for Inactive)
REMARK    1  A    between atoms: C1_1  and  C2_2 
REMARK    2  A    between atoms: C4_5  and  C7_10 
ROOT
ATOM      1  C2  <0> d          -0.729   1.579   1.267  0.00  0.00     0.036 C 
ATOM      2  H1  <0> d          -0.744   2.669   1.273  0.00  0.00     0.082 H 
ATOM      3  C3  <0> d          -2.165   1.048   1.279  0.00  0.00    -0.029 C 
ATOM      4  C4  <0> d          -2.134  -0.482   1.331  0.00  0.00     0.035 C 
ATOM      5  H2  <0> d          -1.656  -0.870   0.431  0.00  0.00     0.056 H 
ATOM      6  C5  <0> d          -1.341  -0.924   2.564  0.00  0.00    -0.033 C 
ATOM      7  C6  <0> d           0.063  -0.317   2.503  0.00  0.00     0.021 C 
ATOM      8  O1  <0> d          -0.038   1.106   2.425  0.00  0.00    -0.386 OA
ATOM      9  H6  <0> d          -2.688   1.432   2.154  0.00  0.00     0.038 H 
ATOM     10  H7  <0> d          -2.680   1.372   0.374  0.00  0.00     0.038 H 
ATOM     11  H8  <0> d          -1.267  -2.012   2.579  0.00  0.00     0.037 H 
ATOM     12  H9  <0> d          -1.847  -0.580   3.466  0.00  0.00     0.037 H 
ATOM     13  H10 <0> d           0.584  -0.694   1.622  0.00  0.00     0.074 H 
ATOM     14  H11 <0> d           0.618  -0.594   3.399  0.00  0.00     0.074 H 
ENDROOT
BRANCH   1  15
ATOM     15  C1  <0> d          -0.013   1.086   0.008  0.00  0.00    -0.052 C 
ATOM     16  H3  <0> d           0.002  -0.004   0.002  0.00  0.00     0.030 H 
ATOM     17  H4  <0> d           1.010   1.463   0.000  0.00  0.00     0.030 H 
ATOM     18  H5  <0> d          -0.540   1.447  -0.875  0.00  0.00     0.030 H 
ENDBRANCH   1  15
BRANCH   4  19
ATOM     19  C7  <0> d          -3.542  -1.012   1.421  0.00  0.00     0.177 C 
ATOM     20  O2  <0> d          -4.476  -0.245   1.433  0.00  0.00    -0.648 OA
ATOM     21  O3  <0> d          -3.759  -2.335   1.487  0.00  0.00    -0.648 OA
ENDBRANCH   4  19
TORSDOF 2
