REMARK  3 active torsions:
REMARK  status: ('A' for Active; 'I' for Inactive)
REMARK    1  A    between atoms: C1_1  and  N1_2 
REMARK    2  A    between atoms: N1_2  and  C2_3 
REMARK    3  A    between atoms: N1_2  and  C3_4 
ROOT
ATOM      1  C3  <0> d           1.097   2.031   0.003  0.00  0.00     0.126 A 
ATOM      2  C4  <0> d           2.341   1.410  -0.013  0.00  0.00    -0.019 A 
ATOM      3  C5  <0> d           2.399   0.015  -0.021  0.00  0.00     0.049 A 
ATOM      4  C6  <0> d           1.193  -0.698  -0.013  0.00  0.00    -0.046 A 
ATOM      5  C7  <0> d           0.002  -0.004   0.002  0.00  0.00     0.006 A 
ATOM      6  N2  <0> d          -0.016   1.315   0.009  0.00  0.00    -0.243 NA
ATOM      7  C8  <0> d           3.658  -0.668  -0.037  0.00  0.00     0.099 C 
ATOM      8  N3  <0> d           4.656  -1.210  -0.050  0.00  0.00    -0.191 NA
ATOM      9  H7  <0> d           3.248   1.997  -0.018  0.00  0.00     0.091 H 
ATOM     10  H8  <0> d           1.197  -1.778  -0.019  0.00  0.00     0.088 H 
ATOM     11  H9  <0> d          -0.931  -0.549   0.008  0.00  0.00     0.114 H 
ENDROOT
BRANCH   1  12
ATOM     12  N1  <0> d           1.022   3.420   0.010  0.00  0.00    -0.374 N 
BRANCH  12  13
ATOM     13  C1  <0> d           2.244   4.220  -0.108  0.00  0.00    -0.018 C 
ATOM     14  H1  <0> d           3.113   3.552  -0.192  0.00  0.00     0.056 H 
ATOM     15  H2  <0> d           2.354   4.854   0.784  0.00  0.00     0.056 H 
ATOM     16  H3  <0> d           2.181   4.855  -1.004  0.00  0.00     0.056 H 
ENDBRANCH  12  13
BRANCH  12  17
ATOM     17  C2  <0> d          -0.278   4.082   0.136  0.00  0.00    -0.018 C 
ATOM     18  H4  <0> d          -1.071   3.323   0.213  0.00  0.00     0.056 H 
ATOM     19  H5  <0> d          -0.457   4.711  -0.749  0.00  0.00     0.056 H 
ATOM     20  H6  <0> d          -0.284   4.710   1.039  0.00  0.00     0.056 H 
ENDBRANCH  12  17
ENDBRANCH   1  12
TORSDOF 3
