REMARK  1 active torsions:
REMARK  status: ('A' for Active; 'I' for Inactive)
REMARK    1  A    between atoms: C6_6  and  N1_7 
ROOT
ATOM      1  C1  <0> d          -0.049   4.511   0.025  0.00  0.00    -0.038 A 
ATOM      2  C2  <0> d          -1.249   3.800   0.033  0.00  0.00     0.048 A 
ATOM      3  C3  <0> d          -1.228   2.404   0.021  0.00  0.00    -0.042 A 
ATOM      4  C4  <0> d          -0.021   1.732   0.012  0.00  0.00     0.037 A 
ATOM      5  C5  <0> d           1.168   2.437   0.004  0.00  0.00    -0.037 A 
ATOM      6  C6  <0> d           1.157   3.827   0.011  0.00  0.00     0.028 A 
ATOM      7 Cl1  <0> d           0.002  -0.004   0.002  0.00  0.00    -0.084 Cl
ATOM      8  C7  <0> d          -2.499   4.500   0.048  0.00  0.00     0.099 C 
ATOM      9  N2  <0> d          -3.490   5.054   0.059  0.00  0.00    -0.191 NA
ATOM     10  H1  <0> d          -0.059   5.591   0.031  0.00  0.00     0.089 H 
ATOM     11  H2  <0> d          -2.155   1.850   0.023  0.00  0.00     0.088 H 
ATOM     12  H3  <0> d           2.109   1.907  -0.007  0.00  0.00     0.089 H 
ENDROOT
BRANCH   6  13
ATOM     13  N1  <0> d           2.361   4.535   0.003  0.00  0.00    -0.399 N 
ATOM     14  H4  <0> d           3.205   4.057  -0.007  0.00  0.00     0.156 HD
ATOM     15  H5  <0> d           2.354   5.505   0.008  0.00  0.00     0.156 HD
ENDBRANCH   6  13
TORSDOF 1
