REMARK  4 active torsions:
REMARK  status: ('A' for Active; 'I' for Inactive)
REMARK    1  A    between atoms: C1_1  and  C2_2 
REMARK    2  A    between atoms: C4_4  and  O1_11 
REMARK    3  A    between atoms: C6_7  and  C8_9 
REMARK    4  A    between atoms: C6_7  and  C9_10 
ROOT
ATOM      1  C2  <0> d           2.776   1.900   1.940  0.00  0.00    -0.084 C 
ATOM      2  C3  <0> d           2.049   1.116   1.211  0.00  0.00    -0.074 C 
ATOM      3  C4  <0> d           1.286   1.562  -0.002  0.00  0.00     0.053 C 
ATOM      4  H1  <0> d           1.821   1.251  -0.899  0.00  0.00     0.089 H 
ATOM      5  C5  <0> d           1.142   3.085   0.001  0.00  0.00    -0.031 C 
ATOM      6  C6  <0> d           2.523   3.704   0.249  0.00  0.00    -0.042 C 
ATOM      7  C7  <0> d           2.949   3.368   1.680  0.00  0.00    -0.039 C 
ATOM      8  H5  <0> d           1.987   0.075   1.494  0.00  0.00     0.081 H 
ATOM      9  H6  <0> d           0.762   3.419  -0.965  0.00  0.00     0.038 H 
ATOM     10  H7  <0> d           0.456   3.387   0.792  0.00  0.00     0.038 H 
ATOM     11  H8  <0> d           2.337   3.934   2.382  0.00  0.00     0.040 H 
ATOM     12  H9  <0> d           3.997   3.638   1.817  0.00  0.00     0.040 H 
ENDROOT
BRANCH   6  13
ATOM     13  C8  <0> d           2.445   5.222   0.079  0.00  0.00    -0.069 C 
ATOM     14  H10 <0> d           3.423   5.661   0.277  0.00  0.00     0.028 H 
ATOM     15  H11 <0> d           2.141   5.458  -0.941  0.00  0.00     0.028 H 
ATOM     16  H12 <0> d           1.716   5.630   0.779  0.00  0.00     0.028 H 
ENDBRANCH   6  13
BRANCH   6  17
ATOM     17  C9  <0> d           3.538   3.127  -0.739  0.00  0.00    -0.069 C 
ATOM     18  H13 <0> d           3.586   2.044  -0.620  0.00  0.00     0.028 H 
ATOM     19  H14 <0> d           3.232   3.367  -1.757  0.00  0.00     0.028 H 
ATOM     20  H15 <0> d           4.520   3.557  -0.544  0.00  0.00     0.028 H 
ENDBRANCH   6  17
BRANCH   3  21
ATOM     21  O1  <0> d          -0.011   0.963   0.007  0.00  0.00    -0.392 OA
ATOM     22  H16 <0> d           0.002  -0.004   0.002  0.00  0.00     0.210 HD
ENDBRANCH   3  21
BRANCH   1  23
ATOM     23  C1  <0> d           3.492   1.303   3.124  0.00  0.00    -0.055 C 
ATOM     24  H2  <0> d           3.271   0.237   3.183  0.00  0.00     0.033 H 
ATOM     25  H3  <0> d           4.566   1.445   3.008  0.00  0.00     0.033 H 
ATOM     26  H4  <0> d           3.157   1.794   4.037  0.00  0.00     0.033 H 
ENDBRANCH   1  23
TORSDOF 4
