REMARK  7 active torsions:
REMARK  status: ('A' for Active; 'I' for Inactive)
REMARK    1  A    between atoms: C1_1  and  C2_2 
REMARK    2  A    between atoms: C2_2  and  C3_4 
REMARK    3  A    between atoms: C2_2  and  O2_11 
REMARK    4  A    between atoms: C3_4  and  C4_5 
REMARK    5  A    between atoms: C4_5  and  C5_7 
REMARK    6  A    between atoms: C4_5  and  O1_10 
REMARK    7  A    between atoms: C5_7  and  C6_8 
ROOT
ATOM      1  C4  <0> d           1.397   3.581  -0.118  0.00  0.00     0.041 C 
ATOM      2  H2  <0> d           0.785   3.999   0.682  0.00  0.00     0.083 H 
ENDROOT
BRANCH   1   3
ATOM      3  C3  <0> d           1.417   2.055  -0.000  0.00  0.00    -0.017 C 
ATOM      4  H6  <0> d           1.917   1.769   0.925  0.00  0.00     0.040 H 
ATOM      5  H7  <0> d           1.954   1.633  -0.850  0.00  0.00     0.040 H 
BRANCH   3   6
ATOM      6  C2  <0> d          -0.019   1.526   0.010  0.00  0.00     0.034 C 
ATOM      7  H1  <0> d          -0.546   1.887  -0.873  0.00  0.00     0.082 H 
BRANCH   6   8
ATOM      8  C1  <0> d           0.002  -0.004   0.002  0.00  0.00    -0.052 C 
ATOM      9  H3  <0> d           0.529  -0.365   0.885  0.00  0.00     0.030 H 
ATOM     10  H4  <0> d          -1.020  -0.381   0.010  0.00  0.00     0.030 H 
ATOM     11  H5  <0> d           0.512  -0.356  -0.895  0.00  0.00     0.030 H 
ENDBRANCH   6   8
BRANCH   6  12
ATOM     12  O2  <0> d          -0.688   1.987   1.186  0.00  0.00    -0.396 OA
ATOM     13  H14 <0> d          -0.272   1.702   2.012  0.00  0.00     0.210 HD
ENDBRANCH   6  12
ENDBRANCH   3   6
ENDBRANCH   1   3
BRANCH   1  14
ATOM     14  C5  <0> d           2.824   4.120  -0.003  0.00  0.00    -0.026 C 
ATOM     15  H8  <0> d           3.275   3.761   0.922  0.00  0.00     0.042 H 
ATOM     16  H9  <0> d           3.413   3.773  -0.853  0.00  0.00     0.042 H 
BRANCH  14  17
ATOM     17  C6  <0> d           2.793   5.627   0.004  0.00  0.00    -0.110 C 
ATOM     18  C7  <0> d           3.356   6.288   0.985  0.00  0.00    -0.125 C 
ATOM     19  H11 <0> d           3.333   7.368   0.990  0.00  0.00     0.066 H 
ATOM     20  H12 <0> d           3.843   5.754   1.787  0.00  0.00     0.066 H 
ATOM     21  H10 <0> d           2.306   6.161  -0.798  0.00  0.00     0.075 H 
ENDBRANCH  14  17
ENDBRANCH   1  14
BRANCH   1  22
ATOM     22  O1  <0> d           0.846   3.954  -1.383  0.00  0.00    -0.395 OA
ATOM     23  H13 <0> d           1.341   3.616  -2.142  0.00  0.00     0.210 HD
ENDBRANCH   1  22
TORSDOF 7
