REMARK  4 active torsions:
REMARK  status: ('A' for Active; 'I' for Inactive)
REMARK    1  A    between atoms: C1_1  and  N1_2 
REMARK    2  A    between atoms: C4_6  and  C5_7 
REMARK    3  A    between atoms: C5_7  and  O2_9 
REMARK    4  A    between atoms: O2_9  and  C6_10 
ROOT
ATOM      1  N1  <0> d           0.595   3.190   0.013  0.00  0.00    -0.340 N 
ATOM      2  C2  <0> d          -0.747   3.107   0.025  0.00  0.00     0.066 A 
ATOM      3  N2  <0> d          -1.100   1.847   0.017  0.00  0.00    -0.253 NA
ATOM      4  C3  <0> d          -0.013   1.076   0.008  0.00  0.00     0.035 A 
ATOM      5  C4  <0> d           1.081   1.897   0.002  0.00  0.00     0.128 A 
ATOM      6  H4  <0> d          -1.426   3.947   0.035  0.00  0.00     0.143 H 
ATOM      7  H5  <0> d           0.002  -0.004   0.002  0.00  0.00     0.118 H 
ENDROOT
BRANCH   5   8
ATOM      8  C5  <0> d           2.488   1.486  -0.014  0.00  0.00     0.311 C 
ATOM      9  O1  <0> d           2.777   0.305  -0.022  0.00  0.00    -0.258 OA
BRANCH   8  10
ATOM     10  O2  <0> d           3.463   2.419  -0.018  0.00  0.00    -0.321 OA
BRANCH  10  11
ATOM     11  C6  <0> d           4.833   1.940  -0.034  0.00  0.00     0.013 C 
ATOM     12  H6  <0> d           5.016   1.331   0.851  0.00  0.00     0.067 H 
ATOM     13  H7  <0> d           4.998   1.340  -0.929  0.00  0.00     0.067 H 
ATOM     14  H8  <0> d           5.515   2.791  -0.036  0.00  0.00     0.067 H 
ENDBRANCH  10  11
ENDBRANCH   8  10
ENDBRANCH   5   8
BRANCH   1  15
ATOM     15  C1  <0> d           1.391   4.420   0.012  0.00  0.00    -0.013 C 
ATOM     16  H1  <0> d           1.580   4.730  -1.016  0.00  0.00     0.057 H 
ATOM     17  H2  <0> d           0.846   5.206   0.534  0.00  0.00     0.057 H 
ATOM     18  H3  <0> d           2.340   4.239   0.516  0.00  0.00     0.057 H 
ENDBRANCH   1  15
TORSDOF 4
