REMARK  6 active torsions:
REMARK  status: ('A' for Active; 'I' for Inactive)
REMARK    1  A    between atoms: C1_1  and  C2_2 
REMARK    2  A    between atoms: C2_2  and  C3_3 
REMARK    3  A    between atoms: C3_3  and  C4_4 
REMARK    4  A    between atoms: C3_3  and  C5_5 
REMARK    5  A    between atoms: C3_3  and  O1_6 
REMARK    6  A    between atoms: O1_6  and  C6_7 
ROOT
ATOM      1  C3  <0> d          -1.433  -0.534   0.013  0.00  0.00     0.052 C 
ENDROOT
BRANCH   1   2
ATOM      2  C2  <0> d           0.002  -0.004   0.002  0.00  0.00    -0.040 C 
ATOM      3  H4  <0> d           0.512  -0.356  -0.895  0.00  0.00     0.036 H 
ATOM      4  H5  <0> d           0.529  -0.365   0.885  0.00  0.00     0.036 H 
BRANCH   2   5
ATOM      5  C1  <0> d          -0.019   1.526   0.010  0.00  0.00    -0.074 C 
ATOM      6  H1  <0> d           1.004   1.903   0.003  0.00  0.00     0.027 H 
ATOM      7  H2  <0> d          -0.546   1.887  -0.873  0.00  0.00     0.027 H 
ATOM      8  H3  <0> d          -0.529   1.877   0.907  0.00  0.00     0.027 H 
ENDBRANCH   2   5
ENDBRANCH   1   2
BRANCH   1   9
ATOM      9  C4  <0> d          -1.413  -2.059   0.130  0.00  0.00    -0.048 C 
ATOM     10  H6  <0> d          -0.913  -2.346   1.055  0.00  0.00     0.031 H 
ATOM     11  H7  <0> d          -2.436  -2.436   0.138  0.00  0.00     0.031 H 
ATOM     12  H8  <0> d          -0.876  -2.482  -0.719  0.00  0.00     0.031 H 
ENDBRANCH   1   9
BRANCH   1  13
ATOM     13  C5  <0> d          -2.187   0.060   1.205  0.00  0.00    -0.048 C 
ATOM     14  H9  <0> d          -2.201   1.146   1.121  0.00  0.00     0.031 H 
ATOM     15  H10 <0> d          -3.209  -0.318   1.213  0.00  0.00     0.031 H 
ATOM     16  H11 <0> d          -1.687  -0.227   2.130  0.00  0.00     0.031 H 
ENDBRANCH   1  13
BRANCH   1  17
ATOM     17  O1  <0> d          -2.089  -0.158  -1.200  0.00  0.00    -0.386 OA
BRANCH  17  18
ATOM     18  C6  <0> d          -3.443  -0.606  -1.292  0.00  0.00     0.005 C 
ATOM     19  H12 <0> d          -3.870  -0.280  -2.240  0.00  0.00     0.066 H 
ATOM     20  H13 <0> d          -3.470  -1.694  -1.235  0.00  0.00     0.066 H 
ATOM     21  H14 <0> d          -4.021  -0.184  -0.469  0.00  0.00     0.066 H 
ENDBRANCH  17  18
ENDBRANCH   1  17
TORSDOF 6
