REMARK  4 active torsions:
REMARK  status: ('A' for Active; 'I' for Inactive)
REMARK    1  A    between atoms: C1_1  and  C2_2 
REMARK    2  A    between atoms: C2_2  and  C3_3 
REMARK    3  A    between atoms: C3_3  and  C7_10 
REMARK    4  A    between atoms: C7_10  and  C8_11 
ROOT
ATOM      1  C3  <0> d           2.222   1.130  -0.682  0.00  0.00    -0.009 C 
ATOM      2  C4  <0> d           1.140   1.932   0.048  0.00  0.00     0.005 C 
ATOM      3  N1  <0> d          -0.149   1.256  -0.109  0.00  0.00    -0.342 N 
ATOM      4  C5  <0> d          -0.224  -0.075  -0.262  0.00  0.00     0.316 C 
ATOM      5  O1  <0> d          -1.320  -0.588  -0.378  0.00  0.00    -0.247 OA
ATOM      6  N2  <0> d           0.862  -0.861  -0.293  0.00  0.00    -0.342 N 
ATOM      7  C6  <0> d           2.209  -0.306  -0.146  0.00  0.00     0.005 C 
ATOM      8  H6  <0> d           1.080   2.934  -0.378  0.00  0.00     0.065 H 
ATOM      9  H7  <0> d           1.389   2.000   1.107  0.00  0.00     0.065 H 
ATOM     10  H8  <0> d          -0.964   1.780  -0.106  0.00  0.00     0.164 HD
ATOM     11  H9  <0> d           0.753  -1.817  -0.414  0.00  0.00     0.164 HD
ATOM     12  H10 <0> d           2.490  -0.305   0.907  0.00  0.00     0.065 H 
ATOM     13  H11 <0> d           2.917  -0.913  -0.711  0.00  0.00     0.065 H 
ENDROOT
BRANCH   1  14
ATOM     14  C2  <0> d           3.591   1.761  -0.425  0.00  0.00    -0.058 C 
ATOM     15  H4  <0> d           4.361   1.179  -0.932  0.00  0.00     0.033 H 
ATOM     16  H5  <0> d           3.598   2.782  -0.807  0.00  0.00     0.033 H 
BRANCH  14  17
ATOM     17  C1  <0> d           3.872   1.778   1.078  0.00  0.00    -0.076 C 
ATOM     18  H1  <0> d           4.848   2.228   1.261  0.00  0.00     0.027 H 
ATOM     19  H2  <0> d           3.103   2.360   1.585  0.00  0.00     0.027 H 
ATOM     20  H3  <0> d           3.866   0.757   1.460  0.00  0.00     0.027 H 
ENDBRANCH  14  17
ENDBRANCH   1  14
BRANCH   1  21
ATOM     21  C7  <0> d           1.929   1.120  -2.184  0.00  0.00    -0.058 C 
ATOM     22  H12 <0> d           0.992   0.595  -2.368  0.00  0.00     0.033 H 
ATOM     23  H13 <0> d           1.847   2.146  -2.544  0.00  0.00     0.033 H 
BRANCH  21  24
ATOM     24  C8  <0> d           3.066   0.410  -2.921  0.00  0.00    -0.076 C 
ATOM     25  H14 <0> d           3.992   0.969  -2.785  0.00  0.00     0.027 H 
ATOM     26  H15 <0> d           3.187  -0.596  -2.518  0.00  0.00     0.027 H 
ATOM     27  H16 <0> d           2.829   0.350  -3.983  0.00  0.00     0.027 H 
ENDBRANCH  21  24
ENDBRANCH   1  21
TORSDOF 4
