REMARK  6 active torsions:
REMARK  status: ('A' for Active; 'I' for Inactive)
REMARK    1  A    between atoms: C1_1  and  C2_2 
REMARK    2  A    between atoms: C2_2  and  C3_3 
REMARK    3  A    between atoms: C2_2  and  C4_4 
REMARK    4  A    between atoms: C4_4  and  C5_5 
REMARK    5  A    between atoms: C5_5  and  C6_6 
REMARK    6  A    between atoms: C5_5  and  C7_7 
ROOT
ATOM      1  C5  <0> d           0.033   1.105  -0.094  0.00  0.00     0.042 C 
ATOM      2  C8  <0> d          -0.051  -0.362  -0.195  0.00  0.00     0.068 C 
ATOM      3  N1  <0> d          -0.117  -1.493  -0.273  0.00  0.00    -0.196 NA
ENDROOT
BRANCH   1   4
ATOM      4  C4  <0> d           1.457   1.508   0.296  0.00  0.00    -0.044 C 
ATOM      5  H8  <0> d           1.711   1.060   1.257  0.00  0.00     0.036 H 
ATOM      6  H9  <0> d           2.155   1.157  -0.464  0.00  0.00     0.036 H 
BRANCH   4   7
ATOM      7  C2  <0> d           1.544   3.031   0.405  0.00  0.00    -0.060 C 
ATOM      8  H4  <0> d           0.996   3.486  -0.420  0.00  0.00     0.038 H 
BRANCH   7   9
ATOM      9  C1  <0> d           0.933   3.483   1.733  0.00  0.00    -0.073 C 
ATOM     10  H1  <0> d          -0.151   3.376   1.690  0.00  0.00     0.028 H 
ATOM     11  H2  <0> d           1.327   2.869   2.542  0.00  0.00     0.028 H 
ATOM     12  H3  <0> d           1.187   4.528   1.913  0.00  0.00     0.028 H 
ENDBRANCH   7   9
BRANCH   7  13
ATOM     13  C3  <0> d           3.010   3.464   0.344  0.00  0.00    -0.073 C 
ATOM     14  H5  <0> d           3.445   3.142  -0.602  0.00  0.00     0.028 H 
ATOM     15  H6  <0> d           3.072   4.550   0.421  0.00  0.00     0.028 H 
ATOM     16  H7  <0> d           3.557   3.009   1.169  0.00  0.00     0.028 H 
ENDBRANCH   7  13
ENDBRANCH   4   7
ENDBRANCH   1   4
BRANCH   1  17
ATOM     17  C6  <0> d          -0.322   1.730  -1.444  0.00  0.00    -0.057 C 
ATOM     18  H10 <0> d          -1.336   1.443  -1.722  0.00  0.00     0.029 H 
ATOM     19  H11 <0> d          -0.260   2.816  -1.370  0.00  0.00     0.029 H 
ATOM     20  H12 <0> d           0.376   1.377  -2.203  0.00  0.00     0.029 H 
ENDBRANCH   1  17
BRANCH   1  21
ATOM     21  C7  <0> d          -0.947   1.600   0.971  0.00  0.00    -0.057 C 
ATOM     22  H13 <0> d          -0.495   1.496   1.957  0.00  0.00     0.029 H 
ATOM     23  H14 <0> d          -1.184   2.648   0.788  0.00  0.00     0.029 H 
ATOM     24  H15 <0> d          -1.861   1.008   0.927  0.00  0.00     0.029 H 
ENDBRANCH   1  21
TORSDOF 6
