REMARK  6 active torsions:
REMARK  status: ('A' for Active; 'I' for Inactive)
REMARK    1  A    between atoms: C1_1  and  C2_2 
REMARK    2  A    between atoms: C2_2  and  C3_3 
REMARK    3  A    between atoms: C2_2  and  C4_4 
REMARK    4  A    between atoms: C7_8  and  C9_10 
REMARK    5  A    between atoms: C9_10  and  C10_12 
REMARK    6  A    between atoms: C9_10  and  O1_13 
ROOT
ATOM      1  C4  <0> d          -0.750   3.109   1.275  0.00  0.00    -0.045 C 
ATOM      2  H1  <0> d           0.263   3.512   1.280  0.00  0.00     0.041 H 
ATOM      3  C5  <0> d          -1.567   3.647   2.473  0.00  0.00    -0.046 C 
ATOM      4  C6  <0> d          -2.284   4.862   1.933  0.00  0.00    -0.098 C 
ATOM      5  C7  <0> d          -2.280   4.870   0.628  0.00  0.00    -0.055 C 
ATOM      6  C8  <0> d          -1.560   3.660   0.079  0.00  0.00    -0.038 C 
ATOM      7  H10 <0> d          -2.286   2.899   2.808  0.00  0.00     0.039 H 
ATOM      8  H11 <0> d          -0.902   3.929   3.290  0.00  0.00     0.039 H 
ATOM      9  H12 <0> d          -2.740   5.625   2.547  0.00  0.00     0.077 H 
ATOM     10  H13 <0> d          -0.891   3.951  -0.731  0.00  0.00     0.040 H 
ATOM     11  H14 <0> d          -2.277   2.916  -0.268  0.00  0.00     0.040 H 
ENDROOT
BRANCH   1  12
ATOM     12  C2  <0> d          -0.729   1.579   1.267  0.00  0.00    -0.057 C 
ATOM     13  H6  <0> d          -1.751   1.202   1.275  0.00  0.00     0.039 H 
BRANCH  12  14
ATOM     14  C1  <0> d          -0.013   1.086   0.008  0.00  0.00    -0.073 C 
ATOM     15  H3  <0> d           0.002  -0.004   0.002  0.00  0.00     0.028 H 
ATOM     16  H4  <0> d           1.010   1.463   0.000  0.00  0.00     0.028 H 
ATOM     17  H5  <0> d          -0.540   1.447  -0.875  0.00  0.00     0.028 H 
ENDBRANCH  12  14
BRANCH  12  18
ATOM     18  C3  <0> d           0.011   1.072   2.506  0.00  0.00    -0.073 C 
ATOM     19  H7  <0> d           1.034   1.450   2.499  0.00  0.00     0.028 H 
ATOM     20  H8  <0> d          -0.499   1.424   3.403  0.00  0.00     0.028 H 
ATOM     21  H9  <0> d           0.026  -0.018   2.500  0.00  0.00     0.028 H 
ENDBRANCH  12  18
ENDBRANCH   1  12
BRANCH   5  22
ATOM     22  C9  <0> d          -2.912   5.943  -0.221  0.00  0.00     0.053 C 
ATOM     23  H2  <0> d          -3.439   6.650   0.420  0.00  0.00     0.089 H 
BRANCH  22  24
ATOM     24  C10 <0> d          -1.823   6.679  -1.005  0.00  0.00    -0.049 C 
ATOM     25  H15 <0> d          -1.297   5.972  -1.646  0.00  0.00     0.031 H 
ATOM     26  H16 <0> d          -2.280   7.456  -1.619  0.00  0.00     0.031 H 
ATOM     27  H17 <0> d          -1.119   7.134  -0.309  0.00  0.00     0.031 H 
ENDBRANCH  22  24
BRANCH  22  28
ATOM     28  O1  <0> d          -3.836   5.347  -1.133  0.00  0.00    -0.392 OA
ATOM     29  H18 <0> d          -3.436   4.706  -1.736  0.00  0.00     0.210 HD
ENDBRANCH  22  28
ENDBRANCH   5  22
TORSDOF 6
