REMARK  8 active torsions:
REMARK  status: ('A' for Active; 'I' for Inactive)
REMARK    1  A    between atoms: C1_1  and  C2_2 
REMARK    2  A    between atoms: C2_2  and  O1_3 
REMARK    3  A    between atoms: O1_3  and  C3_4 
REMARK    4  A    between atoms: C3_4  and  C4_5 
REMARK    5  A    between atoms: C3_4  and  O3_8 
REMARK    6  A    between atoms: C4_5  and  C5_7 
REMARK    7  A    between atoms: O3_8  and  C6_9 
REMARK    8  A    between atoms: C6_9  and  C7_10 
ROOT
ATOM      1  C3  <0> d           0.066   1.035   0.157  0.00  0.00     0.188 C 
ATOM      2  H6  <0> d           0.155   0.083   0.448  0.00  0.00     0.141 H 
ENDROOT
BRANCH   1   3
ATOM      3  O1  <0> d           1.343   1.673   0.220  0.00  0.00    -0.355 OA
BRANCH   3   4
ATOM      4  C2  <0> d           2.439   0.815  -0.106  0.00  0.00     0.020 C 
ATOM      5  H4  <0> d           2.396  -0.079   0.515  0.00  0.00     0.073 H 
ATOM      6  H5  <0> d           2.378   0.531  -1.156  0.00  0.00     0.073 H 
BRANCH   4   7
ATOM      7  C1  <0> d           3.756   1.551   0.149  0.00  0.00    -0.056 C 
ATOM      8  H1  <0> d           4.591   0.896  -0.099  0.00  0.00     0.030 H 
ATOM      9  H2  <0> d           3.798   2.446  -0.472  0.00  0.00     0.030 H 
ATOM     10  H3  <0> d           3.816   1.835   1.200  0.00  0.00     0.030 H 
ENDBRANCH   4   7
ENDBRANCH   3   4
ENDBRANCH   1   3
BRANCH   1  11
ATOM     11  C4  <0> d          -0.898   1.751   1.067  0.00  0.00     0.177 C 
ATOM     12  O2  <0> d          -2.076   1.771   0.801  0.00  0.00    -0.293 OA
BRANCH  11  13
ATOM     13  C5  <0> d          -0.393   2.441   2.307  0.00  0.00    -0.016 C 
ATOM     14  H7  <0> d           0.267   3.147   2.051  0.00  0.00     0.037 H 
ATOM     15  H8  <0> d          -1.230   2.899   2.834  0.00  0.00     0.037 H 
ATOM     16  H9  <0> d           0.090   1.712   2.957  0.00  0.00     0.037 H 
ENDBRANCH  11  13
ENDBRANCH   1  11
BRANCH   1  17
ATOM     17  O3  <0> d          -0.423   1.079  -1.185  0.00  0.00    -0.355 OA
BRANCH  17  18
ATOM     18  C6  <0> d           0.220   0.158  -2.069  0.00  0.00     0.020 C 
ATOM     19  H10 <0> d           1.262   0.448  -2.201  0.00  0.00     0.073 H 
ATOM     20  H11 <0> d           0.173  -0.845  -1.645  0.00  0.00     0.073 H 
BRANCH  18  21
ATOM     21  C7  <0> d          -0.489   0.172  -3.425  0.00  0.00    -0.056 C 
ATOM     22  H12 <0> d           0.001  -0.530  -4.098  0.00  0.00     0.030 H 
ATOM     23  H13 <0> d          -1.532  -0.117  -3.292  0.00  0.00     0.030 H 
ATOM     24  H14 <0> d          -0.442   1.175  -3.849  0.00  0.00     0.030 H 
ENDBRANCH  18  21
ENDBRANCH  17  18
ENDBRANCH   1  17
TORSDOF 8
