REMARK  4 active torsions:
REMARK  status: ('A' for Active; 'I' for Inactive)
REMARK    1  A    between atoms: C1_1  and  C2_2 
REMARK    2  A    between atoms: C2_2  and  C3_3 
REMARK    3  A    between atoms: C2_2  and  C5_5 
REMARK    4  A    between atoms: C2_2  and  O1_11 
ROOT
ATOM      1  C3  <0> d           4.354  -0.505  -1.246  0.00  0.00    -0.073 C 
ATOM      2  C4  <0> d           4.970  -0.238  -2.209  0.00  0.00    -0.151 C 
ATOM      3  H4  <0> d           5.521   0.001  -3.070  0.00  0.00     0.166 H 
ENDROOT
BRANCH   1   4
ATOM      4  C2  <0> d           3.582  -0.839  -0.038  0.00  0.00     0.161 C 
BRANCH   4   5
ATOM      5  C1  <0> d           3.248  -2.332  -0.044  0.00  0.00    -0.032 C 
ATOM      6  H1  <0> d           2.658  -2.569  -0.929  0.00  0.00     0.033 H 
ATOM      7  H2  <0> d           4.171  -2.911  -0.057  0.00  0.00     0.033 H 
ATOM      8  H3  <0> d           2.676  -2.580   0.850  0.00  0.00     0.033 H 
ENDBRANCH   4   5
BRANCH   4   9
ATOM      9  C5  <0> d           2.305  -0.038  -0.021  0.00  0.00     0.080 A 
ATOM     10  N1  <0> d           1.144  -0.663  -0.013  0.00  0.00    -0.261 NA
ATOM     11  C9  <0> d           0.002  -0.004   0.002  0.00  0.00     0.003 A 
ATOM     12  C8  <0> d          -0.017   1.378   0.010  0.00  0.00    -0.066 A 
ATOM     13  H8  <0> d          -0.929  -0.550   0.008  0.00  0.00     0.114 H 
ATOM     14  C7  <0> d           1.185   2.070   0.002  0.00  0.00    -0.080 A 
ATOM     15  H7  <0> d          -0.955   1.912   0.017  0.00  0.00     0.085 H 
ATOM     16  C6  <0> d           2.365   1.343  -0.013  0.00  0.00    -0.055 A 
ATOM     17  H6  <0> d           1.201   3.150   0.007  0.00  0.00     0.083 H 
ATOM     18  H5  <0> d           3.319   1.849  -0.020  0.00  0.00     0.086 H 
ENDBRANCH   4   9
BRANCH   4  19
ATOM     19  O1  <0> d           4.355  -0.528   1.123  0.00  0.00    -0.372 OA
ATOM     20  H9  <0> d           4.604   0.404   1.192  0.00  0.00     0.212 HD
ENDBRANCH   4  19
ENDBRANCH   1   4
TORSDOF 4
