REMARK  2 active torsions:
REMARK  status: ('A' for Active; 'I' for Inactive)
REMARK    1  A    between atoms: C1_1  and  C2_2 
REMARK    2  A    between atoms: C5_5  and  C8_9 
ROOT
ATOM      1  C2  <0> d           2.397   0.032  -0.021  0.00  0.00    -0.059 A 
ATOM      2  C3  <0> d           1.206  -0.674  -0.013  0.00  0.00    -0.076 A 
ATOM      3  C4  <0> d           0.002  -0.004   0.002  0.00  0.00    -0.063 A 
ATOM      4  C5  <0> d          -0.017   1.393   0.010  0.00  0.00     0.079 A 
ATOM      5  C6  <0> d           1.189   2.102   0.002  0.00  0.00     0.133 A 
ATOM      6  C7  <0> d           2.389   1.414  -0.014  0.00  0.00    -0.039 A 
ATOM      7  F1  <0> d           1.182   3.453   0.009  0.00  0.00    -0.205 F 
ATOM      8  H4  <0> d           1.221  -1.754  -0.019  0.00  0.00     0.084 H 
ATOM      9  H5  <0> d          -0.925  -0.558   0.007  0.00  0.00     0.085 H 
ATOM     10  H6  <0> d           3.322   1.959  -0.020  0.00  0.00     0.089 H 
ENDROOT
BRANCH   1  11
ATOM     11  C1  <0> d           3.709  -0.710  -0.037  0.00  0.00    -0.051 C 
ATOM     12  H1  <0> d           4.015  -0.883  -1.069  0.00  0.00     0.033 H 
ATOM     13  H2  <0> d           4.468  -0.117   0.473  0.00  0.00     0.033 H 
ATOM     14  H3  <0> d           3.592  -1.666   0.473  0.00  0.00     0.033 H 
ENDBRANCH   1  11
BRANCH   4  15
ATOM     15  C8  <0> d          -1.302   2.117   0.020  0.00  0.00     0.212 C 
ATOM     16  O1  <0> d          -1.315   3.332   0.026  0.00  0.00    -0.644 OA
ATOM     17  O2  <0> d          -2.462   1.431   0.021  0.00  0.00    -0.644 OA
ENDBRANCH   4  15
TORSDOF 2
