REMARK  1 active torsions:
REMARK  status: ('A' for Active; 'I' for Inactive)
REMARK    1  A    between atoms: C1_1  and  C2_2 
ROOT
ATOM      1  C2  <0> d           2.372   1.361  -0.013  0.00  0.00    -0.056 A 
ATOM      2  C3  <0> d           1.161   2.038   0.002  0.00  0.00    -0.060 A 
ATOM      3  C4  <0> d          -0.016   1.315   0.009  0.00  0.00     0.006 A 
ATOM      4  N1  <0> d           0.002  -0.004   0.002  0.00  0.00    -0.233 NA
ATOM      5  C5  <0> d           1.135  -0.682  -0.013  0.00  0.00     0.210 A 
ATOM      6  C6  <0> d           2.354  -0.023  -0.020  0.00  0.00    -0.021 A 
ATOM      7  F1  <0> d           1.105  -2.033  -0.019  0.00  0.00    -0.184 F 
ATOM      8  H4  <0> d           1.138   3.118   0.008  0.00  0.00     0.086 H 
ATOM      9  H5  <0> d          -0.962   1.836   0.017  0.00  0.00     0.114 H 
ATOM     10  H6  <0> d           3.278  -0.583  -0.032  0.00  0.00     0.091 H 
ENDROOT
BRANCH   1  11
ATOM     11  C1  <0> d           3.676   2.116  -0.021  0.00  0.00    -0.051 C 
ATOM     12  H1  <0> d           3.981   2.303  -1.051  0.00  0.00     0.033 H 
ATOM     13  H2  <0> d           3.551   3.065   0.499  0.00  0.00     0.033 H 
ATOM     14  H3  <0> d           4.441   1.524   0.482  0.00  0.00     0.033 H 
ENDBRANCH   1  11
TORSDOF 1
