REMARK  7 active torsions:
REMARK  status: ('A' for Active; 'I' for Inactive)
REMARK    1  A    between atoms: C1_1  and  C2_2 
REMARK    2  A    between atoms: C1_1  and  N1_4 
REMARK    3  A    between atoms: C2_2  and  O1_3 
REMARK       I    between atoms: N1_4  and  C3_5 
REMARK    4  A    between atoms: C3_5  and  O3_7 
REMARK    5  A    between atoms: O3_7  and  C4_8 
REMARK    6  A    between atoms: C4_8  and  C5_9 
REMARK    7  A    between atoms: C5_9  and  O4_10 
ROOT
ATOM      1  N1  <0> d           0.530   3.511   1.268  0.00  0.00    -0.335 N 
ATOM      2  C3  <0> d           0.306   4.819   1.500  0.00  0.00     0.360 C 
ATOM      3  O2  <0> d           0.614   5.646   0.664  0.00  0.00    -0.239 OA
ATOM      4  H6  <0> d           0.285   2.851   1.935  0.00  0.00     0.164 HD
ENDROOT
BRANCH   2   5
ATOM      5  O3  <0> d          -0.258   5.210   2.658  0.00  0.00    -0.302 OA
BRANCH   5   6
ATOM      6  C4  <0> d          -0.470   6.635   2.840  0.00  0.00     0.050 C 
ATOM      7  H7  <0> d           0.488   7.154   2.791  0.00  0.00     0.078 H 
ATOM      8  H8  <0> d          -1.126   7.009   2.054  0.00  0.00     0.078 H 
BRANCH   6   9
ATOM      9  C5  <0> d          -1.116   6.885   4.204  0.00  0.00     0.037 C 
ATOM     10  H9  <0> d          -1.356   7.943   4.305  0.00  0.00     0.077 H 
ATOM     11  H10 <0> d          -2.029   6.296   4.287  0.00  0.00     0.077 H 
BRANCH   9  12
ATOM     12  O4  <0> d          -0.207   6.502   5.239  0.00  0.00    -0.399 OA
ATOM     13  H11 <0> d          -0.552   6.633   6.133  0.00  0.00     0.209 HD
ENDBRANCH   9  12
ENDBRANCH   6   9
ENDBRANCH   5   6
ENDBRANCH   2   5
BRANCH   1  14
ATOM     14  C1  <0> d           1.145   3.085   0.008  0.00  0.00     0.017 C 
ATOM     15  H1  <0> d           2.130   3.542  -0.089  0.00  0.00     0.067 H 
ATOM     16  H2  <0> d           0.516   3.397  -0.827  0.00  0.00     0.067 H 
BRANCH  14  17
ATOM     17  C2  <0> d           1.286   1.562  -0.002  0.00  0.00     0.031 C 
ATOM     18  H3  <0> d           1.840   1.243   0.881  0.00  0.00     0.076 H 
ATOM     19  H4  <0> d           1.823   1.252  -0.899  0.00  0.00     0.076 H 
BRANCH  17  20
ATOM     20  O1  <0> d          -0.011   0.963   0.007  0.00  0.00    -0.399 OA
ATOM     21  H5  <0> d           0.002  -0.004   0.002  0.00  0.00     0.209 HD
ENDBRANCH  17  20
ENDBRANCH  14  17
ENDBRANCH   1  14
TORSDOF 7
