REMARK  3 active torsions:
REMARK  status: ('A' for Active; 'I' for Inactive)
REMARK    1  A    between atoms: C2_2  and  C7_9 
REMARK    2  A    between atoms: C3_5  and  C4_6 
REMARK    3  A    between atoms: C7_9  and  O2_10 
ROOT
ATOM      1  C1  <0> d          -1.162   2.334   0.019  0.00  0.00    -0.024 A 
ATOM      2  C2  <0> d          -0.018   1.503   0.010  0.00  0.00     0.087 A 
ATOM      3  N1  <0> d           1.013   2.297   0.005  0.00  0.00    -0.131 NA
ATOM      4  O1  <0> d           0.680   3.459   0.014  0.00  0.00    -0.217 OA
ATOM      5  C3  <0> d          -0.653   3.590   0.027  0.00  0.00     0.085 A 
ATOM      6  H1  <0> d          -2.200   2.037   0.022  0.00  0.00     0.090 H 
ENDROOT
BRANCH   5   7
ATOM      7  C4  <0> d          -1.434   4.879   0.040  0.00  0.00    -0.005 A 
ATOM      8  C6  <0> d          -1.207   5.830   1.217  0.00  0.00    -0.055 A 
ATOM      9  C5  <0> d          -0.654   6.179  -0.167  0.00  0.00    -0.055 A 
ATOM     10  H5  <0> d          -2.064   6.401   1.575  0.00  0.00     0.034 H 
ATOM     11  H6  <0> d          -0.494   5.523   1.982  0.00  0.00     0.034 H 
ATOM     12  H3  <0> d           0.423   6.102  -0.313  0.00  0.00     0.034 H 
ATOM     13  H4  <0> d          -1.147   6.979  -0.719  0.00  0.00     0.034 H 
ATOM     14  H2  <0> d          -2.440   4.824  -0.376  0.00  0.00     0.050 H 
ENDBRANCH   5   7
BRANCH   2  15
ATOM     15  C7  <0> d           0.002  -0.004   0.002  0.00  0.00     0.059 C 
ATOM     16  H7  <0> d           0.513  -0.356  -0.895  0.00  0.00     0.083 H 
ATOM     17  H8  <0> d           0.529  -0.365   0.885  0.00  0.00     0.083 H 
BRANCH  15  18
ATOM     18  O2  <0> d          -1.339  -0.499   0.012  0.00  0.00    -0.395 OA
ATOM     19  H9  <0> d          -1.402  -1.464   0.007  0.00  0.00     0.209 HD
ENDBRANCH  15  18
ENDBRANCH   2  15
TORSDOF 3
