REMARK  3 active torsions:
REMARK  status: ('A' for Active; 'I' for Inactive)
REMARK    1  A    between atoms: C1_1  and  C2_2 
REMARK    2  A    between atoms: C2_2  and  O1_3 
REMARK    3  A    between atoms: O1_3  and  C3_4 
ROOT
ATOM      1  C3  <0> d          -1.497  -1.839   0.006  0.00  0.00     0.134 C 
ATOM      2  N1  <0> d          -0.449  -2.561  -0.002  0.00  0.00    -0.271 NA
ATOM      3  C4  <0> d          -0.438  -4.018  -0.022  0.00  0.00     0.017 C 
ATOM      4  C5  <0> d          -1.799  -4.570   0.407  0.00  0.00    -0.048 C 
ATOM      5  C6  <0> d          -2.889  -3.853  -0.401  0.00  0.00    -0.057 C 
ATOM      6  C7  <0> d          -2.898  -2.378   0.017  0.00  0.00    -0.004 C 
ATOM      7  H6  <0> d          -0.212  -4.362  -1.031  0.00  0.00     0.067 H 
ATOM      8  H7  <0> d           0.329  -4.381   0.662  0.00  0.00     0.067 H 
ATOM      9  H8  <0> d          -1.840  -5.641   0.208  0.00  0.00     0.035 H 
ATOM     10  H9  <0> d          -1.951  -4.387   1.470  0.00  0.00     0.035 H 
ATOM     11  H10 <0> d          -2.672  -3.936  -1.466  0.00  0.00     0.033 H 
ATOM     12  H11 <0> d          -3.860  -4.301  -0.187  0.00  0.00     0.033 H 
ATOM     13  H12 <0> d          -3.314  -2.285   1.020  0.00  0.00     0.045 H 
ATOM     14  H13 <0> d          -3.510  -1.809  -0.682  0.00  0.00     0.045 H 
ENDROOT
BRANCH   1  15
ATOM     15  O1  <0> d          -1.339  -0.499   0.012  0.00  0.00    -0.338 OA
BRANCH  15  16
ATOM     16  C2  <0> d           0.002  -0.004   0.002  0.00  0.00     0.024 C 
ATOM     17  H4  <0> d           0.512  -0.356  -0.895  0.00  0.00     0.074 H 
ATOM     18  H5  <0> d           0.529  -0.365   0.885  0.00  0.00     0.074 H 
BRANCH  16  19
ATOM     19  C1  <0> d          -0.019   1.526   0.010  0.00  0.00    -0.056 C 
ATOM     20  H1  <0> d           1.004   1.903   0.003  0.00  0.00     0.030 H 
ATOM     21  H2  <0> d          -0.546   1.887  -0.873  0.00  0.00     0.030 H 
ATOM     22  H3  <0> d          -0.529   1.877   0.907  0.00  0.00     0.030 H 
ENDBRANCH  16  19
ENDBRANCH  15  16
ENDBRANCH   1  15
TORSDOF 3
