REMARK  5 active torsions:
REMARK  status: ('A' for Active; 'I' for Inactive)
REMARK    1  A    between atoms: C1_1  and  C2_2 
REMARK    2  A    between atoms: C2_2  and  O1_3 
REMARK    3  A    between atoms: O1_3  and  C3_4 
REMARK    4  A    between atoms: C3_4  and  C4_6 
REMARK    5  A    between atoms: C6_8  and  C7_11 
ROOT
ATOM      1  C4  <0> d          -1.145   1.937   0.017  0.00  0.00     0.161 A 
ATOM      2  C5  <0> d          -0.013   1.076   0.008  0.00  0.00    -0.017 A 
ATOM      3  C6  <0> d           1.042   1.924   0.002  0.00  0.00     0.077 A 
ATOM      4  O3  <0> d           0.537   3.165   0.014  0.00  0.00    -0.218 OA
ATOM      5  N1  <0> d          -0.672   3.159   0.025  0.00  0.00    -0.122 NA
ATOM      6  H6  <0> d           0.002  -0.004   0.002  0.00  0.00     0.091 H 
ENDROOT
BRANCH   1   7
ATOM      7  C3  <0> d          -2.571   1.534   0.021  0.00  0.00     0.314 C 
ATOM      8  O2  <0> d          -2.869   0.357   0.015  0.00  0.00    -0.257 OA
BRANCH   7   9
ATOM      9  O1  <0> d          -3.537   2.473   0.029  0.00  0.00    -0.317 OA
BRANCH   9  10
ATOM     10  C2  <0> d          -4.911   2.005   0.032  0.00  0.00     0.026 C 
ATOM     11  H4  <0> d          -5.093   1.406  -0.860  0.00  0.00     0.074 H 
ATOM     12  H5  <0> d          -5.086   1.397   0.920  0.00  0.00     0.074 H 
BRANCH  10  13
ATOM     13  C1  <0> d          -5.859   3.206   0.043  0.00  0.00    -0.056 C 
ATOM     14  H1  <0> d          -6.891   2.855   0.045  0.00  0.00     0.030 H 
ATOM     15  H2  <0> d          -5.677   3.805   0.935  0.00  0.00     0.030 H 
ATOM     16  H3  <0> d          -5.684   3.814  -0.845  0.00  0.00     0.030 H 
ENDBRANCH  10  13
ENDBRANCH   9  10
ENDBRANCH   7   9
ENDBRANCH   1   7
BRANCH   3  17
ATOM     17  C7  <0> d           2.500   1.546  -0.014  0.00  0.00    -0.029 C 
ATOM     18  H7  <0> d           2.842   1.461  -1.046  0.00  0.00     0.036 H 
ATOM     19  H8  <0> d           3.080   2.314   0.499  0.00  0.00     0.036 H 
ATOM     20  H9  <0> d           2.634   0.591   0.493  0.00  0.00     0.036 H 
ENDBRANCH   3  17
TORSDOF 5
