REMARK  4 active torsions:
REMARK  status: ('A' for Active; 'I' for Inactive)
REMARK    1  A    between atoms: C1_1  and  O1_2 
REMARK    2  A    between atoms: O1_2  and  C2_3 
REMARK    3  A    between atoms: C5_6  and  O2_10 
REMARK    4  A    between atoms: C6_7  and  N1_9 
ROOT
ATOM      1  C2  <0> d           0.626  -0.619   1.042  0.00  0.00     0.070 A 
ATOM      2  C3  <0> d           1.202   0.140   2.051  0.00  0.00    -0.048 A 
ATOM      3  C4  <0> d           1.838  -0.482   3.110  0.00  0.00    -0.046 A 
ATOM      4  C5  <0> d           1.901  -1.864   3.166  0.00  0.00     0.091 A 
ATOM      5  C6  <0> d           1.324  -2.629   2.155  0.00  0.00     0.061 A 
ATOM      6  C7  <0> d           0.681  -2.003   1.096  0.00  0.00    -0.023 A 
ATOM      7  H4  <0> d           1.154   1.218   2.009  0.00  0.00     0.087 H 
ATOM      8  H5  <0> d           2.285   0.111   3.893  0.00  0.00     0.087 H 
ATOM      9  H6  <0> d           0.229  -2.593   0.313  0.00  0.00     0.091 H 
ENDROOT
BRANCH   1  10
ATOM     10  O1  <0> d           0.002  -0.004   0.002  0.00  0.00    -0.356 OA
BRANCH  10  11
ATOM     11  C1  <0> d          -0.017   1.425   0.010  0.00  0.00     0.010 C 
ATOM     12  H1  <0> d           1.005   1.802   0.002  0.00  0.00     0.066 H 
ATOM     13  H2  <0> d          -0.544   1.786  -0.873  0.00  0.00     0.066 H 
ATOM     14  H3  <0> d          -0.527   1.776   0.907  0.00  0.00     0.066 H 
ENDBRANCH  10  11
ENDBRANCH   1  10
BRANCH   5  15
ATOM     15  N1  <0> d           1.387  -4.026   2.209  0.00  0.00    -0.397 N 
ATOM     16  H7  <0> d           1.833  -4.463   2.951  0.00  0.00     0.156 HD
ATOM     17  H8  <0> d           0.984  -4.557   1.505  0.00  0.00     0.156 HD
ENDBRANCH   5  15
BRANCH   4  18
ATOM     18  O2  <0> d           2.528  -2.475   4.208  0.00  0.00    -0.358 OA
ATOM     19  H9  <0> d           1.948  -2.669   4.957  0.00  0.00     0.217 HD
ENDBRANCH   4  18
TORSDOF 4
