REMARK  0 active torsions:
REMARK  status: ('A' for Active; 'I' for Inactive)
ROOT
ATOM      1  C1  <0> d          -0.018   1.465   0.010  0.00  0.00     0.131 C 
ATOM      2  C2  <0> d           1.428   1.975  -0.001  0.00  0.00     0.045 C 
ATOM      3  O1  <0> d           1.989   1.725  -1.292  0.00  0.00    -0.376 OA
ATOM      4  C3  <0> d           1.865   0.372  -1.734  0.00  0.00     0.139 A 
ATOM      5  H1  <0> d           2.791  -0.102  -2.058  0.00  0.00     0.096 H 
ATOM      6  C4  <0> d           0.797  -0.522  -1.113  0.00  0.00     0.227 A 
ATOM      7  H2  <0> d           1.034  -1.584  -1.035  0.00  0.00     0.102 H 
ATOM      8  C5  <0> d           0.586   0.029  -2.509  0.00  0.00     0.304 A 
ATOM      9  F1  <0> d          -0.368   1.040  -2.663  0.00  0.00    -0.201 F 
ATOM     10  F2  <0> d           0.700  -0.863  -3.581  0.00  0.00    -0.201 F 
ATOM     11  N1  <0> d           0.002  -0.004   0.002  0.00  0.00     0.099 N 
ATOM     12  H3  <0> d          -0.524   1.819   0.908  0.00  0.00     0.082 H 
ATOM     13  H4  <0> d          -0.541   1.828  -0.875  0.00  0.00     0.082 H 
ATOM     14  H5  <0> d           1.440   3.045   0.203  0.00  0.00     0.077 H 
ATOM     15  H6  <0> d           2.007   1.449   0.758  0.00  0.00     0.077 H 
ATOM     16  H7  <0> d           0.327  -0.366   0.886  0.00  0.00     0.316 HD
ENDROOT
TORSDOF 0
