REMARK  4 active torsions:
REMARK  status: ('A' for Active; 'I' for Inactive)
REMARK    1  A    between atoms: C1_1  and  C2_2 
REMARK    2  A    between atoms: C2_2  and  C9_15 
REMARK    3  A    between atoms: C7_9  and  O2_14 
REMARK    4  A    between atoms: C8_11  and  O1_13 
ROOT
ATOM      1  C2  <0> d          -0.729   1.579   1.267  0.00  0.00    -0.035 C 
ATOM      2  C3  <0> d          -0.498   3.112   1.512  0.00  0.00    -0.020 C 
ATOM      3  H1  <0> d          -0.883   3.786   0.747  0.00  0.00     0.045 H 
ATOM      4  C4  <0> d           1.045   3.140   1.732  0.00  0.00    -0.058 C 
ATOM      5  C5  <0> d           1.364   1.802   2.438  0.00  0.00    -0.058 C 
ATOM      6  C6  <0> d          -0.017   1.092   2.578  0.00  0.00    -0.020 C 
ATOM      7  H2  <0> d           0.015   0.014   2.736  0.00  0.00     0.045 H 
ATOM      8  C7  <0> d          -0.780   1.930   3.649  0.00  0.00     0.065 C 
ATOM      9  H3  <0> d          -0.147   2.101   4.519  0.00  0.00     0.087 H 
ATOM     10  C8  <0> d          -1.099   3.268   2.943  0.00  0.00     0.065 C 
ATOM     11  H4  <0> d          -0.623   4.097   3.467  0.00  0.00     0.087 H 
ATOM     12  H8  <0> d           1.323   3.981   2.367  0.00  0.00     0.033 H 
ATOM     13  H9  <0> d           1.565   3.199   0.776  0.00  0.00     0.033 H 
ATOM     14  H10 <0> d           1.799   1.985   3.420  0.00  0.00     0.033 H 
ATOM     15  H11 <0> d           2.040   1.201   1.829  0.00  0.00     0.033 H 
ENDROOT
BRANCH   1  16
ATOM     16  C1  <0> d          -0.013   1.086   0.008  0.00  0.00    -0.068 C 
ATOM     17  H5  <0> d           0.002  -0.004   0.002  0.00  0.00     0.028 H 
ATOM     18  H6  <0> d           1.010   1.463   0.000  0.00  0.00     0.028 H 
ATOM     19  H7  <0> d          -0.540   1.447  -0.875  0.00  0.00     0.028 H 
ENDBRANCH   1  16
BRANCH   1  20
ATOM     20  C9  <0> d          -2.215   1.216   1.252  0.00  0.00    -0.068 C 
ATOM     21  H14 <0> d          -2.324   0.132   1.210  0.00  0.00     0.028 H 
ATOM     22  H15 <0> d          -2.691   1.594   2.156  0.00  0.00     0.028 H 
ATOM     23  H16 <0> d          -2.689   1.662   0.378  0.00  0.00     0.028 H 
ENDBRANCH   1  20
BRANCH   8  24
ATOM     24  O2  <0> d          -1.988   1.269   4.032  0.00  0.00    -0.393 OA
ATOM     25  H13 <0> d          -2.504   1.746   4.696  0.00  0.00     0.210 HD
ENDBRANCH   8  24
BRANCH  10  26
ATOM     26  O1  <0> d          -2.511   3.472   2.871  0.00  0.00    -0.393 OA
ATOM     27  H12 <0> d          -2.938   3.576   3.732  0.00  0.00     0.210 HD
ENDBRANCH  10  26
TORSDOF 4
