REMARK  4 active torsions:
REMARK  status: ('A' for Active; 'I' for Inactive)
REMARK    1  A    between atoms: C1_1  and  C2_2 
REMARK    2  A    between atoms: C6_6  and  C9_10 
REMARK    3  A    between atoms: C7_7  and  C8_8 
REMARK    4  A    between atoms: C8_8  and  O1_9 
ROOT
ATOM      1  C2  <0> d          -1.225   2.178   0.020  0.00  0.00    -0.053 A 
ATOM      2  C3  <0> d          -1.244   3.560   0.031  0.00  0.00    -0.077 A 
ATOM      3  C4  <0> d          -0.056   4.267   0.025  0.00  0.00    -0.082 A 
ATOM      4  C5  <0> d           1.151   3.592   0.010  0.00  0.00    -0.077 A 
ATOM      5  C6  <0> d           1.169   2.210   0.003  0.00  0.00    -0.053 A 
ATOM      6  C7  <0> d          -0.018   1.503   0.010  0.00  0.00    -0.023 A 
ATOM      7  H4  <0> d          -2.186   4.087   0.042  0.00  0.00     0.084 H 
ATOM      8  H5  <0> d          -0.070   5.347   0.032  0.00  0.00     0.083 H 
ATOM      9  H6  <0> d           2.078   4.145   0.005  0.00  0.00     0.084 H 
ENDROOT
BRANCH   6  10
ATOM     10  C8  <0> d           0.002  -0.004   0.002  0.00  0.00     0.041 C 
ATOM     11  H7  <0> d          -0.888  -0.377  -0.505  0.00  0.00     0.081 H 
ATOM     12  H8  <0> d           0.892  -0.352  -0.522  0.00  0.00     0.081 H 
BRANCH  10  13
ATOM     13  O1  <0> d           0.021  -0.488   1.347  0.00  0.00    -0.396 OA
ATOM     14  H9  <0> d           0.035  -1.452   1.418  0.00  0.00     0.209 HD
ENDBRANCH  10  13
ENDBRANCH   6  10
BRANCH   1  15
ATOM     15  C1  <0> d          -2.519   1.406   0.022  0.00  0.00    -0.051 C 
ATOM     16  H1  <0> d          -2.827   1.215   1.050  0.00  0.00     0.033 H 
ATOM     17  H2  <0> d          -3.289   1.988  -0.485  0.00  0.00     0.033 H 
ATOM     18  H3  <0> d          -2.379   0.459  -0.498  0.00  0.00     0.033 H 
ENDBRANCH   1  15
BRANCH   5  19
ATOM     19  C9  <0> d           2.484   1.474  -0.013  0.00  0.00    -0.051 C 
ATOM     20  H10 <0> d           2.792   1.302  -1.045  0.00  0.00     0.033 H 
ATOM     21  H11 <0> d           3.241   2.071   0.496  0.00  0.00     0.033 H 
ATOM     22  H12 <0> d           2.372   0.518   0.497  0.00  0.00     0.033 H 
ENDBRANCH   5  19
TORSDOF 4
