REMARK  7 active torsions:
REMARK  status: ('A' for Active; 'I' for Inactive)
REMARK    1  A    between atoms: C1_1  and  C2_2 
REMARK    2  A    between atoms: C2_2  and  C3_3 
REMARK    3  A    between atoms: C3_3  and  C4_4 
REMARK    4  A    between atoms: C4_4  and  C5_5 
REMARK    5  A    between atoms: C5_5  and  C6_7 
REMARK    6  A    between atoms: C5_5  and  O1_10 
REMARK    7  A    between atoms: C6_7  and  C7_8 
ROOT
ATOM      1  C4  <0> d          -1.935   5.254  -1.216  0.00  0.00    -0.041 C 
ATOM      2  H9  <0> d          -2.398   5.681  -0.326  0.00  0.00     0.036 H 
ATOM      3  H10 <0> d          -0.890   5.560  -1.264  0.00  0.00     0.036 H 
ENDROOT
BRANCH   1   4
ATOM      4  C3  <0> d          -2.671   5.750  -2.461  0.00  0.00    -0.063 C 
ATOM      5  H7  <0> d          -2.209   5.323  -3.351  0.00  0.00     0.033 H 
ATOM      6  H8  <0> d          -3.716   5.444  -2.412  0.00  0.00     0.033 H 
BRANCH   4   7
ATOM      7  C2  <0> d          -2.591   7.277  -2.527  0.00  0.00    -0.068 C 
ATOM      8  H5  <0> d          -3.053   7.704  -1.637  0.00  0.00     0.032 H 
ATOM      9  H6  <0> d          -1.546   7.583  -2.576  0.00  0.00     0.032 H 
BRANCH   7  10
ATOM     10  C1  <0> d          -3.327   7.773  -3.773  0.00  0.00    -0.077 C 
ATOM     11  H2  <0> d          -4.372   7.467  -3.724  0.00  0.00     0.027 H 
ATOM     12  H3  <0> d          -3.269   8.861  -3.820  0.00  0.00     0.027 H 
ATOM     13  H4  <0> d          -2.864   7.346  -4.663  0.00  0.00     0.027 H 
ENDBRANCH   7  10
ENDBRANCH   4   7
ENDBRANCH   1   4
BRANCH   1  14
ATOM     14  C5  <0> d          -2.016   3.727  -1.150  0.00  0.00     0.038 C 
ATOM     15  H1  <0> d          -1.634   3.303  -2.078  0.00  0.00     0.083 H 
BRANCH  14  16
ATOM     16  C6  <0> d          -1.176   3.222   0.025  0.00  0.00    -0.027 C 
ATOM     17  H11 <0> d          -1.611   3.575   0.961  0.00  0.00     0.042 H 
ATOM     18  H12 <0> d          -0.158   3.600  -0.067  0.00  0.00     0.042 H 
BRANCH  16  19
ATOM     19  C7  <0> d          -1.156   1.715   0.017  0.00  0.00    -0.110 C 
ATOM     20  C8  <0> d          -0.013   1.076   0.008  0.00  0.00    -0.125 C 
ATOM     21  H14 <0> d           0.002  -0.004   0.002  0.00  0.00     0.066 H 
ATOM     22  H15 <0> d           0.915   1.629   0.002  0.00  0.00     0.066 H 
ATOM     23  H13 <0> d          -2.084   1.163   0.018  0.00  0.00     0.075 H 
ENDBRANCH  16  19
ENDBRANCH  14  16
BRANCH  14  24
ATOM     24  O1  <0> d          -3.377   3.330  -0.969  0.00  0.00    -0.395 OA
ATOM     25  H16 <0> d          -3.782   3.672  -0.160  0.00  0.00     0.210 HD
ENDBRANCH  14  24
ENDBRANCH   1  14
TORSDOF 7
