REMARK  3 active torsions:
REMARK  status: ('A' for Active; 'I' for Inactive)
REMARK    1  A    between atoms: C1_1  and  O1_2 
REMARK    2  A    between atoms: O1_2  and  C2_3 
REMARK    3  A    between atoms: C5_6  and  C6_8 
ROOT
ATOM      1  C2  <0> d           2.355   0.163  -0.020  0.00  0.00     0.110 A 
ATOM      2  C3  <0> d           1.228  -0.612  -0.013  0.00  0.00    -0.042 A 
ATOM      3  C4  <0> d           0.002  -0.004   0.002  0.00  0.00    -0.057 A 
ATOM      4  C5  <0> d          -0.017   1.385   0.010  0.00  0.00     0.084 A 
ATOM      5  S1  <0> d           1.724   1.778  -0.005  0.00  0.00    -0.059 SA
ATOM      6  H4  <0> d           1.305  -1.690  -0.019  0.00  0.00     0.088 H 
ATOM      7  H5  <0> d          -0.912  -0.580   0.008  0.00  0.00     0.086 H 
ENDROOT
BRANCH   1   8
ATOM      8  O1  <0> d           3.651  -0.234  -0.034  0.00  0.00    -0.349 OA
BRANCH   8   9
ATOM      9  C1  <0> d           4.644   0.793  -0.038  0.00  0.00     0.011 C 
ATOM     10  H1  <0> d           5.635   0.340  -0.049  0.00  0.00     0.067 H 
ATOM     11  H2  <0> d           4.519   1.416  -0.923  0.00  0.00     0.067 H 
ATOM     12  H3  <0> d           4.536   1.407   0.856  0.00  0.00     0.067 H 
ENDBRANCH   8   9
ENDBRANCH   1   8
BRANCH   4  13
ATOM     13  C6  <0> d          -1.129   2.262   0.020  0.00  0.00     0.216 C 
ATOM     14  O2  <0> d          -2.259   1.811   0.023  0.00  0.00    -0.643 OA
ATOM     15  O3  <0> d          -0.935   3.597   0.026  0.00  0.00    -0.643 OA
ENDBRANCH   4  13
TORSDOF 3
