REMARK  8 active torsions:
REMARK  status: ('A' for Active; 'I' for Inactive)
REMARK    1  A    between atoms: C1_1  and  C2_2 
REMARK    2  A    between atoms: C2_2  and  C3_3 
REMARK    3  A    between atoms: C3_3  and  C4_5 
REMARK    4  A    between atoms: C3_3  and  O1_10 
REMARK    5  A    between atoms: C4_5  and  C5_6 
REMARK    6  A    between atoms: C4_5  and  C7_8 
REMARK    7  A    between atoms: C5_6  and  C6_7 
REMARK    8  A    between atoms: C7_8  and  C8_9 
ROOT
ATOM      1  C4  <0> d           0.779  -1.960  -1.098  0.00  0.00    -0.030 C 
ATOM      2  H7  <0> d           1.270  -2.397  -0.229  0.00  0.00     0.043 H 
ENDROOT
BRANCH   1   3
ATOM      3  C3  <0> d           0.565  -0.463  -0.863  0.00  0.00     0.038 C 
ATOM      4  H1  <0> d           1.531   0.036  -0.795  0.00  0.00     0.083 H 
BRANCH   3   5
ATOM      5  C2  <0> d          -0.207  -0.257   0.442  0.00  0.00    -0.044 C 
ATOM      6  H5  <0> d           0.318  -0.755   1.258  0.00  0.00     0.036 H 
ATOM      7  H6  <0> d          -1.207  -0.680   0.343  0.00  0.00     0.036 H 
BRANCH   5   8
ATOM      8  C1  <0> d          -0.313   1.240   0.742  0.00  0.00    -0.074 C 
ATOM      9  H2  <0> d           0.687   1.662   0.841  0.00  0.00     0.027 H 
ATOM     10  H3  <0> d          -0.839   1.737  -0.074  0.00  0.00     0.027 H 
ATOM     11  H4  <0> d          -0.863   1.386   1.671  0.00  0.00     0.027 H 
ENDBRANCH   5   8
ENDBRANCH   3   5
BRANCH   3  12
ATOM     12  O1  <0> d          -0.182   0.088  -1.950  0.00  0.00    -0.395 OA
ATOM     13  H18 <0> d          -1.055  -0.310  -2.069  0.00  0.00     0.210 HD
ENDBRANCH   3  12
ENDBRANCH   1   3
BRANCH   1  14
ATOM     14  C5  <0> d          -0.574  -2.640  -1.316  0.00  0.00    -0.063 C 
ATOM     15  H8  <0> d          -1.236  -2.409  -0.482  0.00  0.00     0.033 H 
ATOM     16  H9  <0> d          -1.018  -2.278  -2.244  0.00  0.00     0.033 H 
BRANCH  14  17
ATOM     17  C6  <0> d          -0.375  -4.155  -1.404  0.00  0.00    -0.076 C 
ATOM     18  H10 <0> d           0.044  -4.521  -0.467  0.00  0.00     0.027 H 
ATOM     19  H11 <0> d          -1.335  -4.637  -1.587  0.00  0.00     0.027 H 
ATOM     20  H12 <0> d           0.309  -4.384  -2.222  0.00  0.00     0.027 H 
ENDBRANCH  14  17
ENDBRANCH   1  14
BRANCH   1  21
ATOM     21  C7  <0> d           1.657  -2.161  -2.335  0.00  0.00    -0.063 C 
ATOM     22  H13 <0> d           1.738  -3.226  -2.553  0.00  0.00     0.033 H 
ATOM     23  H14 <0> d           1.208  -1.649  -3.186  0.00  0.00     0.033 H 
BRANCH  21  24
ATOM     24  C8  <0> d           3.050  -1.586  -2.071  0.00  0.00    -0.076 C 
ATOM     25  H15 <0> d           2.983  -0.503  -1.973  0.00  0.00     0.027 H 
ATOM     26  H16 <0> d           3.449  -2.010  -1.149  0.00  0.00     0.027 H 
ATOM     27  H17 <0> d           3.709  -1.837  -2.901  0.00  0.00     0.027 H 
ENDBRANCH  21  24
ENDBRANCH   1  21
TORSDOF 8
