REMARK  2 active torsions:
REMARK  status: ('A' for Active; 'I' for Inactive)
REMARK    1  A    between atoms: C1_1  and  N1_2 
REMARK    2  A    between atoms: N1_2  and  C2_3 
ROOT
ATOM      1  C2  <0> d           0.626  -0.700   1.040  0.00  0.00     0.088 A 
ATOM      2  C3  <0> d           0.767  -2.044   1.229  0.00  0.00     0.035 A 
ATOM      3  N2  <0> d           1.402  -2.487   2.294  0.00  0.00    -0.263 NA
ATOM      4  C4  <0> d           1.907  -1.664   3.186  0.00  0.00     0.041 A 
ATOM      5  S1  <0> d           1.471  -0.077   2.488  0.00  0.00    -0.064 SA
ATOM      6  H5  <0> d           0.360  -2.739   0.510  0.00  0.00     0.119 H 
ATOM      7  H6  <0> d           2.446  -1.887   4.095  0.00  0.00     0.126 H 
ENDROOT
BRANCH   1   8
ATOM      8  N1  <0> d           0.002  -0.004   0.002  0.00  0.00    -0.387 N 
ATOM      9  H4  <0> d          -0.418  -0.491  -0.724  0.00  0.00     0.159 HD
BRANCH   8  10
ATOM     10  C1  <0> d          -0.018   1.461   0.010  0.00  0.00    -0.020 C 
ATOM     11  H1  <0> d           1.005   1.838   0.002  0.00  0.00     0.056 H 
ATOM     12  H2  <0> d          -0.545   1.822  -0.873  0.00  0.00     0.056 H 
ATOM     13  H3  <0> d          -0.528   1.812   0.907  0.00  0.00     0.056 H 
ENDBRANCH   8  10
ENDBRANCH   1   8
TORSDOF 2
