REMARK  3 active torsions:
REMARK  status: ('A' for Active; 'I' for Inactive)
REMARK    1  A    between atoms: C1_1  and  C2_2 
REMARK    2  A    between atoms: C7_8  and  C8_10 
REMARK    3  A    between atoms: C8_10  and  O1_11 
ROOT
ATOM      1  C2  <0> d           1.378  -0.510  -0.437  0.00  0.00    -0.049 C 
ATOM      2  H1  <0> d           1.448  -1.583  -0.257  0.00  0.00     0.040 H 
ATOM      3  C3  <0> d           0.002  -0.004   0.002  0.00  0.00    -0.047 C 
ATOM      4  C4  <0> d          -0.018   1.496   0.010  0.00  0.00    -0.106 C 
ATOM      5  C5  <0> d           1.044   2.236   0.004  0.00  0.00    -0.106 C 
ATOM      6  C6  <0> d           2.444   1.697  -0.022  0.00  0.00    -0.044 C 
ATOM      7  C7  <0> d           2.448   0.221   0.383  0.00  0.00    -0.027 C 
ATOM      8  H2  <0> d           2.220   0.132   1.445  0.00  0.00     0.044 H 
ATOM      9  H6  <0> d          -0.216  -0.374   1.004  0.00  0.00     0.039 H 
ATOM     10  H7  <0> d          -0.754  -0.372  -0.692  0.00  0.00     0.039 H 
ATOM     11  H8  <0> d          -0.979   1.990   0.017  0.00  0.00     0.076 H 
ATOM     12  H9  <0> d           0.914   3.308   0.018  0.00  0.00     0.076 H 
ATOM     13  H10 <0> d           3.063   2.264   0.673  0.00  0.00     0.039 H 
ATOM     14  H11 <0> d           2.851   1.796  -1.029  0.00  0.00     0.039 H 
ENDROOT
BRANCH   7  15
ATOM     15  C8  <0> d           3.821  -0.391   0.099  0.00  0.00     0.021 C 
ATOM     16  H12 <0> d           3.787  -1.464   0.290  0.00  0.00     0.074 H 
ATOM     17  H13 <0> d           4.089  -0.215  -0.943  0.00  0.00     0.074 H 
BRANCH  15  18
ATOM     18  O1  <0> d           4.798   0.214   0.949  0.00  0.00    -0.400 OA
ATOM     19  H14 <0> d           5.694  -0.127   0.824  0.00  0.00     0.209 HD
ENDBRANCH  15  18
ENDBRANCH   7  15
BRANCH   1  20
ATOM     20  C1  <0> d           1.580  -0.224  -1.926  0.00  0.00    -0.072 C 
ATOM     21  H3  <0> d           1.517   0.850  -2.102  0.00  0.00     0.028 H 
ATOM     22  H4  <0> d           2.561  -0.585  -2.236  0.00  0.00     0.028 H 
ATOM     23  H5  <0> d           0.807  -0.732  -2.502  0.00  0.00     0.028 H 
ENDBRANCH   1  20
TORSDOF 3
