REMARK  3 active torsions:
REMARK  status: ('A' for Active; 'I' for Inactive)
REMARK    1  A    between atoms: C1_1  and  C2_2 
REMARK    2  A    between atoms: C3_4  and  C5_7 
REMARK    3  A    between atoms: C3_4  and  C6_8 
ROOT
ATOM      1  C2  <0> d           0.002  -0.004   0.002  0.00  0.00     0.131 C 
ATOM      2  N1  <0> d          -0.015   1.282   0.009  0.00  0.00    -0.259 NA
ATOM      3  C3  <0> d           1.377   1.771  -0.002  0.00  0.00     0.070 C 
ATOM      4  C4  <0> d           2.167   0.493   0.375  0.00  0.00     0.052 C 
ATOM      5  O1  <0> d           1.238  -0.537  -0.021  0.00  0.00    -0.336 OA
ATOM      6  H4  <0> d           2.361   0.454   1.447  0.00  0.00     0.079 H 
ATOM      7  H5  <0> d           3.095   0.423  -0.192  0.00  0.00     0.079 H 
ENDROOT
BRANCH   3   8
ATOM      8  C5  <0> d           1.772   2.267  -1.394  0.00  0.00    -0.049 C 
ATOM      9  H6  <0> d           1.129   3.100  -1.679  0.00  0.00     0.031 H 
ATOM     10  H7  <0> d           2.811   2.598  -1.381  0.00  0.00     0.031 H 
ATOM     11  H8  <0> d           1.658   1.457  -2.114  0.00  0.00     0.031 H 
ENDBRANCH   3   8
BRANCH   3  12
ATOM     12  C6  <0> d           1.580   2.868   1.046  0.00  0.00    -0.049 C 
ATOM     13  H9  <0> d           1.331   2.478   2.033  0.00  0.00     0.031 H 
ATOM     14  H10 <0> d           2.621   3.192   1.035  0.00  0.00     0.031 H 
ATOM     15  H11 <0> d           0.933   3.714   0.816  0.00  0.00     0.031 H 
ENDBRANCH   3  12
BRANCH   1  16
ATOM     16  C1  <0> d          -1.251  -0.841   0.018  0.00  0.00    -0.016 C 
ATOM     17  H1  <0> d          -1.571  -1.037  -1.005  0.00  0.00     0.038 H 
ATOM     18  H2  <0> d          -1.051  -1.785   0.524  0.00  0.00     0.038 H 
ATOM     19  H3  <0> d          -2.039  -0.305   0.548  0.00  0.00     0.038 H 
ENDBRANCH   1  16
TORSDOF 3
