REMARK  5 active torsions:
REMARK  status: ('A' for Active; 'I' for Inactive)
REMARK    1  A    between atoms: C1_1  and  N1_2 
REMARK    2  A    between atoms: N1_2  and  C2_3 
REMARK    3  A    between atoms: C5_6  and  C8_10 
REMARK    4  A    between atoms: C7_8  and  N2_9 
REMARK    5  A    between atoms: C8_10  and  O1_11 
ROOT
ATOM      1  C2  <0> d          -2.010   2.472   3.529  0.00  0.00     0.054 A 
ATOM      2  C3  <0> d          -1.005   3.233   2.952  0.00  0.00    -0.055 A 
ATOM      3  C4  <0> d          -0.358   2.779   1.817  0.00  0.00    -0.072 A 
ATOM      4  C5  <0> d          -0.718   1.572   1.248  0.00  0.00    -0.033 A 
ATOM      5  C6  <0> d          -1.719   0.806   1.816  0.00  0.00    -0.047 A 
ATOM      6  C7  <0> d          -2.369   1.251   2.957  0.00  0.00     0.053 A 
ATOM      7  H5  <0> d          -0.724   4.179   3.392  0.00  0.00     0.087 H 
ATOM      8  H6  <0> d           0.428   3.371   1.372  0.00  0.00     0.084 H 
ATOM      9  H7  <0> d          -1.995  -0.139   1.371  0.00  0.00     0.088 H 
ENDROOT
BRANCH   1  10
ATOM     10  N1  <0> d          -2.663   2.927   4.680  0.00  0.00    -0.392 N 
ATOM     11  H4  <0> d          -3.366   2.394   5.082  0.00  0.00     0.159 HD
BRANCH  10  12
ATOM     12  C1  <0> d          -2.284   4.210   5.279  0.00  0.00    -0.021 C 
ATOM     13  H1  <0> d          -1.232   4.180   5.566  0.00  0.00     0.056 H 
ATOM     14  H2  <0> d          -2.440   5.009   4.554  0.00  0.00     0.056 H 
ATOM     15  H3  <0> d          -2.896   4.394   6.161  0.00  0.00     0.056 H 
ENDBRANCH  10  12
ENDBRANCH   1  10
BRANCH   6  16
ATOM     16  N2  <0> d          -3.384   0.478   3.534  0.00  0.00    -0.397 N 
ATOM     17  H8  <0> d          -3.633  -0.371   3.136  0.00  0.00     0.156 HD
ATOM     18  H9  <0> d          -3.838   0.790   4.332  0.00  0.00     0.156 HD
ENDBRANCH   6  16
BRANCH   4  19
ATOM     19  C8  <0> d          -0.013   1.086   0.008  0.00  0.00     0.041 C 
ATOM     20  H10 <0> d           0.002  -0.004   0.002  0.00  0.00     0.081 H 
ATOM     21  H11 <0> d           1.010   1.463   0.000  0.00  0.00     0.081 H 
BRANCH  19  22
ATOM     22  O1  <0> d          -0.704   1.559  -1.150  0.00  0.00    -0.396 OA
ATOM     23  H12 <0> d          -0.304   1.284  -1.986  0.00  0.00     0.209 HD
ENDBRANCH  19  22
ENDBRANCH   4  19
TORSDOF 5
