REMARK  1 active torsions:
REMARK  status: ('A' for Active; 'I' for Inactive)
REMARK    1  A    between atoms: C1_1  and  C2_2 
ROOT
ATOM      1  C2  <0> d           0.002  -0.004   0.002  0.00  0.00     0.035 A 
ATOM      2  C3  <0> d           0.005  -0.674  -1.206  0.00  0.00    -0.038 A 
ATOM      3  C4  <0> d           0.024  -2.071  -1.212  0.00  0.00     0.071 A 
ATOM      4  C5  <0> d           0.039  -2.741   0.030  0.00  0.00     0.121 A 
ATOM      5  C6  <0> d           0.035  -1.977   1.206  0.00  0.00     0.223 A 
ATOM      6  N1  <0> d           0.022  -0.656   1.148  0.00  0.00    -0.226 NA
ATOM      7  O1  <0> d           0.049  -2.597   2.410  0.00  0.00    -0.168 OA
ATOM      8  C7  <0> d           0.059  -4.172   0.089  0.00  0.00     0.105 C 
ATOM      9  N2  <0> d           0.074  -5.307   0.135  0.00  0.00    -0.191 NA
ATOM     10  C8  <0> d           0.028  -2.803  -2.444  0.00  0.00     0.101 C 
ATOM     11  N3  <0> d           0.031  -3.382  -3.421  0.00  0.00    -0.191 NA
ATOM     12  H4  <0> d          -0.007  -0.124  -2.135  0.00  0.00     0.089 H 
ENDROOT
BRANCH   1  13
ATOM     13  C1  <0> d          -0.018   1.503   0.010  0.00  0.00    -0.035 C 
ATOM     14  H1  <0> d           1.004   1.880   0.003  0.00  0.00     0.035 H 
ATOM     15  H2  <0> d          -0.545   1.864  -0.873  0.00  0.00     0.035 H 
ATOM     16  H3  <0> d          -0.529   1.854   0.907  0.00  0.00     0.035 H 
ENDBRANCH   1  13
TORSDOF 1
