REMARK  5 active torsions:
REMARK  status: ('A' for Active; 'I' for Inactive)
REMARK    1  A    between atoms: C1_1  and  C2_2 
REMARK    2  A    between atoms: C5_6  and  C9_11 
REMARK    3  A    between atoms: C5_6  and  C10_12 
REMARK    4  A    between atoms: C6_7  and  C8_10 
REMARK    5  A    between atoms: C10_12  and  O1_13 
ROOT
ATOM      1  C2  <0> d          -0.729   1.579   1.267  0.00  0.00    -0.057 C 
ATOM      2  H1  <0> d          -0.744   2.669   1.273  0.00  0.00     0.039 H 
ATOM      3  C3  <0> d           0.011   1.072   2.506  0.00  0.00    -0.061 C 
ATOM      4  C4  <0> d           0.032  -0.457   2.498  0.00  0.00    -0.056 C 
ATOM      5  C5  <0> d          -1.403  -0.987   2.509  0.00  0.00    -0.019 C 
ATOM      6  C6  <0> d          -2.143  -0.480   1.269  0.00  0.00    -0.048 C 
ATOM      7  H2  <0> d          -1.633  -0.832   0.372  0.00  0.00     0.040 H 
ATOM      8  C7  <0> d          -2.164   1.050   1.278  0.00  0.00    -0.058 C 
ATOM      9  H6  <0> d           1.034   1.450   2.499  0.00  0.00     0.033 H 
ATOM     10  H7  <0> d          -0.499   1.424   3.403  0.00  0.00     0.033 H 
ATOM     11  H8  <0> d           0.542  -0.809   1.601  0.00  0.00     0.034 H 
ATOM     12  H9  <0> d           0.559  -0.819   3.381  0.00  0.00     0.034 H 
ATOM     13  H10 <0> d          -2.674   1.401   2.175  0.00  0.00     0.034 H 
ATOM     14  H11 <0> d          -2.691   1.411   0.395  0.00  0.00     0.034 H 
ENDROOT
BRANCH   5  15
ATOM     15  C9  <0> d          -2.120  -0.494   3.768  0.00  0.00    -0.067 C 
ATOM     16  H15 <0> d          -2.134   0.596   3.774  0.00  0.00     0.028 H 
ATOM     17  H16 <0> d          -3.142  -0.871   3.775  0.00  0.00     0.028 H 
ATOM     18  H17 <0> d          -1.592  -0.855   4.651  0.00  0.00     0.028 H 
ENDBRANCH   5  15
BRANCH   5  19
ATOM     19  C10 <0> d          -1.383  -2.517   2.500  0.00  0.00     0.024 C 
ATOM     20  H18 <0> d          -2.405  -2.894   2.508  0.00  0.00     0.075 H 
ATOM     21  H19 <0> d          -0.873  -2.868   1.604  0.00  0.00     0.075 H 
BRANCH  19  22
ATOM     22  O1  <0> d          -0.692  -2.990   3.658  0.00  0.00    -0.400 OA
ATOM     23  H20 <0> d          -0.640  -3.954   3.719  0.00  0.00     0.209 HD
ENDBRANCH  19  22
ENDBRANCH   5  19
BRANCH   6  24
ATOM     24  C8  <0> d          -3.579  -1.010   1.280  0.00  0.00    -0.072 C 
ATOM     25  H12 <0> d          -4.089  -0.658   2.177  0.00  0.00     0.028 H 
ATOM     26  H13 <0> d          -4.106  -0.649   0.397  0.00  0.00     0.028 H 
ATOM     27  H14 <0> d          -3.564  -2.100   1.274  0.00  0.00     0.028 H 
ENDBRANCH   6  24
BRANCH   1  28
ATOM     28  C1  <0> d          -0.013   1.086   0.008  0.00  0.00    -0.073 C 
ATOM     29  H3  <0> d           0.002  -0.004   0.002  0.00  0.00     0.028 H 
ATOM     30  H4  <0> d           1.010   1.463   0.000  0.00  0.00     0.028 H 
ATOM     31  H5  <0> d          -0.540   1.447  -0.875  0.00  0.00     0.028 H 
ENDBRANCH   1  28
TORSDOF 5
