REMARK  4 active torsions:
REMARK  status: ('A' for Active; 'I' for Inactive)
REMARK    1  A    between atoms: C1_1  and  C2_2 
REMARK    2  A    between atoms: C6_7  and  C9_12 
REMARK    3  A    between atoms: C7_9  and  C8_10 
REMARK    4  A    between atoms: C8_10  and  O1_11 
ROOT
ATOM      1  C2  <0> d           1.470   1.903  -0.083  0.00  0.00    -0.052 C 
ATOM      2  H1  <0> d           2.035   1.453  -0.899  0.00  0.00     0.040 H 
ATOM      3  C3  <0> d           0.037   1.368  -0.099  0.00  0.00    -0.062 C 
ATOM      4  C4  <0> d           0.058  -0.152   0.074  0.00  0.00    -0.064 C 
ATOM      5  C5  <0> d           0.720  -0.505   1.407  0.00  0.00    -0.062 C 
ATOM      6  C6  <0> d           2.153   0.031   1.423  0.00  0.00    -0.052 C 
ATOM      7  H2  <0> d           2.625  -0.221   2.373  0.00  0.00     0.040 H 
ATOM      8  C7  <0> d           2.132   1.551   1.250  0.00  0.00    -0.027 C 
ATOM      9  H6  <0> d          -0.435   1.619  -1.049  0.00  0.00     0.033 H 
ATOM     10  H7  <0> d          -0.528   1.818   0.718  0.00  0.00     0.033 H 
ATOM     11  H8  <0> d          -0.963  -0.533   0.063  0.00  0.00     0.033 H 
ATOM     12  H9  <0> d           0.623  -0.602  -0.743  0.00  0.00     0.033 H 
ATOM     13  H10 <0> d           0.155  -0.054   2.224  0.00  0.00     0.033 H 
ATOM     14  H11 <0> d           0.735  -1.588   1.530  0.00  0.00     0.033 H 
ATOM     15  H12 <0> d           1.567   2.001   2.067  0.00  0.00     0.044 H 
ENDROOT
BRANCH   8  16
ATOM     16  C8  <0> d           3.565   2.086   1.266  0.00  0.00     0.021 C 
ATOM     17  H13 <0> d           4.144   1.599   0.481  0.00  0.00     0.074 H 
ATOM     18  H14 <0> d           3.553   3.162   1.093  0.00  0.00     0.074 H 
BRANCH  16  19
ATOM     19  O1  <0> d           4.161   1.814   2.536  0.00  0.00    -0.400 OA
ATOM     20  H15 <0> d           5.073   2.127   2.617  0.00  0.00     0.209 HD
ENDBRANCH  16  19
ENDBRANCH   8  16
BRANCH   1  21
ATOM     21  C1  <0> d           1.449   3.424  -0.256  0.00  0.00    -0.072 C 
ATOM     22  H3  <0> d           0.978   3.881   0.615  0.00  0.00     0.028 H 
ATOM     23  H4  <0> d           2.470   3.793  -0.353  0.00  0.00     0.028 H 
ATOM     24  H5  <0> d           0.882   3.680  -1.151  0.00  0.00     0.028 H 
ENDBRANCH   1  21
BRANCH   6  25
ATOM     25  C9  <0> d           2.946  -0.602   0.277  0.00  0.00    -0.072 C 
ATOM     26  H16 <0> d           2.475  -0.350  -0.673  0.00  0.00     0.028 H 
ATOM     27  H17 <0> d           3.967  -0.220   0.288  0.00  0.00     0.028 H 
ATOM     28  H18 <0> d           2.962  -1.684   0.400  0.00  0.00     0.028 H 
ENDBRANCH   6  25
TORSDOF 4
