REMARK  4 active torsions:
REMARK  status: ('A' for Active; 'I' for Inactive)
REMARK    1  A    between atoms: C1_1  and  C2_2 
REMARK    2  A    between atoms: C2_2  and  C3_3 
REMARK    3  A    between atoms: C6_6  and  C9_9 
REMARK    4  A    between atoms: C9_9  and  C10_11 
ROOT
ATOM      1  C3  <0> d          -0.718   1.572   1.248  0.00  0.00    -0.059 A 
ATOM      2  C4  <0> d          -0.356   2.781   1.816  0.00  0.00    -0.076 A 
ATOM      3  C5  <0> d          -1.000   3.235   2.948  0.00  0.00    -0.069 A 
ATOM      4  C6  <0> d          -2.014   2.465   3.527  0.00  0.00     0.009 A 
ATOM      5  C7  <0> d          -2.370   1.242   2.950  0.00  0.00    -0.069 A 
ATOM      6  C8  <0> d          -1.720   0.804   1.815  0.00  0.00    -0.076 A 
ATOM      7  H6  <0> d           0.429   3.372   1.370  0.00  0.00     0.084 H 
ATOM      8  H7  <0> d          -0.720   4.180   3.388  0.00  0.00     0.085 H 
ATOM      9  H8  <0> d          -3.152   0.642   3.391  0.00  0.00     0.085 H 
ATOM     10  H9  <0> d          -1.994  -0.140   1.368  0.00  0.00     0.084 H 
ENDROOT
BRANCH   1  11
ATOM     11  C2  <0> d          -0.013   1.086   0.008  0.00  0.00    -0.044 C 
ATOM     12  H4  <0> d           0.002  -0.004   0.002  0.00  0.00     0.039 H 
ATOM     13  H5  <0> d           1.010   1.463   0.000  0.00  0.00     0.039 H 
BRANCH  11  14
ATOM     14  C1  <0> d          -0.753   1.593  -1.232  0.00  0.00    -0.073 C 
ATOM     15  H1  <0> d          -0.767   2.683  -1.226  0.00  0.00     0.028 H 
ATOM     16  H2  <0> d          -0.242   1.241  -2.128  0.00  0.00     0.028 H 
ATOM     17  H3  <0> d          -1.775   1.215  -1.224  0.00  0.00     0.028 H 
ENDBRANCH  11  14
ENDBRANCH   1  11
BRANCH   4  18
ATOM     18  C9  <0> d          -2.704   2.940   4.738  0.00  0.00     0.155 C 
ATOM     19  O1  <0> d          -3.582   2.270   5.237  0.00  0.00    -0.293 OA
BRANCH  18  20
ATOM     20  C10 <0> d          -2.317   4.258   5.357  0.00  0.00    -0.017 C 
ATOM     21  H10 <0> d          -2.871   4.989   4.957  0.00  0.00     0.038 H 
ATOM     22  H11 <0> d          -2.488   4.219   6.432  0.00  0.00     0.038 H 
ATOM     23  H12 <0> d          -1.262   4.455   5.164  0.00  0.00     0.038 H 
ENDBRANCH  18  20
ENDBRANCH   4  18
TORSDOF 4
