REMARK  1 active torsions:
REMARK  status: ('A' for Active; 'I' for Inactive)
REMARK    1  A    between atoms: C1_1  and  C2_2 
ROOT
ATOM      1  C2  <0> d           0.002  -0.004   0.002  0.00  0.00    -0.022 A 
ATOM      2  C3  <0> d           0.006  -0.700  -1.196  0.00  0.00    -0.071 A 
ATOM      3  C4  <0> d           0.025  -2.085  -1.157  0.00  0.00    -0.043 A 
ATOM      4  C5  <0> d           0.040  -2.731   0.070  0.00  0.00     0.127 A 
ATOM      5  N1  <0> d           0.036  -2.045   1.194  0.00  0.00    -0.225 NA
ATOM      6  C6  <0> d           0.023  -0.717   1.200  0.00  0.00     0.144 A 
ATOM      7  C7  <0> d           0.025  -0.012   2.446  0.00  0.00     0.120 C 
ATOM      8  N2  <0> d           0.027   0.548   3.435  0.00  0.00    -0.190 NA
ATOM      9 Cl1  <0> d           0.064  -4.466   0.125  0.00  0.00    -0.062 Cl
ATOM     10  H4  <0> d          -0.006  -0.174  -2.140  0.00  0.00     0.084 H 
ATOM     11  H5  <0> d           0.029  -2.656  -2.074  0.00  0.00     0.088 H 
ENDROOT
BRANCH   1  12
ATOM     12  C1  <0> d          -0.018   1.503   0.010  0.00  0.00    -0.048 C 
ATOM     13  H1  <0> d           1.004   1.880   0.003  0.00  0.00     0.033 H 
ATOM     14  H2  <0> d          -0.545   1.864  -0.873  0.00  0.00     0.033 H 
ATOM     15  H3  <0> d          -0.529   1.854   0.907  0.00  0.00     0.033 H 
ENDBRANCH   1  12
TORSDOF 1
