REMARK  1 active torsions:
REMARK  status: ('A' for Active; 'I' for Inactive)
REMARK    1  A    between atoms: C2_2  and  N3_10 
ROOT
ATOM      1  C1  <0> d          -0.016   1.340   0.009  0.00  0.00     0.046 A 
ATOM      2  C2  <0> d           1.267   1.780  -0.001  0.00  0.00     0.120 A 
ATOM      3  N1  <0> d           2.059   0.670  -0.013  0.00  0.00    -0.321 N 
ATOM      4  C3  <0> d           1.234  -0.418  -0.012  0.00  0.00     0.107 A 
ATOM      5  N2  <0> d           0.002  -0.004   0.002  0.00  0.00    -0.244 NA
ATOM      6  C4  <0> d           1.725  -1.846  -0.028  0.00  0.00    -0.010 C 
ATOM      7  C5  <0> d           3.202  -1.839  -0.442  0.00  0.00    -0.057 C 
ATOM      8  C6  <0> d           3.958  -0.802   0.392  0.00  0.00    -0.049 C 
ATOM      9  C7  <0> d           3.522   0.608  -0.024  0.00  0.00     0.003 C 
ATOM     10  H1  <0> d          -0.899   1.962   0.017  0.00  0.00     0.120 H 
ATOM     11  H2  <0> d           1.625  -2.280   0.967  0.00  0.00     0.044 H 
ATOM     12  H3  <0> d           1.144  -2.427  -0.744  0.00  0.00     0.044 H 
ATOM     13  H4  <0> d           3.282  -1.584  -1.499  0.00  0.00     0.033 H 
ATOM     14  H5  <0> d           3.632  -2.826  -0.273  0.00  0.00     0.033 H 
ATOM     15  H6  <0> d           5.029  -0.914   0.228  0.00  0.00     0.035 H 
ATOM     16  H7  <0> d           3.735  -0.954   1.448  0.00  0.00     0.035 H 
ATOM     17  H8  <0> d           3.890   0.822  -1.027  0.00  0.00     0.065 H 
ATOM     18  H9  <0> d           3.925   1.339   0.677  0.00  0.00     0.065 H 
ENDROOT
BRANCH   2  19
ATOM     19  N3  <0> d           1.692   3.109   0.002  0.00  0.00    -0.384 N 
ATOM     20  H10 <0> d           1.040   3.828   0.012  0.00  0.00     0.157 HD
ATOM     21  H11 <0> d           2.640   3.315  -0.006  0.00  0.00     0.157 HD
ENDBRANCH   2  19
TORSDOF 1
