REMARK  2 active torsions:
REMARK  status: ('A' for Active; 'I' for Inactive)
REMARK    1  A    between atoms: C3_3  and  O2_10 
REMARK    2  A    between atoms: C4_4  and  C7_8 
ROOT
ATOM      1  C1  <0> d           1.346   5.836   0.020  0.00  0.00    -0.077 A 
ATOM      2  C2  <0> d           1.331   5.146   1.217  0.00  0.00    -0.050 A 
ATOM      3  C3  <0> d           1.272   3.761   1.222  0.00  0.00     0.085 A 
ATOM      4  C4  <0> d           1.238   3.062   0.007  0.00  0.00     0.112 A 
ATOM      5  C5  <0> d           1.254   3.773  -1.199  0.00  0.00     0.136 A 
ATOM      6  C6  <0> d           1.308   5.153  -1.183  0.00  0.00    -0.044 A 
ATOM      7  F1  <0> d           1.217   3.110  -2.376  0.00  0.00    -0.205 F 
ATOM      8  H1  <0> d           1.388   6.915   0.023  0.00  0.00     0.083 H 
ATOM      9  H2  <0> d           1.361   5.688   2.151  0.00  0.00     0.087 H 
ATOM     10  H3  <0> d           1.321   5.702  -2.113  0.00  0.00     0.088 H 
ENDROOT
BRANCH   4  11
ATOM     11  C7  <0> d           1.181   1.591  -0.001  0.00  0.00     0.215 C 
ATOM     12  O1  <0> d           2.209   0.943  -0.014  0.00  0.00    -0.644 OA
ATOM     13  O3  <0> d          -0.011   0.963   0.007  0.00  0.00    -0.644 OA
ENDBRANCH   4  11
BRANCH   3  14
ATOM     14  O2  <0> d           1.251   3.085   2.398  0.00  0.00    -0.359 OA
ATOM     15  H4  <0> d           2.127   2.854   2.735  0.00  0.00     0.217 HD
ENDBRANCH   3  14
TORSDOF 2
