REMARK  0 active torsions:
REMARK  status: ('A' for Active; 'I' for Inactive)
ROOT
ATOM      1  C1  <0> d          -0.013   1.086   0.008  0.00  0.00    -0.054 C 
ATOM      2  C2  <0> d          -0.792   1.612   1.238  0.00  0.00    -0.009 C 
ATOM      3  C3  <0> d          -2.248   1.482   0.796  0.00  0.00     0.132 C 
ATOM      4  O1  <0> d          -3.192   1.141   1.468  0.00  0.00    -0.298 OA
ATOM      5  C4  <0> d          -2.252   1.876  -0.669  0.00  0.00     0.015 C 
ATOM      6  H1  <0> d          -2.583   2.815  -0.761  0.00  0.00     0.053 H 
ATOM      7  C5  <0> d          -0.812   1.623  -1.197  0.00  0.00    -0.036 C 
ATOM      8  H2  <0> d          -0.360   2.512  -1.637  0.00  0.00     0.042 H 
ATOM      9  C6  <0> d          -0.978   0.459  -2.223  0.00  0.00    -0.033 C 
ATOM     10  H3  <0> d          -0.154   0.309  -2.921  0.00  0.00     0.046 H 
ATOM     11  C7  <0> d          -2.372   0.830  -2.849  0.00  0.00    -0.051 C 
ATOM     12  C8  <0> d          -3.100   0.787  -1.434  0.00  0.00    -0.027 C 
ATOM     13  H4  <0> d          -4.181   0.926  -1.437  0.00  0.00     0.047 H 
ATOM     14  C9  <0> d          -2.590  -0.560  -0.907  0.00  0.00    -0.101 C 
ATOM     15  C10 <0> d          -1.367  -0.749  -1.362  0.00  0.00    -0.102 C 
ATOM     16  H5  <0> d           0.002  -0.004   0.002  0.00  0.00     0.034 H 
ATOM     17  H6  <0> d           1.003   1.481   0.000  0.00  0.00     0.034 H 
ATOM     18  H7  <0> d          -0.567   1.055   2.038  0.00  0.00     0.044 H 
ATOM     19  H8  <0> d          -0.540   2.654   1.438  0.00  0.00     0.044 H 
ATOM     20  H9  <0> d          -2.374   1.818  -3.308  0.00  0.00     0.035 H 
ATOM     21  H10 <0> d          -2.743   0.061  -3.528  0.00  0.00     0.035 H 
ATOM     22  H11 <0> d          -3.139  -1.239  -0.271  0.00  0.00     0.077 H 
ATOM     23  H12 <0> d          -0.744  -1.608  -1.162  0.00  0.00     0.077 H 
ENDROOT
TORSDOF 0
