REMARK  4 active torsions:
REMARK  status: ('A' for Active; 'I' for Inactive)
REMARK    1  A    between atoms: C1_1  and  C2_2 
REMARK    2  A    between atoms: C2_2  and  N1_3 
REMARK       I    between atoms: N1_3  and  C3_4 
REMARK    3  A    between atoms: C3_4  and  C4_6 
REMARK    4  A    between atoms: C4_6  and  N2_7 
ROOT
ATOM      1  N1  <0> d           0.688  -0.476  -1.203  0.00  0.00    -0.360 N 
ATOM      2  C3  <0> d           0.827  -1.799  -1.425  0.00  0.00     0.235 C 
ATOM      3  O1  <0> d           0.384  -2.597  -0.627  0.00  0.00    -0.272 OA
ATOM      4  H6  <0> d           1.042   0.162  -1.842  0.00  0.00     0.162 HD
ENDROOT
BRANCH   2   5
ATOM      5  C4  <0> d           1.532  -2.285  -2.665  0.00  0.00     0.073 C 
ATOM      6  H7  <0> d           1.005  -1.924  -3.548  0.00  0.00     0.079 H 
ATOM      7  H8  <0> d           2.555  -1.907  -2.673  0.00  0.00     0.079 H 
BRANCH   5   8
ATOM      8  N2  <0> d           1.552  -3.749  -2.673  0.00  0.00    -0.341 N 
ATOM      9  C7  <0> d           0.616  -4.561  -3.212  0.00  0.00     0.066 A 
ATOM     10  N3  <0> d           0.980  -5.800  -3.026  0.00  0.00    -0.255 NA
ATOM     11  H11 <0> d          -0.283  -4.237  -3.715  0.00  0.00     0.143 H 
ATOM     12  C6  <0> d           2.145  -5.824  -2.361  0.00  0.00     0.018 A 
ATOM     13  C5  <0> d           2.520  -4.552  -2.131  0.00  0.00    -0.002 A 
ATOM     14  H10 <0> d           2.687  -6.710  -2.063  0.00  0.00     0.117 H 
ATOM     15  H9  <0> d           3.412  -4.226  -1.617  0.00  0.00     0.113 H 
ENDBRANCH   5   8
ENDBRANCH   2   5
BRANCH   1  16
ATOM     16  C2  <0> d           0.002  -0.004   0.002  0.00  0.00    -0.008 C 
ATOM     17  H4  <0> d           0.529  -0.365   0.885  0.00  0.00     0.063 H 
ATOM     18  H5  <0> d          -1.020  -0.381   0.010  0.00  0.00     0.063 H 
BRANCH  16  19
ATOM     19  C1  <0> d          -0.019   1.526   0.010  0.00  0.00    -0.061 C 
ATOM     20  H1  <0> d           1.004   1.903   0.003  0.00  0.00     0.029 H 
ATOM     21  H2  <0> d          -0.546   1.887  -0.873  0.00  0.00     0.029 H 
ATOM     22  H3  <0> d          -0.529   1.877   0.907  0.00  0.00     0.029 H 
ENDBRANCH  16  19
ENDBRANCH   1  16
TORSDOF 4
