REMARK  3 active torsions:
REMARK  status: ('A' for Active; 'I' for Inactive)
REMARK    1  A    between atoms: C1_1  and  O1_2 
REMARK    2  A    between atoms: O1_2  and  C2_3 
REMARK    3  A    between atoms: C7_9  and  O2_11 
ROOT
ATOM      1  C2  <0> d          -0.729   1.579   1.267  0.00  0.00     0.062 C 
ATOM      2  H1  <0> d          -0.744   2.669   1.273  0.00  0.00     0.087 H 
ATOM      3  C3  <0> d          -0.013   1.086   0.008  0.00  0.00    -0.038 C 
ATOM      4  C4  <0> d          -0.753   1.593  -1.232  0.00  0.00    -0.063 C 
ATOM      5  C5  <0> d          -2.188   1.063  -1.221  0.00  0.00    -0.063 C 
ATOM      6  C6  <0> d          -2.904   1.556   0.038  0.00  0.00    -0.039 C 
ATOM      7  C7  <0> d          -2.164   1.050   1.278  0.00  0.00     0.060 C 
ATOM      8  H2  <0> d          -2.674   1.401   2.175  0.00  0.00     0.086 H 
ATOM      9  H6  <0> d           0.002  -0.004   0.002  0.00  0.00     0.036 H 
ATOM     10  H7  <0> d           1.010   1.463   0.000  0.00  0.00     0.036 H 
ATOM     11  H8  <0> d          -0.767   2.683  -1.226  0.00  0.00     0.033 H 
ATOM     12  H9  <0> d          -0.242   1.241  -2.128  0.00  0.00     0.033 H 
ATOM     13  H10 <0> d          -2.715   1.424  -2.104  0.00  0.00     0.033 H 
ATOM     14  H11 <0> d          -2.173  -0.027  -1.227  0.00  0.00     0.033 H 
ATOM     15  H12 <0> d          -2.919   2.646   0.044  0.00  0.00     0.036 H 
ATOM     16  H13 <0> d          -3.927   1.179   0.046  0.00  0.00     0.036 H 
ENDROOT
BRANCH   1  17
ATOM     17  O1  <0> d          -0.038   1.106   2.425  0.00  0.00    -0.388 OA
BRANCH  17  18
ATOM     18  C1  <0> d           0.983   1.989   2.894  0.00  0.00     0.005 C 
ATOM     19  H3  <0> d           1.727   2.133   2.111  0.00  0.00     0.066 H 
ATOM     20  H4  <0> d           0.539   2.950   3.155  0.00  0.00     0.066 H 
ATOM     21  H5  <0> d           1.459   1.558   3.775  0.00  0.00     0.066 H 
ENDBRANCH  17  18
ENDBRANCH   1  17
BRANCH   7  22
ATOM     22  O2  <0> d          -2.145  -0.379   1.270  0.00  0.00    -0.393 OA
ATOM     23  H14 <0> d          -3.023  -0.784   1.276  0.00  0.00     0.210 HD
ENDBRANCH   7  22
TORSDOF 3
