REMARK  5 active torsions:
REMARK  status: ('A' for Active; 'I' for Inactive)
REMARK    1  A    between atoms: C1_1  and  O1_2 
REMARK    2  A    between atoms: O1_2  and  C2_3 
REMARK    3  A    between atoms: C6_7  and  C8_9 
REMARK    4  A    between atoms: C8_9  and  C9_10 
REMARK    5  A    between atoms: C9_10  and  O2_11 
ROOT
ATOM      1  C2  <0> d           1.682   1.378   4.170  0.00  0.00     0.068 A 
ATOM      2  C3  <0> d           1.334   0.158   4.731  0.00  0.00    -0.051 A 
ATOM      3  C4  <0> d           0.322  -0.596   4.169  0.00  0.00    -0.080 A 
ATOM      4  C5  <0> d          -0.348  -0.133   3.052  0.00  0.00    -0.077 A 
ATOM      5  C6  <0> d           0.000   1.080   2.488  0.00  0.00    -0.053 A 
ATOM      6  C7  <0> d           1.012   1.838   3.046  0.00  0.00    -0.045 A 
ATOM      7  H4  <0> d           1.854  -0.203   5.606  0.00  0.00     0.087 H 
ATOM      8  H5  <0> d           0.051  -1.546   4.606  0.00  0.00     0.083 H 
ATOM      9  H6  <0> d          -1.142  -0.722   2.617  0.00  0.00     0.084 H 
ATOM     10  H7  <0> d           1.280   2.787   2.607  0.00  0.00     0.088 H 
ENDROOT
BRANCH   5  11
ATOM     11  C8  <0> d          -0.729   1.579   1.267  0.00  0.00    -0.021 C 
ATOM     12  H8  <0> d          -0.744   2.669   1.273  0.00  0.00     0.043 H 
ATOM     13  H9  <0> d          -1.751   1.202   1.275  0.00  0.00     0.043 H 
BRANCH  11  14
ATOM     14  C9  <0> d          -0.013   1.086   0.008  0.00  0.00     0.020 C 
ATOM     15  H10 <0> d           0.002  -0.004   0.002  0.00  0.00     0.074 H 
ATOM     16  H11 <0> d           1.010   1.463   0.000  0.00  0.00     0.074 H 
BRANCH  14  17
ATOM     17  O2  <0> d          -0.704   1.559  -1.150  0.00  0.00    -0.401 OA
ATOM     18  H12 <0> d          -0.304   1.284  -1.986  0.00  0.00     0.209 HD
ENDBRANCH  14  17
ENDBRANCH  11  14
ENDBRANCH   5  11
BRANCH   1  19
ATOM     19  O1  <0> d           2.677   2.122   4.721  0.00  0.00    -0.356 OA
BRANCH  19  20
ATOM     20  C1  <0> d           3.323   1.586   5.877  0.00  0.00     0.010 C 
ATOM     21  H1  <0> d           2.589   1.445   6.671  0.00  0.00     0.066 H 
ATOM     22  H2  <0> d           3.778   0.627   5.628  0.00  0.00     0.066 H 
ATOM     23  H3  <0> d           4.095   2.277   6.215  0.00  0.00     0.066 H 
ENDBRANCH  19  20
ENDBRANCH   1  19
TORSDOF 5
