REMARK  2 active torsions:
REMARK  status: ('A' for Active; 'I' for Inactive)
REMARK    1  A    between atoms: C1_1  and  S1_2 
REMARK    2  A    between atoms: S1_2  and  C2_5 
ROOT
ATOM      1  C2  <0> d           1.106   3.179   0.008  0.00  0.00     0.076 A 
ATOM      2  C3  <0> d           1.173   1.794   0.001  0.00  0.00    -0.059 A 
ATOM      3  C4  <0> d          -0.013   1.076   0.008  0.00  0.00    -0.065 A 
ATOM      4  C5  <0> d          -1.214   1.759   0.017  0.00  0.00     0.002 A 
ATOM      5  N1  <0> d          -1.240   3.078   0.030  0.00  0.00    -0.272 NA
ATOM      6  C6  <0> d          -0.132   3.793   0.023  0.00  0.00     0.023 A 
ATOM      7  H4  <0> d           2.127   1.287  -0.011  0.00  0.00     0.085 H 
ATOM      8  H5  <0> d           0.002  -0.004   0.002  0.00  0.00     0.085 H 
ATOM      9  H6  <0> d          -2.142   1.207   0.019  0.00  0.00     0.114 H 
ATOM     10  H7  <0> d          -0.193   4.871   0.029  0.00  0.00     0.117 H 
ENDROOT
BRANCH   1  11
ATOM     11  S1  <0> d           2.580   4.144  -0.000  0.00  0.00     0.173 S 
ATOM     12  O1  <0> d           2.213   5.372   0.612  0.00  0.00    -0.223 OA
ATOM     13  O2  <0> d           3.565   3.306   0.590  0.00  0.00    -0.223 OA
BRANCH  11  14
ATOM     14  C1  <0> d           2.955   4.408  -1.755  0.00  0.00     0.020 C 
ATOM     15  H1  <0> d           2.126   4.934  -2.229  0.00  0.00     0.049 H 
ATOM     16  H2  <0> d           3.863   5.003  -1.848  0.00  0.00     0.049 H 
ATOM     17  H3  <0> d           3.100   3.445  -2.245  0.00  0.00     0.049 H 
ENDBRANCH  11  14
ENDBRANCH   1  11
TORSDOF 2
