REMARK  2 active torsions:
REMARK  status: ('A' for Active; 'I' for Inactive)
REMARK    1  A    between atoms: C3_3  and  C5_6 
REMARK    2  A    between atoms: C6_8  and  N4_12 
ROOT
ATOM      1  C5  <0> d           1.243   1.778  -0.000  0.00  0.00     0.222 A 
ATOM      2  N1  <0> d          -0.016   1.310   0.009  0.00  0.00    -0.039 NA
ATOM      3  C6  <0> d           0.002  -0.004   0.002  0.00  0.00     0.716 A 
ATOM      4  N2  <0> d           1.292  -0.407  -0.013  0.00  0.00    -0.106 N 
ATOM      5  H1  <0> d           1.532  -1.480  -0.021  0.00  0.00     0.208 HD
ATOM      6  N3  <0> d           2.074   0.759  -0.014  0.00  0.00    -0.136 NA
ENDROOT
BRANCH   1   7
ATOM      7  C3  <0> d           1.630   3.205   0.003  0.00  0.00     0.125 A 
ATOM      8  C2  <0> d           2.901   3.686  -0.006  0.00  0.00    -0.045 A 
ATOM      9  C1  <0> d           2.803   5.092   0.002  0.00  0.00    -0.059 A 
ATOM     10  H3  <0> d           3.811   3.104  -0.018  0.00  0.00     0.088 H 
ATOM     11  C4  <0> d           1.490   5.396   0.016  0.00  0.00     0.019 A 
ATOM     12  H2  <0> d           3.624   5.793  -0.002  0.00  0.00     0.086 H 
ATOM     13  O1  <0> d           0.784   4.253   0.011  0.00  0.00    -0.319 OA
ATOM     14  H4  <0> d           1.075   6.393   0.025  0.00  0.00     0.123 H 
ENDBRANCH   1   7
BRANCH   3  15
ATOM     15  N4  <0> d          -1.107  -0.831   0.009  0.00  0.00    -0.231 N 
ATOM     16  H5  <0> d          -0.978  -1.923   0.002  0.00  0.00     0.174 HD
ATOM     17  H6  <0> d          -2.117  -0.396   0.021  0.00  0.00     0.174 HD
ENDBRANCH   3  15
TORSDOF 2
