REMARK  0 active torsions:
REMARK  status: ('A' for Active; 'I' for Inactive)
ROOT
ATOM      1  C1  <0> d           0.030  -2.771  -0.044  0.00  0.00    -0.081 A 
ATOM      2  C2  <0> d          -0.397  -2.100   1.087  0.00  0.00    -0.080 A 
ATOM      3  C3  <0> d          -0.413  -0.716   1.113  0.00  0.00    -0.049 A 
ATOM      4  C4  <0> d           0.002  -0.004   0.002  0.00  0.00     0.095 A 
ATOM      5  C5  <0> d           0.439  -0.679  -1.133  0.00  0.00     0.061 A 
ATOM      6  C6  <0> d           0.449  -2.064  -1.157  0.00  0.00    -0.055 A 
ATOM      7  N1  <0> d           0.879   0.061  -2.240  0.00  0.00    -0.388 N 
ATOM      8  C7  <0> d           2.096   0.872  -2.091  0.00  0.00    -0.005 C 
ATOM      9  C8  <0> d           1.770   2.193  -1.419  0.00  0.00    -0.030 C 
ATOM     10  C9  <0> d           1.252   2.013   0.001  0.00  0.00     0.028 C 
ATOM     11  O1  <0> d          -0.017   1.363   0.009  0.00  0.00    -0.349 OA
ATOM     12  H1  <0> d           0.036  -3.851  -0.059  0.00  0.00     0.083 H 
ATOM     13  H2  <0> d          -0.720  -2.658   1.953  0.00  0.00     0.083 H 
ATOM     14  H3  <0> d          -0.747  -0.195   1.998  0.00  0.00     0.087 H 
ATOM     15  H4  <0> d           0.782  -2.589  -2.040  0.00  0.00     0.087 H 
ATOM     16  H5  <0> d           0.342   0.048  -3.200  0.00  0.00     0.159 HD
ATOM     17  H6  <0> d           2.826   0.327  -1.475  0.00  0.00     0.064 H 
ATOM     18  H7  <0> d           2.528   1.071  -3.083  0.00  0.00     0.064 H 
ATOM     19  H8  <0> d           2.676   2.814  -1.373  0.00  0.00     0.038 H 
ATOM     20  H9  <0> d           0.995   2.717  -1.998  0.00  0.00     0.038 H 
ATOM     21  H10 <0> d           1.964   1.402   0.576  0.00  0.00     0.075 H 
ATOM     22  H11 <0> d           1.144   2.998   0.479  0.00  0.00     0.075 H 
ENDROOT
TORSDOF 0
