REMARK  1 active torsions:
REMARK  status: ('A' for Active; 'I' for Inactive)
REMARK    1  A    between atoms: C1_2  and  C2_5 
ROOT
ATOM      1  C2  <0> d          -0.718   1.572   1.248  0.00  0.00     0.042 A 
ATOM      2  C3  <0> d           0.010   1.804   2.405  0.00  0.00     0.129 A 
ATOM      3  C4  <0> d          -0.654   2.253   3.543  0.00  0.00    -0.044 A 
ATOM      4  C5  <0> d          -2.023   2.451   3.471  0.00  0.00    -0.065 A 
ATOM      5  C6  <0> d          -2.680   2.197   2.281  0.00  0.00    -0.023 A 
ATOM      6  N1  <0> d          -2.020   1.777   1.220  0.00  0.00    -0.367 N 
ATOM      7  O1  <0> d           1.353   1.596   2.428  0.00  0.00    -0.190 OA
ATOM      8  H4  <0> d          -0.115   2.443   4.459  0.00  0.00     0.088 H 
ATOM      9  H5  <0> d          -2.571   2.798   4.334  0.00  0.00     0.085 H 
ATOM     10  H6  <0> d          -3.748   2.349   2.219  0.00  0.00     0.111 H 
ATOM     11  H7  <0> d          -2.506   1.611   0.397  0.00  0.00     0.165 HD
ENDROOT
BRANCH   1  12
ATOM     12  C1  <0> d          -0.013   1.086   0.008  0.00  0.00    -0.035 C 
ATOM     13  H1  <0> d           0.002  -0.004   0.002  0.00  0.00     0.035 H 
ATOM     14  H2  <0> d           1.010   1.463   0.000  0.00  0.00     0.035 H 
ATOM     15  H3  <0> d          -0.540   1.447  -0.875  0.00  0.00     0.035 H 
ENDBRANCH   1  12
TORSDOF 1
