REMARK  8 active torsions:
REMARK  status: ('A' for Active; 'I' for Inactive)
REMARK    1  A    between atoms: C1_1  and  C2_2 
REMARK    2  A    between atoms: C2_2  and  C3_3 
REMARK    3  A    between atoms: C2_2  and  C4_4 
REMARK    4  A    between atoms: C2_2  and  C5_5 
REMARK    5  A    between atoms: C5_5  and  C6_6 
REMARK    6  A    between atoms: C6_6  and  C8_8 
REMARK    7  A    between atoms: C8_8  and  C9_9 
REMARK    8  A    between atoms: C9_9  and  O1_10 
ROOT
ATOM      1  C5  <0> d           0.718  -0.497  -1.257  0.00  0.00    -0.039 C 
ATOM      2  H10 <0> d           0.733  -1.587  -1.263  0.00  0.00     0.040 H 
ATOM      3  H11 <0> d           0.191  -0.136  -2.140  0.00  0.00     0.040 H 
ENDROOT
BRANCH   1   4
ATOM      4  C2  <0> d           0.002  -0.004   0.002  0.00  0.00    -0.048 C 
BRANCH   4   5
ATOM      5  C1  <0> d          -0.019   1.526   0.010  0.00  0.00    -0.069 C 
ATOM      6  H1  <0> d           1.004   1.903   0.003  0.00  0.00     0.028 H 
ATOM      7  H2  <0> d          -0.546   1.887  -0.873  0.00  0.00     0.028 H 
ATOM      8  H3  <0> d          -0.529   1.877   0.907  0.00  0.00     0.028 H 
ENDBRANCH   4   5
BRANCH   4   9
ATOM      9  C3  <0> d           0.742  -0.511   1.242  0.00  0.00    -0.069 C 
ATOM     10  H4  <0> d           0.232  -0.159   2.138  0.00  0.00     0.028 H 
ATOM     11  H5  <0> d           0.757  -1.601   1.236  0.00  0.00     0.028 H 
ATOM     12  H6  <0> d           1.765  -0.134   1.234  0.00  0.00     0.028 H 
ENDBRANCH   4   9
BRANCH   4  13
ATOM     13  C4  <0> d          -1.433  -0.534   0.013  0.00  0.00    -0.069 C 
ATOM     14  H7  <0> d          -1.960  -0.173  -0.870  0.00  0.00     0.028 H 
ATOM     15  H8  <0> d          -1.419  -1.623   0.007  0.00  0.00     0.028 H 
ATOM     16  H9  <0> d          -1.944  -0.182   0.910  0.00  0.00     0.028 H 
ENDBRANCH   4  13
ENDBRANCH   1   4
BRANCH   1  17
ATOM     17  C6  <0> d           2.132   0.024  -1.268  0.00  0.00    -0.087 C 
ATOM     18  C7  <0> d           3.107  -0.716  -0.801  0.00  0.00    -0.119 C 
ATOM     19  H12 <0> d           4.120  -0.343  -0.809  0.00  0.00     0.067 H 
ATOM     20  H13 <0> d           2.897  -1.701  -0.409  0.00  0.00     0.067 H 
BRANCH  17  21
ATOM     21  C8  <0> d           2.424   1.398  -1.815  0.00  0.00    -0.026 C 
ATOM     22  H14 <0> d           1.596   2.066  -1.580  0.00  0.00     0.042 H 
ATOM     23  H15 <0> d           3.340   1.781  -1.364  0.00  0.00     0.042 H 
BRANCH  21  24
ATOM     24  C9  <0> d           2.599   1.315  -3.332  0.00  0.00     0.020 C 
ATOM     25  H16 <0> d           3.427   0.647  -3.567  0.00  0.00     0.074 H 
ATOM     26  H17 <0> d           1.683   0.932  -3.783  0.00  0.00     0.074 H 
BRANCH  24  27
ATOM     27  O1  <0> d           2.876   2.618  -3.851  0.00  0.00    -0.401 OA
ATOM     28  H18 <0> d           2.999   2.642  -4.810  0.00  0.00     0.209 HD
ENDBRANCH  24  27
ENDBRANCH  21  24
ENDBRANCH  17  21
ENDBRANCH   1  17
TORSDOF 8
