REMARK  4 active torsions:
REMARK  status: ('A' for Active; 'I' for Inactive)
REMARK    1  A    between atoms: C1_1  and  C2_2 
REMARK    2  A    between atoms: C2_2  and  C4_4 
REMARK    3  A    between atoms: C4_4  and  C5_5 
REMARK    4  A    between atoms: C5_5  and  O1_10 
ROOT
ATOM      1  C5  <0> d          -1.891  -0.955   1.291  0.00  0.00     0.061 C 
ATOM      2  C6  <0> d          -0.839  -1.543   2.253  0.00  0.00    -0.036 C 
ATOM      3  C7  <0> d          -1.650  -2.496   3.166  0.00  0.00    -0.062 C 
ATOM      4  C8  <0> d          -2.672  -3.122   2.184  0.00  0.00    -0.062 C 
ATOM      5  C9  <0> d          -3.057  -1.958   1.247  0.00  0.00    -0.036 C 
ATOM      6  H8  <0> d          -0.082  -2.097   1.698  0.00  0.00     0.037 H 
ATOM      7  H9  <0> d          -0.377  -0.751   2.843  0.00  0.00     0.037 H 
ATOM      8  H10 <0> d          -1.004  -3.264   3.592  0.00  0.00     0.033 H 
ATOM      9  H11 <0> d          -2.160  -1.939   3.951  0.00  0.00     0.033 H 
ATOM     10  H12 <0> d          -2.211  -3.931   1.618  0.00  0.00     0.033 H 
ATOM     11  H13 <0> d          -3.547  -3.482   2.724  0.00  0.00     0.033 H 
ATOM     12  H14 <0> d          -3.973  -1.483   1.598  0.00  0.00     0.037 H 
ATOM     13  H15 <0> d          -3.193  -2.328   0.230  0.00  0.00     0.037 H 
ENDROOT
BRANCH   1  14
ATOM     14  C4  <0> d          -1.289  -0.789  -0.106  0.00  0.00    -0.017 C 
ATOM     15  H6  <0> d          -2.062  -0.454  -0.797  0.00  0.00     0.044 H 
ATOM     16  H7  <0> d          -0.889  -1.744  -0.445  0.00  0.00     0.044 H 
BRANCH  14  17
ATOM     17  C2  <0> d          -0.182   0.232  -0.058  0.00  0.00    -0.090 C 
ATOM     18  C3  <0> d          -0.433   1.486  -0.341  0.00  0.00    -0.119 C 
ATOM     19  H4  <0> d          -1.435   1.788  -0.609  0.00  0.00     0.067 H 
ATOM     20  H5  <0> d           0.360   2.217  -0.307  0.00  0.00     0.067 H 
BRANCH  17  21
ATOM     21  C1  <0> d           1.216  -0.190   0.316  0.00  0.00    -0.055 C 
ATOM     22  H1  <0> d           1.893   0.657   0.207  0.00  0.00     0.033 H 
ATOM     23  H2  <0> d           1.227  -0.534   1.351  0.00  0.00     0.033 H 
ATOM     24  H3  <0> d           1.539  -1.000  -0.339  0.00  0.00     0.033 H 
ENDBRANCH  17  21
ENDBRANCH  14  17
ENDBRANCH   1  14
BRANCH   1  25
ATOM     25  O1  <0> d          -2.351   0.308   1.778  0.00  0.00    -0.390 OA
ATOM     26  H16 <0> d          -1.647   0.956   1.917  0.00  0.00     0.210 HD
ENDBRANCH   1  25
TORSDOF 4
