REMARK  1 active torsions:
REMARK  status: ('A' for Active; 'I' for Inactive)
REMARK    1  A    between atoms: C1_1  and  C2_2 
ROOT
ATOM      1  C2  <0> d           2.387   1.416  -0.013  0.00  0.00    -0.039 A 
ATOM      2  C3  <0> d           2.397   0.033  -0.021  0.00  0.00    -0.075 A 
ATOM      3  C4  <0> d           1.208  -0.674  -0.013  0.00  0.00    -0.081 A 
ATOM      4  C5  <0> d           0.002  -0.004   0.002  0.00  0.00    -0.061 A 
ATOM      5  C6  <0> d          -0.017   1.392   0.010  0.00  0.00     0.066 A 
ATOM      6  C7  <0> d           1.188   2.101   0.002  0.00  0.00     0.060 A 
ATOM      7 Cl1  <0> d           1.177   3.837   0.011  0.00  0.00    -0.082 Cl
ATOM      8  C8  <0> d          -1.265   2.095   0.019  0.00  0.00     0.101 C 
ATOM      9  N1  <0> d          -2.255   2.652   0.027  0.00  0.00    -0.191 NA
ATOM     10  H4  <0> d           3.337  -0.498  -0.033  0.00  0.00     0.084 H 
ATOM     11  H5  <0> d           1.223  -1.754  -0.019  0.00  0.00     0.083 H 
ATOM     12  H6  <0> d          -0.925  -0.558   0.008  0.00  0.00     0.085 H 
ENDROOT
BRANCH   1  13
ATOM     13  C1  <0> d           3.688   2.177  -0.021  0.00  0.00    -0.050 C 
ATOM     14  H1  <0> d           3.991   2.366  -1.051  0.00  0.00     0.033 H 
ATOM     15  H2  <0> d           3.557   3.126   0.499  0.00  0.00     0.033 H 
ATOM     16  H3  <0> d           4.456   1.590   0.482  0.00  0.00     0.033 H 
ENDBRANCH   1  13
TORSDOF 1
