REMARK  1 active torsions:
REMARK  status: ('A' for Active; 'I' for Inactive)
REMARK    1  A    between atoms: C3_6  and  C4_7 
ROOT
ATOM      1  C4  <0> d           1.659   3.264   0.004  0.00  0.00     0.056 C 
ATOM      2  C5  <0> d           1.029   3.971  -1.123  0.00  0.00     0.065 C 
ATOM      3  N3  <0> d           0.542   4.517  -1.992  0.00  0.00    -0.197 NA
ATOM      4  H4  <0> d           1.355   3.737   0.949  0.00  0.00     0.064 H 
ATOM      5  H5  <0> d           2.753   3.315  -0.097  0.00  0.00     0.064 H 
ENDROOT
BRANCH   1   6
ATOM      6  C3  <0> d           1.220   1.822   0.000  0.00  0.00     0.069 A 
ATOM      7  C1  <0> d           2.066   0.708  -0.014  0.00  0.00    -0.040 A 
ATOM      8  C2  <0> d           1.292  -0.402  -0.012  0.00  0.00    -0.002 A 
ATOM      9  H2  <0> d           3.145   0.730  -0.024  0.00  0.00     0.088 H 
ATOM     10  N1  <0> d           0.002  -0.004   0.002  0.00  0.00    -0.289 N 
ATOM     11  H3  <0> d           1.643  -1.423  -0.021  0.00  0.00     0.113 H 
ATOM     12  H1  <0> d          -0.804  -0.752   0.006  0.00  0.00     0.188 HD
ATOM     13  N2  <0> d          -0.017   1.397   0.010  0.00  0.00    -0.179 NA
ENDBRANCH   1   6
TORSDOF 1
