REMARK  0 active torsions:
REMARK  status: ('A' for Active; 'I' for Inactive)
ROOT
ATOM      1  C1  <0> d          -0.018   1.470   0.010  0.00  0.00     0.069 A 
ATOM      2  C2  <0> d           1.456   1.830  -0.002  0.00  0.00     0.261 A 
ATOM      3  O1  <0> d           1.941   2.943  -0.001  0.00  0.00    -0.269 OA
ATOM      4  N1  <0> d           2.108   0.662  -0.015  0.00  0.00    -0.208 NA
ATOM      5  C3  <0> d           1.301  -0.360  -0.012  0.00  0.00     0.064 A 
ATOM      6  N2  <0> d           0.002  -0.004   0.002  0.00  0.00    -0.376 N 
ATOM      7  H1  <0> d          -0.499   1.845   0.914  0.00  0.00     0.078 H 
ATOM      8  H2  <0> d          -0.516   1.854  -0.880  0.00  0.00     0.078 H 
ATOM      9  H3  <0> d           1.638  -1.386  -0.022  0.00  0.00     0.143 H 
ATOM     10  H4  <0> d          -0.765  -0.598   0.007  0.00  0.00     0.160 HD
ENDROOT
TORSDOF 0
