REMARK  2 active torsions:
REMARK  status: ('A' for Active; 'I' for Inactive)
REMARK    1  A    between atoms: C1_1  and  C2_2 
REMARK    2  A    between atoms: C3_5  and  N4_7 
REMARK       I    between atoms: N4_7  and  C4_8 
REMARK       I    between atoms: C4_8  and  N5_10 
ROOT
ATOM      1  C2  <0> d          -4.516   0.738   0.028  0.00  0.00     0.164 A 
ATOM      2  N1  <0> d          -3.877  -0.444   0.028  0.00  0.00    -0.118 NA
ATOM      3  N2  <0> d          -2.503  -0.153   0.013  0.00  0.00     0.046 NA
ATOM      4  C3  <0> d          -2.393   1.154   0.020  0.00  0.00     0.750 A 
ATOM      5  N3  <0> d          -3.617   1.689   0.028  0.00  0.00    -0.044 NA
ENDROOT
BRANCH   4   6
ATOM      6  N4  <0> d          -1.191   1.870   0.018  0.00  0.00    -0.136 N 
ATOM      7  C4  <0> d          -0.014   1.212   0.009  0.00  0.00     0.332 C 
ATOM      8  O1  <0> d           0.002  -0.004   0.002  0.00  0.00    -0.247 OA
ATOM      9  N5  <0> d           1.143   1.901   0.001  0.00  0.00    -0.351 N 
ATOM     10  H5  <0> d           2.103   1.364  -0.006  0.00  0.00     0.160 HD
ATOM     11  H6  <0> d           1.129   3.001   0.003  0.00  0.00     0.160 HD
ATOM     12  H4  <0> d          -1.206   2.970   0.024  0.00  0.00     0.189 HD
ENDBRANCH   4   6
BRANCH   1  13
ATOM     13  C1  <0> d          -6.010   0.935   0.027  0.00  0.00    -0.017 C 
ATOM     14  H1  <0> d          -6.509  -0.045   0.026  0.00  0.00     0.038 H 
ATOM     15  H2  <0> d          -6.305   1.497  -0.872  0.00  0.00     0.038 H 
ATOM     16  H3  <0> d          -6.306   1.496   0.925  0.00  0.00     0.038 H 
ENDBRANCH   1  13
TORSDOF 2
