REMARK  2 active torsions:
REMARK  status: ('A' for Active; 'I' for Inactive)
REMARK    1  A    between atoms: C6_6  and  C7_7 
REMARK    2  A    between atoms: C7_7  and  O1_8 
ROOT
ATOM      1  C1  <0> d          -0.013   1.076   0.008  0.00  0.00    -0.074 A 
ATOM      2  C2  <0> d           1.174   1.783   0.000  0.00  0.00    -0.076 A 
ATOM      3  C3  <0> d           1.159   3.168   0.008  0.00  0.00    -0.052 A 
ATOM      4  C4  <0> d          -0.047   3.844   0.023  0.00  0.00    -0.051 A 
ATOM      5  C5  <0> d          -1.235   3.132   0.031  0.00  0.00    -0.068 A 
ATOM      6  C6  <0> d          -1.218   1.751   0.017  0.00  0.00    -0.034 A 
ATOM      7  C8  <0> d           0.203   5.336   0.029  0.00  0.00    -0.040 C 
ATOM      8  C9  <0> d           1.669   5.502  -0.424  0.00  0.00    -0.058 C 
ATOM      9  C10 <0> d           2.302   4.161   0.003  0.00  0.00    -0.040 C 
ATOM     10  H1  <0> d           0.002  -0.004   0.002  0.00  0.00     0.084 H 
ATOM     11  H2  <0> d           2.116   1.255  -0.011  0.00  0.00     0.084 H 
ATOM     12  H3  <0> d          -2.177   3.660   0.043  0.00  0.00     0.085 H 
ATOM     13  H7  <0> d          -0.468   5.835  -0.670  0.00  0.00     0.040 H 
ATOM     14  H8  <0> d           0.070   5.738   1.034  0.00  0.00     0.040 H 
ATOM     15  H9  <0> d           1.728   5.632  -1.505  0.00  0.00     0.033 H 
ATOM     16  H10 <0> d           2.143   6.336   0.093  0.00  0.00     0.033 H 
ATOM     17  H11 <0> d           2.733   4.247   1.000  0.00  0.00     0.040 H 
ATOM     18  H12 <0> d           3.064   3.857  -0.715  0.00  0.00     0.040 H 
ENDROOT
BRANCH   6  19
ATOM     19  C7  <0> d          -2.514   0.982   0.019  0.00  0.00     0.040 C 
ATOM     20  H4  <0> d          -3.283   1.564  -0.488  0.00  0.00     0.081 H 
ATOM     21  H5  <0> d          -2.374   0.034  -0.501  0.00  0.00     0.081 H 
BRANCH  19  22
ATOM     22  O1  <0> d          -2.917   0.730   1.366  0.00  0.00    -0.396 OA
ATOM     23  H6  <0> d          -3.746   0.237   1.444  0.00  0.00     0.209 HD
ENDBRANCH  19  22
ENDBRANCH   6  19
TORSDOF 2
