REMARK  4 active torsions:
REMARK  status: ('A' for Active; 'I' for Inactive)
REMARK    1  A    between atoms: C1_1  and  C2_2 
REMARK    2  A    between atoms: C2_2  and  C3_3 
REMARK    3  A    between atoms: C2_2  and  N1_4 
REMARK       I    between atoms: N1_4  and  C4_5 
REMARK    4  A    between atoms: C4_5  and  C5_7 
ROOT
ATOM      1  C5  <0> d           3.732   1.454  -0.695  0.00  0.00     0.088 C 
ATOM      2  C6  <0> d           4.578   0.562  -1.504  0.00  0.00     0.068 C 
ATOM      3  N2  <0> d           5.231  -0.127  -2.128  0.00  0.00    -0.197 NA
ATOM      4  H9  <0> d           3.747   2.456  -1.124  0.00  0.00     0.069 H 
ATOM      5  H10 <0> d           4.114   1.491   0.325  0.00  0.00     0.069 H 
ENDROOT
BRANCH   1   6
ATOM      6  C4  <0> d           2.318   0.933  -0.685  0.00  0.00     0.231 C 
ATOM      7  N1  <0> d           1.362   1.593  -0.002  0.00  0.00    -0.356 N 
ATOM      8  H8  <0> d           1.583   2.404   0.482  0.00  0.00     0.162 HD
ATOM      9  O1  <0> d           2.042  -0.081  -1.290  0.00  0.00    -0.273 OA
BRANCH   7  10
ATOM     10  C2  <0> d          -0.013   1.086   0.008  0.00  0.00     0.005 C 
ATOM     11  H4  <0> d           0.002  -0.004   0.002  0.00  0.00     0.071 H 
BRANCH  10  12
ATOM     12  C1  <0> d          -0.753   1.593  -1.232  0.00  0.00    -0.058 C 
ATOM     13  H1  <0> d          -0.242   1.241  -2.128  0.00  0.00     0.030 H 
ATOM     14  H2  <0> d          -1.775   1.215  -1.224  0.00  0.00     0.030 H 
ATOM     15  H3  <0> d          -0.767   2.683  -1.226  0.00  0.00     0.030 H 
ENDBRANCH  10  12
BRANCH  10  16
ATOM     16  C3  <0> d          -0.729   1.579   1.267  0.00  0.00    -0.058 C 
ATOM     17  H5  <0> d          -0.744   2.669   1.273  0.00  0.00     0.030 H 
ATOM     18  H6  <0> d          -1.751   1.202   1.275  0.00  0.00     0.030 H 
ATOM     19  H7  <0> d          -0.202   1.218   2.150  0.00  0.00     0.030 H 
ENDBRANCH  10  16
ENDBRANCH   7  10
ENDBRANCH   1   6
TORSDOF 4
