REMARK  2 active torsions:
REMARK  status: ('A' for Active; 'I' for Inactive)
REMARK    1  A    between atoms: C1_1  and  N1_2 
REMARK    2  A    between atoms: C3_6  and  C4_7 
ROOT
ATOM      1  N1  <0> d           0.002  -0.004   0.002  0.00  0.00    -0.326 N 
ATOM      2  C2  <0> d           0.009  -0.820  -1.089  0.00  0.00     0.089 A 
ATOM      3  N2  <0> d           0.027  -2.052  -0.657  0.00  0.00    -0.143 NA
ATOM      4  N3  <0> d           0.033  -2.071   0.628  0.00  0.00    -0.128 NA
ATOM      5  C3  <0> d           0.024  -0.837   1.090  0.00  0.00     0.186 A 
ATOM      6  H4  <0> d           0.000  -0.506  -2.122  0.00  0.00     0.146 H 
ENDROOT
BRANCH   5   7
ATOM      7  C4  <0> d           0.032  -0.431   2.505  0.00  0.00     0.122 A 
ATOM      8  O1  <0> d           0.304   0.804   2.972  0.00  0.00    -0.319 OA
ATOM      9  C7  <0> d           0.215   0.803   4.312  0.00  0.00     0.019 A 
ATOM     10  C6  <0> d          -0.107  -0.440   4.724  0.00  0.00    -0.059 A 
ATOM     11  H7  <0> d           0.379   1.656   4.954  0.00  0.00     0.123 H 
ATOM     12  C5  <0> d          -0.227  -1.239   3.571  0.00  0.00    -0.045 A 
ATOM     13  H6  <0> d          -0.247  -0.761   5.745  0.00  0.00     0.086 H 
ATOM     14  H5  <0> d          -0.476  -2.289   3.538  0.00  0.00     0.088 H 
ENDBRANCH   5   7
BRANCH   1  15
ATOM     15  C1  <0> d          -0.018   1.461   0.010  0.00  0.00    -0.011 C 
ATOM     16  H1  <0> d           1.005   1.838   0.002  0.00  0.00     0.057 H 
ATOM     17  H2  <0> d          -0.545   1.822  -0.873  0.00  0.00     0.057 H 
ATOM     18  H3  <0> d          -0.528   1.812   0.907  0.00  0.00     0.057 H 
ENDBRANCH   1  15
TORSDOF 2
