REMARK  2 active torsions:
REMARK  status: ('A' for Active; 'I' for Inactive)
REMARK    1  A    between atoms: C1_1  and  N1_2 
REMARK    2  A    between atoms: C4_5  and  N3_11 
ROOT
ATOM      1  N1  <0> d           4.487   0.826  -0.036  0.00  0.00    -0.284 N 
ATOM      2  C2  <0> d           3.770  -0.306  -0.035  0.00  0.00     0.012 A 
ATOM      3  C3  <0> d           2.434   0.037  -0.021  0.00  0.00     0.038 A 
ATOM      4  C4  <0> d           1.176  -0.703  -0.013  0.00  0.00     0.039 A 
ATOM      5  C5  <0> d           0.002  -0.004   0.002  0.00  0.00    -0.057 A 
ATOM      6  C6  <0> d          -0.017   1.389   0.010  0.00  0.00    -0.079 A 
ATOM      7  C7  <0> d           1.115   2.135   0.003  0.00  0.00    -0.052 A 
ATOM      8  C8  <0> d           2.380   1.508  -0.013  0.00  0.00     0.091 A 
ATOM      9  N2  <0> d           3.630   1.933  -0.022  0.00  0.00    -0.173 NA
ATOM     10  H4  <0> d           4.168  -1.310  -0.044  0.00  0.00     0.115 H 
ATOM     11  H5  <0> d          -0.933  -0.544   0.008  0.00  0.00     0.086 H 
ATOM     12  H6  <0> d          -0.971   1.896   0.017  0.00  0.00     0.083 H 
ATOM     13  H7  <0> d           1.050   3.213   0.009  0.00  0.00     0.087 H 
ENDROOT
BRANCH   1  14
ATOM     14  C1  <0> d           5.950   0.896  -0.049  0.00  0.00     0.002 C 
ATOM     15  H1  <0> d           6.304   0.918  -1.079  0.00  0.00     0.059 H 
ATOM     16  H2  <0> d           6.276   1.799   0.467  0.00  0.00     0.059 H 
ATOM     17  H3  <0> d           6.360   0.021   0.457  0.00  0.00     0.059 H 
ENDBRANCH   1  14
BRANCH   4  18
ATOM     18  N3  <0> d           1.172  -2.095  -0.020  0.00  0.00    -0.398 N 
ATOM     19  H8  <0> d           0.331  -2.578  -0.014  0.00  0.00     0.156 HD
ATOM     20  H9  <0> d           2.011  -2.582  -0.031  0.00  0.00     0.156 HD
ENDBRANCH   4  18
TORSDOF 2
