REMARK  1 active torsions:
REMARK  status: ('A' for Active; 'I' for Inactive)
REMARK    1  A    between atoms: C1_1  and  C2_2 
ROOT
ATOM      1  C2  <0> d           3.599   0.990  -0.028  0.00  0.00    -0.053 A 
ATOM      2  C3  <0> d           4.101   2.281  -0.026  0.00  0.00    -0.077 A 
ATOM      3  C4  <0> d           3.239   3.363  -0.012  0.00  0.00    -0.081 A 
ATOM      4  C5  <0> d           1.873   3.165   0.001  0.00  0.00    -0.067 A 
ATOM      5  C6  <0> d           1.360   1.867  -0.001  0.00  0.00     0.048 A 
ATOM      6  C7  <0> d           2.240   0.781  -0.015  0.00  0.00    -0.012 A 
ATOM      7  C8  <0> d           1.383  -0.459  -0.014  0.00  0.00     0.054 A 
ATOM      8  O1  <0> d           0.002  -0.004   0.002  0.00  0.00    -0.313 OA
ATOM      9  C9  <0> d          -0.016   1.339   0.009  0.00  0.00     0.294 A 
ATOM     10  O2  <0> d          -1.022   2.021   0.018  0.00  0.00    -0.259 OA
ATOM     11  H4  <0> d           5.169   2.444  -0.036  0.00  0.00     0.084 H 
ATOM     12  H5  <0> d           3.636   4.367  -0.010  0.00  0.00     0.083 H 
ATOM     13  H6  <0> d           1.203   4.013   0.013  0.00  0.00     0.085 H 
ATOM     14  H7  <0> d           1.592  -1.051  -0.917  0.00  0.00     0.082 H 
ATOM     15  H8  <0> d           1.609  -1.060   0.879  0.00  0.00     0.082 H 
ENDROOT
BRANCH   1  16
ATOM     16  C1  <0> d           4.543  -0.185  -0.043  0.00  0.00    -0.051 C 
ATOM     17  H1  <0> d           5.581   0.178  -0.051  0.00  0.00     0.033 H 
ATOM     18  H2  <0> d           4.359  -0.792  -0.942  0.00  0.00     0.033 H 
ATOM     19  H3  <0> d           4.377  -0.800   0.855  0.00  0.00     0.033 H 
ENDBRANCH   1  16
TORSDOF 1
