REMARK  2 active torsions:
REMARK  status: ('A' for Active; 'I' for Inactive)
REMARK    1  A    between atoms: C4_4  and  O2_9 
REMARK    2  A    between atoms: C6_6  and  C7_7 
ROOT
ATOM      1  C1  <0> d          -1.324   3.328   0.032  0.00  0.00    -0.063 A 
ATOM      2  C2  <0> d          -2.529   3.998   0.036  0.00  0.00    -0.042 A 
ATOM      3  C3  <0> d          -3.720   3.291   0.038  0.00  0.00     0.149 A 
ATOM      4  C4  <0> d          -3.707   1.899   0.030  0.00  0.00     0.105 A 
ATOM      5  C5  <0> d          -2.504   1.218   0.021  0.00  0.00    -0.031 A 
ATOM      6  C6  <0> d          -1.303   1.931   0.019  0.00  0.00     0.043 A 
ATOM      7  F1  <0> d          -4.897   3.954   0.048  0.00  0.00    -0.203 F 
ATOM      8  H1  <0> d          -0.397   3.882   0.035  0.00  0.00     0.085 H 
ATOM      9  H2  <0> d          -2.544   5.078   0.043  0.00  0.00     0.088 H 
ATOM     10  H3  <0> d          -2.493   0.139   0.015  0.00  0.00     0.089 H 
ENDROOT
BRANCH   6  11
ATOM     11  C7  <0> d          -0.014   1.211   0.009  0.00  0.00     0.209 C 
ATOM     12  O1  <0> d           0.002  -0.004   0.002  0.00  0.00    -0.644 OA
ATOM     13  O3  <0> d           1.143   1.900   0.001  0.00  0.00    -0.644 OA
ENDBRANCH   6  11
BRANCH   4  14
ATOM     14  O2  <0> d          -4.879   1.209   0.032  0.00  0.00    -0.358 OA
ATOM     15  H4  <0> d          -5.213   1.004   0.916  0.00  0.00     0.217 HD
ENDBRANCH   4  14
TORSDOF 2
