REMARK  4 active torsions:
REMARK  status: ('A' for Active; 'I' for Inactive)
REMARK    1  A    between atoms: C1_1  and  C2_2 
REMARK    2  A    between atoms: C5_5  and  C7_8 
REMARK    3  A    between atoms: C7_8  and  C8_9 
REMARK    4  A    between atoms: C7_8  and  C9_10 
ROOT
ATOM      1  C2  <0> d           2.075  -1.407   3.408  0.00  0.00    -0.044 A 
ATOM      2  C3  <0> d           0.727  -1.109   3.532  0.00  0.00    -0.074 A 
ATOM      3  C4  <0> d           0.048  -0.643   2.417  0.00  0.00    -0.058 A 
ATOM      4  C5  <0> d           0.731  -0.503   1.223  0.00  0.00     0.037 A 
ATOM      5  N1  <0> d           2.014  -0.797   1.141  0.00  0.00    -0.265 NA
ATOM      6  C6  <0> d           2.692  -1.237   2.183  0.00  0.00     0.008 A 
ATOM      7  H4  <0> d           0.218  -1.231   4.477  0.00  0.00     0.084 H 
ATOM      8  H5  <0> d          -1.001  -0.396   2.478  0.00  0.00     0.086 H 
ATOM      9  H6  <0> d           3.742  -1.467   2.078  0.00  0.00     0.115 H 
ENDROOT
BRANCH   4  10
ATOM     10  C7  <0> d           0.002  -0.004   0.002  0.00  0.00    -0.019 C 
ATOM     11  H7  <0> d           0.512  -0.356  -0.895  0.00  0.00     0.048 H 
BRANCH  10  12
ATOM     12  C8  <0> d          -0.019   1.526   0.010  0.00  0.00    -0.068 C 
ATOM     13  H8  <0> d           1.004   1.903   0.003  0.00  0.00     0.028 H 
ATOM     14  H9  <0> d          -0.546   1.887  -0.873  0.00  0.00     0.028 H 
ATOM     15  H10 <0> d          -0.529   1.877   0.907  0.00  0.00     0.028 H 
ENDBRANCH  10  12
BRANCH  10  16
ATOM     16  C9  <0> d          -1.433  -0.534   0.013  0.00  0.00    -0.068 C 
ATOM     17  H11 <0> d          -1.960  -0.173  -0.870  0.00  0.00     0.028 H 
ATOM     18  H12 <0> d          -1.419  -1.623   0.007  0.00  0.00     0.028 H 
ATOM     19  H13 <0> d          -1.944  -0.182   0.910  0.00  0.00     0.028 H 
ENDBRANCH  10  16
ENDBRANCH   4  10
BRANCH   1  20
ATOM     20  C1  <0> d           2.857  -1.911   4.593  0.00  0.00    -0.050 C 
ATOM     21  H1  <0> d           3.284  -1.066   5.133  0.00  0.00     0.033 H 
ATOM     22  H2  <0> d           2.195  -2.468   5.255  0.00  0.00     0.033 H 
ATOM     23  H3  <0> d           3.659  -2.564   4.248  0.00  0.00     0.033 H 
ENDBRANCH   1  20
TORSDOF 4
