REMARK  5 active torsions:
REMARK  status: ('A' for Active; 'I' for Inactive)
REMARK    1  A    between atoms: C1_1  and  C2_2 
REMARK    2  A    between atoms: C2_2  and  C3_3 
REMARK    3  A    between atoms: C2_2  and  C4_4 
REMARK    4  A    between atoms: C2_2  and  C5_5 
REMARK    5  A    between atoms: C6_6  and  C7_7 
REMARK       I    between atoms: C7_7  and  N1_9 
ROOT
ATOM      1  C2  <0> d           3.489   3.299  -0.013  0.00  0.00     0.013 C 
ENDROOT
BRANCH   1   2
ATOM      2  C1  <0> d           3.189   4.799  -0.003  0.00  0.00    -0.059 C 
ATOM      3  H1  <0> d           2.623   5.050   0.894  0.00  0.00     0.029 H 
ATOM      4  H2  <0> d           4.126   5.357  -0.009  0.00  0.00     0.029 H 
ATOM      5  H3  <0> d           2.606   5.059  -0.886  0.00  0.00     0.029 H 
ENDBRANCH   1   2
BRANCH   1   6
ATOM      6  C3  <0> d           4.308   2.933   1.226  0.00  0.00    -0.059 C 
ATOM      7  H4  <0> d           4.522   1.865   1.218  0.00  0.00     0.029 H 
ATOM      8  H5  <0> d           5.245   3.491   1.220  0.00  0.00     0.029 H 
ATOM      9  H6  <0> d           3.742   3.184   2.123  0.00  0.00     0.029 H 
ENDBRANCH   1   6
BRANCH   1  10
ATOM     10  C4  <0> d           4.284   2.947  -1.272  0.00  0.00    -0.059 C 
ATOM     11  H7  <0> d           3.701   3.207  -2.155  0.00  0.00     0.029 H 
ATOM     12  H8  <0> d           5.221   3.505  -1.278  0.00  0.00     0.029 H 
ATOM     13  H9  <0> d           4.498   1.878  -1.280  0.00  0.00     0.029 H 
ENDBRANCH   1  10
BRANCH   1  14
ATOM     14  C5  <0> d           2.224   2.546  -0.005  0.00  0.00    -0.087 C 
ATOM     15  C6  <0> d           1.216   1.945   0.001  0.00  0.00    -0.005 C 
BRANCH  15  16
ATOM     16  C7  <0> d          -0.014   1.212   0.009  0.00  0.00     0.294 C 
ATOM     17  O1  <0> d           0.002  -0.004   0.002  0.00  0.00    -0.258 OA
ATOM     18  N1  <0> d          -1.191   1.870   0.018  0.00  0.00    -0.359 N 
ATOM     19  H10 <0> d          -2.024   1.373   0.019  0.00  0.00     0.160 HD
ATOM     20  H11 <0> d          -1.204   2.840   0.023  0.00  0.00     0.160 HD
ENDBRANCH  15  16
ENDBRANCH   1  14
TORSDOF 5
