REMARK  9 active torsions:
REMARK  status: ('A' for Active; 'I' for Inactive)
REMARK    1  A    between atoms: C1_1  and  C2_2 
REMARK    2  A    between atoms: C1_1  and  C6_11 
REMARK    3  A    between atoms: C2_2  and  C3_3 
REMARK    4  A    between atoms: C3_3  and  C4_5 
REMARK    5  A    between atoms: C3_3  and  O3_10 
REMARK    6  A    between atoms: C4_5  and  C5_7 
REMARK    7  A    between atoms: C4_5  and  O2_9 
REMARK    8  A    between atoms: C5_7  and  O1_8 
REMARK    9  A    between atoms: C6_11  and  O4_12 
ROOT
ATOM      1  C3  <0> d          -0.729   1.579   1.267  0.00  0.00     0.062 C 
ATOM      2  H1  <0> d          -0.822   2.665   1.230  0.00  0.00     0.086 H 
ENDROOT
BRANCH   1   3
ATOM      3  C2  <0> d          -0.013   1.086   0.008  0.00  0.00    -0.037 C 
ATOM      4  H5  <0> d           0.002  -0.004   0.002  0.00  0.00     0.036 H 
ATOM      5  H6  <0> d           1.010   1.463   0.000  0.00  0.00     0.036 H 
BRANCH   3   6
ATOM      6  C1  <0> d          -0.753   1.593  -1.232  0.00  0.00    -0.043 C 
ATOM      7  H3  <0> d          -1.775   1.215  -1.224  0.00  0.00     0.036 H 
ATOM      8  H4  <0> d          -0.767   2.683  -1.226  0.00  0.00     0.036 H 
BRANCH   6   9
ATOM      9  C6  <0> d          -0.037   1.099  -2.490  0.00  0.00     0.017 C 
ATOM     10  H12 <0> d           0.986   1.476  -2.498  0.00  0.00     0.073 H 
ATOM     11  H13 <0> d          -0.022   0.009  -2.496  0.00  0.00     0.073 H 
BRANCH   9  12
ATOM     12  O4  <0> d          -0.728   1.573  -3.648  0.00  0.00    -0.401 OA
ATOM     13  H14 <0> d          -0.328   1.297  -4.484  0.00  0.00     0.209 HD
ENDBRANCH   9  12
ENDBRANCH   6   9
ENDBRANCH   3   6
ENDBRANCH   1   3
BRANCH   1  14
ATOM     14  C4  <0> d           0.079   1.179   2.503  0.00  0.00     0.080 C 
ATOM     15  H2  <0> d           1.037   1.697   2.495  0.00  0.00     0.090 H 
BRANCH  14  16
ATOM     16  C5  <0> d          -0.697   1.561   3.765  0.00  0.00     0.043 C 
ATOM     17  H7  <0> d          -0.944   2.623   3.732  0.00  0.00     0.078 H 
ATOM     18  H8  <0> d          -1.615   0.976   3.818  0.00  0.00     0.078 H 
BRANCH  16  19
ATOM     19  O1  <0> d           0.105   1.294   4.917  0.00  0.00    -0.398 OA
ATOM     20  H9  <0> d          -0.325   1.513   5.755  0.00  0.00     0.209 HD
ENDBRANCH  16  19
ENDBRANCH  14  16
BRANCH  14  21
ATOM     21  O2  <0> d           0.301  -0.233   2.490  0.00  0.00    -0.391 OA
ATOM     22  H10 <0> d          -0.511  -0.759   2.497  0.00  0.00     0.210 HD
ENDBRANCH  14  21
ENDBRANCH   1  14
BRANCH   1  23
ATOM     23  O3  <0> d          -2.030   0.991   1.336  0.00  0.00    -0.393 OA
ATOM     24  H11 <0> d          -2.023   0.025   1.372  0.00  0.00     0.210 HD
ENDBRANCH   1  23
TORSDOF 9
