REMARK  5 active torsions:
REMARK  status: ('A' for Active; 'I' for Inactive)
REMARK    1  A    between atoms: C1_1  and  O1_2 
REMARK    2  A    between atoms: O1_2  and  C2_3 
REMARK    3  A    between atoms: C6_7  and  O3_10 
REMARK    4  A    between atoms: C7_8  and  O2_9 
REMARK    5  A    between atoms: O3_10  and  C8_11 
ROOT
ATOM      1  C2  <0> d           1.866   1.824   1.197  0.00  0.00     0.104 A 
ATOM      2  C3  <0> d           3.127   2.401   1.183  0.00  0.00    -0.048 A 
ATOM      3  C4  <0> d           3.741   2.696  -0.019  0.00  0.00    -0.077 A 
ATOM      4  C5  <0> d           3.104   2.413  -1.213  0.00  0.00    -0.048 A 
ATOM      5  C6  <0> d           1.846   1.832  -1.208  0.00  0.00     0.104 A 
ATOM      6  C7  <0> d           1.225   1.533  -0.001  0.00  0.00     0.132 A 
ATOM      7  H4  <0> d           3.628   2.623   2.114  0.00  0.00     0.087 H 
ATOM      8  H5  <0> d           4.722   3.150  -0.026  0.00  0.00     0.083 H 
ATOM      9  H6  <0> d           3.588   2.645  -2.150  0.00  0.00     0.087 H 
ENDROOT
BRANCH   1  10
ATOM     10  O1  <0> d           1.260   1.539   2.380  0.00  0.00    -0.353 OA
BRANCH  10  11
ATOM     11  C1  <0> d           1.979   1.865   3.572  0.00  0.00     0.010 C 
ATOM     12  H1  <0> d           2.176   2.937   3.595  0.00  0.00     0.066 H 
ATOM     13  H2  <0> d           1.384   1.586   4.442  0.00  0.00     0.066 H 
ATOM     14  H3  <0> d           2.923   1.321   3.587  0.00  0.00     0.066 H 
ENDBRANCH  10  11
ENDBRANCH   1  10
BRANCH   6  15
ATOM     15  O2  <0> d          -0.011   0.963   0.007  0.00  0.00    -0.356 OA
ATOM     16  H7  <0> d           0.002  -0.004   0.002  0.00  0.00     0.218 HD
ENDBRANCH   6  15
BRANCH   5  17
ATOM     17  O3  <0> d           1.220   1.553  -2.383  0.00  0.00    -0.353 OA
BRANCH  17  18
ATOM     18  C8  <0> d           1.918   1.887  -3.585  0.00  0.00     0.010 C 
ATOM     19  H8  <0> d           2.115   2.959  -3.605  0.00  0.00     0.066 H 
ATOM     20  H9  <0> d           2.862   1.343  -3.620  0.00  0.00     0.066 H 
ATOM     21  H10 <0> d           1.309   1.614  -4.447  0.00  0.00     0.066 H 
ENDBRANCH  17  18
ENDBRANCH   5  17
TORSDOF 5
