REMARK  5 active torsions:
REMARK  status: ('A' for Active; 'I' for Inactive)
REMARK    1  A    between atoms: C1_1  and  O1_2 
REMARK    2  A    between atoms: O1_2  and  C2_3 
REMARK    3  A    between atoms: C2_3  and  C3_4 
REMARK    4  A    between atoms: C3_4  and  N1_5 
REMARK       I    between atoms: N1_5  and  C4_6 
REMARK    5  A    between atoms: C4_6  and  C5_8 
ROOT
ATOM      1  N1  <0> d           1.143   1.898   0.001  0.00  0.00    -0.359 N 
ATOM      2  C4  <0> d          -0.014   1.209   0.009  0.00  0.00     0.221 C 
ATOM      3  O2  <0> d           0.002  -0.004   0.002  0.00  0.00    -0.273 OA
ATOM      4  H8  <0> d           1.130   2.868   0.007  0.00  0.00     0.162 HD
ENDROOT
BRANCH   1   5
ATOM      5  C3  <0> d           2.422   1.183  -0.015  0.00  0.00     0.015 C 
ATOM      6  H6  <0> d           2.497   0.553   0.871  0.00  0.00     0.067 H 
ATOM      7  H7  <0> d           2.480   0.562  -0.909  0.00  0.00     0.067 H 
BRANCH   5   8
ATOM      8  C2  <0> d           3.571   2.193  -0.020  0.00  0.00     0.034 C 
ATOM      9  H4  <0> d           4.519   1.665  -0.122  0.00  0.00     0.076 H 
ATOM     10  H5  <0> d           3.447   2.880  -0.857  0.00  0.00     0.076 H 
BRANCH   8  11
ATOM     11  O1  <0> d           3.565   2.929   1.205  0.00  0.00    -0.394 OA
BRANCH  11  12
ATOM     12  C1  <0> d           4.604   3.904   1.302  0.00  0.00     0.004 C 
ATOM     13  H1  <0> d           4.531   4.419   2.260  0.00  0.00     0.066 H 
ATOM     14  H2  <0> d           5.574   3.411   1.228  0.00  0.00     0.066 H 
ATOM     15  H3  <0> d           4.502   4.627   0.493  0.00  0.00     0.066 H 
ENDBRANCH  11  12
ENDBRANCH   8  11
ENDBRANCH   5   8
ENDBRANCH   1   5
BRANCH   2  16
ATOM     16  C5  <0> d          -1.330   1.944   0.019  0.00  0.00     0.024 A 
ATOM     17  C7  <0> d          -2.609   1.105   0.022  0.00  0.00    -0.053 A 
ATOM     18  C6  <0> d          -2.180   1.853   1.287  0.00  0.00    -0.053 A 
ATOM     19  H12 <0> d          -3.467   1.493  -0.525  0.00  0.00     0.034 H 
ATOM     20  H13 <0> d          -2.499   0.020   0.017  0.00  0.00     0.034 H 
ATOM     21  H10 <0> d          -1.789   1.261   2.114  0.00  0.00     0.034 H 
ATOM     22  H11 <0> d          -2.757   2.733   1.571  0.00  0.00     0.034 H 
ATOM     23  H9  <0> d          -1.346   2.885  -0.532  0.00  0.00     0.054 H 
ENDBRANCH   2  16
TORSDOF 5
