REMARK  1 active torsions:
REMARK  status: ('A' for Active; 'I' for Inactive)
REMARK    1  A    between atoms: C1_1  and  C2_2 
REMARK       I    between atoms: C2_2  and  N1_4 
ROOT
ATOM      1  C2  <0> d          -0.037   2.199   2.193  0.00  0.00     0.215 C 
ATOM      2  O1  <0> d           1.171   2.297   2.136  0.00  0.00    -0.274 OA
ATOM      3  N1  <0> d          -0.709   1.571   1.208  0.00  0.00    -0.349 N 
ATOM      4  C3  <0> d          -0.012   1.089   0.007  0.00  0.00     0.022 C 
ATOM      5  C4  <0> d          -0.751   1.608  -1.231  0.00  0.00     0.126 C 
ATOM      6  N2  <0> d          -2.168   1.230  -1.147  0.00  0.00     0.086 N 
ATOM      7  C5  <0> d          -2.819   1.859   0.011  0.00  0.00     0.126 C 
ATOM      8  C6  <0> d          -2.165   1.350   1.299  0.00  0.00     0.022 C 
ATOM      9  H4  <0> d           1.023   1.462   0.008  0.00  0.00     0.067 H 
ATOM     10  H5  <0> d          -0.005  -0.011   0.004  0.00  0.00     0.067 H 
ATOM     11  H6  <0> d          -0.664   2.704  -1.277  0.00  0.00     0.082 H 
ATOM     12  H7  <0> d          -0.306   1.167  -2.136  0.00  0.00     0.082 H 
ATOM     13  H8  <0> d          -2.689   1.553  -2.060  0.00  0.00     0.316 HD
ATOM     14  H9  <0> d          -2.704   2.951  -0.053  0.00  0.00     0.082 H 
ATOM     15  H10 <0> d          -3.888   1.602   0.014  0.00  0.00     0.082 H 
ATOM     16  H11 <0> d          -2.365   0.275   1.422  0.00  0.00     0.067 H 
ATOM     17  H12 <0> d          -2.566   1.898   2.164  0.00  0.00     0.067 H 
ENDROOT
BRANCH   1  18
ATOM     18  C1  <0> d          -0.786   2.780   3.365  0.00  0.00    -0.003 C 
ATOM     19  H1  <0> d          -1.863   2.594   3.241  0.00  0.00     0.040 H 
ATOM     20  H2  <0> d          -0.604   3.863   3.416  0.00  0.00     0.040 H 
ATOM     21  H3  <0> d          -0.437   2.306   4.294  0.00  0.00     0.040 H 
ENDBRANCH   1  18
TORSDOF 1
