REMARK  7 active torsions:
REMARK  status: ('A' for Active; 'I' for Inactive)
REMARK    1  A    between atoms: C1_1  and  C2_2 
REMARK    2  A    between atoms: C2_2  and  C3_3 
REMARK    3  A    between atoms: C3_3  and  C4_4 
REMARK    4  A    between atoms: C4_4  and  C5_6 
REMARK    5  A    between atoms: C4_4  and  O2_10 
REMARK    6  A    between atoms: C5_6  and  C6_7 
REMARK    7  A    between atoms: C6_7  and  C7_8 
ROOT
ATOM      1  C4  <0> d          -0.013   1.086   0.008  0.00  0.00     0.036 C 
ATOM      2  H1  <0> d           0.002  -0.004   0.002  0.00  0.00     0.082 H 
ENDROOT
BRANCH   1   3
ATOM      3  C3  <0> d          -0.729   1.579   1.267  0.00  0.00    -0.041 C 
ATOM      4  H7  <0> d          -0.154   1.294   2.148  0.00  0.00     0.036 H 
ATOM      5  H8  <0> d          -0.822   2.665   1.230  0.00  0.00     0.036 H 
BRANCH   3   6
ATOM      6  C2  <0> d          -2.121   0.950   1.341  0.00  0.00    -0.066 C 
ATOM      7  H5  <0> d          -2.697   1.235   0.460  0.00  0.00     0.032 H 
ATOM      8  H6  <0> d          -2.028  -0.136   1.378  0.00  0.00     0.032 H 
BRANCH   6   9
ATOM      9  C1  <0> d          -2.837   1.443   2.600  0.00  0.00    -0.076 C 
ATOM     10  H2  <0> d          -3.830   0.995   2.653  0.00  0.00     0.027 H 
ATOM     11  H3  <0> d          -2.262   1.158   3.481  0.00  0.00     0.027 H 
ATOM     12  H4  <0> d          -2.931   2.529   2.563  0.00  0.00     0.027 H 
ENDBRANCH   6   9
ENDBRANCH   3   6
ENDBRANCH   1   3
BRANCH   1  13
ATOM     13  C5  <0> d           1.423   1.615  -0.003  0.00  0.00    -0.032 C 
ATOM     14  H9  <0> d           1.408   2.702  -0.086  0.00  0.00     0.037 H 
ATOM     15  H10 <0> d           1.923   1.329   0.922  0.00  0.00     0.037 H 
BRANCH  13  16
ATOM     16  C6  <0> d           2.176   1.022  -1.195  0.00  0.00     0.018 C 
ATOM     17  H11 <0> d           2.191  -0.065  -1.111  0.00  0.00     0.049 H 
ATOM     18  H12 <0> d           1.676   1.309  -2.120  0.00  0.00     0.049 H 
BRANCH  16  19
ATOM     19  C7  <0> d           3.590   1.544  -1.206  0.00  0.00     0.172 C 
ATOM     20  O1  <0> d           3.957   2.311  -0.348  0.00  0.00    -0.648 OA
ATOM     21  O3  <0> d           4.441   1.156  -2.168  0.00  0.00    -0.648 OA
ENDBRANCH  16  19
ENDBRANCH  13  16
ENDBRANCH   1  13
BRANCH   1  22
ATOM     22  O2  <0> d          -0.704   1.559  -1.150  0.00  0.00    -0.396 OA
ATOM     23  H13 <0> d          -0.756   2.523  -1.210  0.00  0.00     0.210 HD
ENDBRANCH   1  22
TORSDOF 7
