REMARK  1 active torsions:
REMARK  status: ('A' for Active; 'I' for Inactive)
REMARK    1  A    between atoms: C3_5  and  C4_6 
ROOT
ATOM      1  C1  <0> d          -0.013   1.086   0.008  0.00  0.00     0.052 A 
ATOM      2  H1  <0> d           0.002  -0.004   0.002  0.00  0.00     0.057 H 
ATOM      3  C2  <0> d           0.410   1.915   1.240  0.00  0.00     0.052 A 
ATOM      4  H2  <0> d           0.745   1.455   2.169  0.00  0.00     0.057 H 
ATOM      5  C3  <0> d           1.304   1.864  -0.000  0.00  0.00     0.056 A 
ATOM      6  C5  <0> d          -0.670   2.973   1.324  0.00  0.00     0.252 A 
ATOM      7  O3  <0> d          -0.731   3.856   2.166  0.00  0.00    -0.271 OA
ATOM      8  N1  <0> d          -1.532   2.792   0.348  0.00  0.00    -0.178 NA
ATOM      9  C6  <0> d          -1.266   1.779  -0.483  0.00  0.00     0.252 A 
ATOM     10  O4  <0> d          -1.920   1.449  -1.460  0.00  0.00    -0.271 OA
ATOM     11  H3  <0> d           1.355   2.760  -0.620  0.00  0.00     0.059 H 
ENDROOT
BRANCH   5  12
ATOM     12  C4  <0> d           2.581   1.070   0.096  0.00  0.00     0.178 C 
ATOM     13  O1  <0> d           3.549   1.388  -0.573  0.00  0.00    -0.648 OA
ATOM     14  O2  <0> d           2.646   0.109   0.844  0.00  0.00    -0.648 OA
ENDBRANCH   5  12
TORSDOF 1
