REMARK  4 active torsions:
REMARK  status: ('A' for Active; 'I' for Inactive)
REMARK    1  A    between atoms: C1_1  and  C2_2 
REMARK    2  A    between atoms: C2_2  and  S1_3 
REMARK    3  A    between atoms: S1_3  and  C3_4 
REMARK    4  A    between atoms: C8_9  and  C9_10 
ROOT
ATOM      1  C3  <0> d           0.002  -0.004   0.002  0.00  0.00     0.006 A 
ATOM      2  C4  <0> d           1.214  -0.684  -0.019  0.00  0.00    -0.066 A 
ATOM      3  C5  <0> d           1.229  -2.065  -0.021  0.00  0.00    -0.082 A 
ATOM      4  C6  <0> d           0.040  -2.771  -0.013  0.00  0.00    -0.082 A 
ATOM      5  C7  <0> d          -1.168  -2.098   0.002  0.00  0.00    -0.076 A 
ATOM      6  C8  <0> d          -1.191  -0.717   0.010  0.00  0.00    -0.045 A 
ATOM      7  H6  <0> d           2.143  -0.134  -0.029  0.00  0.00     0.085 H 
ATOM      8  H7  <0> d           2.170  -2.594  -0.034  0.00  0.00     0.083 H 
ATOM      9  H8  <0> d           0.054  -3.851  -0.019  0.00  0.00     0.083 H 
ATOM     10  H9  <0> d          -2.095  -2.652   0.007  0.00  0.00     0.084 H 
ENDROOT
BRANCH   1  11
ATOM     11  S1  <0> d          -0.022   1.758   0.012  0.00  0.00    -0.130 SA
BRANCH  11  12
ATOM     12  C2  <0> d           1.732   2.220  -0.003  0.00  0.00    -0.022 C 
ATOM     13  H4  <0> d           2.223   1.812   0.881  0.00  0.00     0.048 H 
ATOM     14  H5  <0> d           2.206   1.821  -0.899  0.00  0.00     0.048 H 
BRANCH  12  15
ATOM     15  C1  <0> d           1.857   3.745   0.004  0.00  0.00    -0.068 C 
ATOM     16  H1  <0> d           1.367   4.154  -0.879  0.00  0.00     0.028 H 
ATOM     17  H2  <0> d           1.383   4.145   0.901  0.00  0.00     0.028 H 
ATOM     18  H3  <0> d           2.911   4.023  -0.004  0.00  0.00     0.028 H 
ENDBRANCH  12  15
ENDBRANCH  11  12
ENDBRANCH   1  11
BRANCH   6  19
ATOM     19  C9  <0> d          -2.507   0.016   0.025  0.00  0.00    -0.050 C 
ATOM     20  H10 <0> d          -2.834   0.198  -0.998  0.00  0.00     0.033 H 
ATOM     21  H11 <0> d          -3.253  -0.587   0.543  0.00  0.00     0.033 H 
ATOM     22  H12 <0> d          -2.387   0.968   0.543  0.00  0.00     0.033 H 
ENDBRANCH   6  19
TORSDOF 4
