REMARK  2 active torsions:
REMARK  status: ('A' for Active; 'I' for Inactive)
REMARK    1  A    between atoms: C1_1  and  C2_2 
REMARK    2  A    between atoms: C2_2  and  N1_3 
ROOT
ATOM      1  N1  <0> d          -1.372  -0.511   0.012  0.00  0.00    -0.349 N 
ATOM      2  C3  <0> d          -2.074  -0.876   1.116  0.00  0.00    -0.019 A 
ATOM      3  C4  <0> d          -3.304  -1.292   0.735  0.00  0.00    -0.065 A 
ATOM      4  C5  <0> d          -3.380  -1.186  -0.658  0.00  0.00    -0.045 A 
ATOM      5  C6  <0> d          -2.169  -0.692  -1.094  0.00  0.00     0.116 A 
ATOM      6  C7  <0> d          -1.806  -0.419  -2.452  0.00  0.00     0.117 C 
ATOM      7  N2  <0> d          -1.518  -0.202  -3.530  0.00  0.00    -0.190 NA
ATOM      8  H6  <0> d          -1.709  -0.840   2.132  0.00  0.00     0.111 H 
ATOM      9  H7  <0> d          -4.087  -1.644   1.390  0.00  0.00     0.085 H 
ATOM     10  H8  <0> d          -4.230  -1.439  -1.275  0.00  0.00     0.088 H 
ENDROOT
BRANCH   1  11
ATOM     11  C2  <0> d           0.002  -0.004   0.002  0.00  0.00    -0.003 C 
ATOM     12  H4  <0> d           0.512  -0.356  -0.895  0.00  0.00     0.064 H 
ATOM     13  H5  <0> d           0.529  -0.365   0.885  0.00  0.00     0.064 H 
BRANCH  11  14
ATOM     14  C1  <0> d          -0.019   1.526   0.010  0.00  0.00    -0.061 C 
ATOM     15  H1  <0> d           1.004   1.903   0.003  0.00  0.00     0.029 H 
ATOM     16  H2  <0> d          -0.546   1.887  -0.873  0.00  0.00     0.029 H 
ATOM     17  H3  <0> d          -0.529   1.877   0.907  0.00  0.00     0.029 H 
ENDBRANCH  11  14
ENDBRANCH   1  11
TORSDOF 2
