REMARK  7 active torsions:
REMARK  status: ('A' for Active; 'I' for Inactive)
REMARK    1  A    between atoms: C1_1  and  C2_2 
REMARK    2  A    between atoms: C2_2  and  C3_3 
REMARK    3  A    between atoms: C2_2  and  C4_4 
REMARK    4  A    between atoms: C2_2  and  O1_5 
REMARK    5  A    between atoms: O1_5  and  C5_6 
REMARK    6  A    between atoms: C5_6  and  C6_8 
REMARK    7  A    between atoms: C6_8  and  C7_9 
ROOT
ATOM      1  C2  <0> d          -5.255   1.295   2.539  0.00  0.00     0.060 C 
ENDROOT
BRANCH   1   2
ATOM      2  C1  <0> d          -5.513   2.796   2.400  0.00  0.00    -0.048 C 
ATOM      3  H1  <0> d          -4.553   3.330   2.352  0.00  0.00     0.031 H 
ATOM      4  H2  <0> d          -6.087   3.152   3.269  0.00  0.00     0.031 H 
ATOM      5  H3  <0> d          -6.086   2.986   1.480  0.00  0.00     0.031 H 
ENDBRANCH   1   2
BRANCH   1   6
ATOM      6  C3  <0> d          -6.591   0.552   2.607  0.00  0.00    -0.048 C 
ATOM      7  H4  <0> d          -6.406  -0.528   2.707  0.00  0.00     0.031 H 
ATOM      8  H5  <0> d          -7.164   0.742   1.687  0.00  0.00     0.031 H 
ATOM      9  H6  <0> d          -7.165   0.907   3.476  0.00  0.00     0.031 H 
ENDBRANCH   1   6
BRANCH   1  10
ATOM     10  C4  <0> d          -4.459   1.030   3.819  0.00  0.00    -0.048 C 
ATOM     11  H7  <0> d          -4.274  -0.049   3.919  0.00  0.00     0.031 H 
ATOM     12  H8  <0> d          -5.033   1.386   4.688  0.00  0.00     0.031 H 
ATOM     13  H9  <0> d          -3.499   1.564   3.770  0.00  0.00     0.031 H 
ENDBRANCH   1  10
BRANCH   1  14
ATOM     14  O1  <0> d          -4.498   0.825   1.393  0.00  0.00    -0.311 OA
BRANCH  14  15
ATOM     15  C5  <0> d          -3.294   1.381   1.189  0.00  0.00     0.263 C 
ATOM     16  O2  <0> d          -2.885   2.231   1.944  0.00  0.00    -0.265 OA
BRANCH  15  17
ATOM     17  C6  <0> d          -2.451   0.944   0.019  0.00  0.00     0.030 C 
ATOM     18  H10 <0> d          -2.237  -0.132   0.102  0.00  0.00     0.053 H 
ATOM     19  H11 <0> d          -2.994   1.138  -0.917  0.00  0.00     0.053 H 
BRANCH  17  20
ATOM     20  C7  <0> d          -1.156   1.715   0.017  0.00  0.00    -0.103 C 
ATOM     21  C8  <0> d          -0.013   1.076   0.008  0.00  0.00    -0.124 C 
ATOM     22  H13 <0> d           0.932   1.639   0.007  0.00  0.00     0.066 H 
ATOM     23  H14 <0> d           0.002  -0.024   0.002  0.00  0.00     0.066 H 
ATOM     24  H12 <0> d          -1.171   2.815   0.023  0.00  0.00     0.076 H 
ENDBRANCH  17  20
ENDBRANCH  15  17
ENDBRANCH  14  15
ENDBRANCH   1  14
TORSDOF 7
