REMARK  4 active torsions:
REMARK  status: ('A' for Active; 'I' for Inactive)
REMARK    1  A    between atoms: C1_1  and  C2_2 
REMARK    2  A    between atoms: C2_2  and  O2_4 
REMARK    3  A    between atoms: O2_4  and  C3_5 
REMARK    4  A    between atoms: C7_9  and  O3_11 
ROOT
ATOM      1  C3  <0> d          -1.185  -2.049  -0.031  0.00  0.00     0.081 A 
ATOM      2  C4  <0> d          -0.002  -2.775  -0.004  0.00  0.00    -0.050 A 
ATOM      3  C5  <0> d          -0.035  -4.155  -0.044  0.00  0.00    -0.078 A 
ATOM      4  C6  <0> d          -1.246  -4.817  -0.113  0.00  0.00    -0.051 A 
ATOM      5  C7  <0> d          -2.432  -4.097  -0.142  0.00  0.00     0.068 A 
ATOM      6  C8  <0> d          -2.401  -2.712  -0.095  0.00  0.00    -0.018 A 
ATOM      7  H4  <0> d           0.946  -2.259   0.050  0.00  0.00     0.087 H 
ATOM      8  H5  <0> d           0.886  -4.718  -0.023  0.00  0.00     0.083 H 
ATOM      9  H6  <0> d          -1.270  -5.897  -0.145  0.00  0.00     0.087 H 
ATOM     10  H7  <0> d          -3.323  -2.149  -0.112  0.00  0.00     0.092 H 
ENDROOT
BRANCH   1  11
ATOM     11  O2  <0> d          -1.151  -0.691   0.009  0.00  0.00    -0.279 OA
BRANCH  11  12
ATOM     12  C2  <0> d          -0.826  -0.035  -1.116  0.00  0.00     0.260 C 
ATOM     13  O1  <0> d          -0.487  -0.651  -2.098  0.00  0.00    -0.265 OA
BRANCH  12  14
ATOM     14  C1  <0> d          -0.883   1.471  -1.153  0.00  0.00     0.004 C 
ATOM     15  H1  <0> d          -0.587   1.821  -2.142  0.00  0.00     0.041 H 
ATOM     16  H2  <0> d          -1.899   1.801  -0.940  0.00  0.00     0.041 H 
ATOM     17  H3  <0> d          -0.204   1.879  -0.404  0.00  0.00     0.041 H 
ENDBRANCH  12  14
ENDBRANCH  11  12
ENDBRANCH   1  11
BRANCH   5  18
ATOM     18  O3  <0> d          -3.622  -4.749  -0.210  0.00  0.00    -0.361 OA
ATOM     19  H8  <0> d          -4.003  -4.963   0.653  0.00  0.00     0.217 HD
ENDBRANCH   5  18
TORSDOF 4
