REMARK  3 active torsions:
REMARK  status: ('A' for Active; 'I' for Inactive)
REMARK    1  A    between atoms: C1_1  and  O1_2 
REMARK    2  A    between atoms: O1_2  and  C2_3 
REMARK    3  A    between atoms: C4_5  and  O2_10 
ROOT
ATOM      1  C2  <0> d           3.099   2.411  -1.213  0.00  0.00     0.109 A 
ATOM      2  C3  <0> d           1.841   1.830  -1.206  0.00  0.00    -0.016 A 
ATOM      3  C4  <0> d           1.223   1.533  -0.001  0.00  0.00     0.068 A 
ATOM      4  C5  <0> d           1.862   1.822   1.196  0.00  0.00    -0.048 A 
ATOM      5  C6  <0> d           3.119   2.397   1.188  0.00  0.00    -0.040 A 
ATOM      6  C7  <0> d           3.738   2.695  -0.013  0.00  0.00     0.149 A 
ATOM      7  F1  <0> d           4.965   3.261  -0.018  0.00  0.00    -0.203 F 
ATOM      8  H4  <0> d           1.343   1.609  -2.139  0.00  0.00     0.092 H 
ATOM      9  H5  <0> d           1.379   1.595   2.134  0.00  0.00     0.087 H 
ATOM     10  H6  <0> d           3.616   2.618   2.121  0.00  0.00     0.088 H 
ENDROOT
BRANCH   1  11
ATOM     11  O1  <0> d           3.708   2.703  -2.393  0.00  0.00    -0.353 OA
BRANCH  11  12
ATOM     12  C1  <0> d           2.993   2.383  -3.588  0.00  0.00     0.011 C 
ATOM     13  H1  <0> d           3.595   2.669  -4.463  0.00  0.00     0.066 H 
ATOM     14  H2  <0> d           2.040   2.933  -3.603  0.00  0.00     0.066 H 
ATOM     15  H3  <0> d           2.793   1.302  -3.618  0.00  0.00     0.066 H 
ENDBRANCH  11  12
ENDBRANCH   1  11
BRANCH   3  16
ATOM     16  O2  <0> d          -0.011   0.963   0.007  0.00  0.00    -0.361 OA
ATOM     17  H7  <0> d          -0.501   0.727   0.963  0.00  0.00     0.217 HD
ENDBRANCH   3  16
TORSDOF 3
