REMARK  5 active torsions:
REMARK  status: ('A' for Active; 'I' for Inactive)
REMARK    1  A    between atoms: C1_1  and  C2_2 
REMARK    2  A    between atoms: C2_2  and  C3_3 
REMARK    3  A    between atoms: C3_3  and  C4_4 
REMARK    4  A    between atoms: C3_3  and  C5_5 
REMARK    5  A    between atoms: C3_3  and  O1_7 
ROOT
ATOM      1  C3  <0> d           0.002  -0.004   0.002  0.00  0.00     0.071 C 
ENDROOT
BRANCH   1   2
ATOM      2  C2  <0> d           0.742  -0.511   1.242  0.00  0.00    -0.037 C 
ATOM      3  H4  <0> d           0.835  -1.596   1.191  0.00  0.00     0.037 H 
ATOM      4  H5  <0> d           1.735  -0.063   1.280  0.00  0.00     0.037 H 
BRANCH   2   5
ATOM      5  C1  <0> d          -0.042  -0.124   2.497  0.00  0.00    -0.074 C 
ATOM      6  H1  <0> d          -0.134   0.961   2.548  0.00  0.00     0.027 H 
ATOM      7  H2  <0> d          -1.034  -0.572   2.458  0.00  0.00     0.027 H 
ATOM      8  H3  <0> d           0.486  -0.485   3.380  0.00  0.00     0.027 H 
ENDBRANCH   2   5
ENDBRANCH   1   2
BRANCH   1   9
ATOM      9  C4  <0> d          -1.433  -0.534   0.013  0.00  0.00    -0.045 C 
ATOM     10  H6  <0> d          -1.960  -0.173  -0.870  0.00  0.00     0.032 H 
ATOM     11  H7  <0> d          -1.419  -1.623   0.007  0.00  0.00     0.032 H 
ATOM     12  H8  <0> d          -1.944  -0.182   0.910  0.00  0.00     0.032 H 
ENDBRANCH   1   9
BRANCH   1  13
ATOM     13  C5  <0> d           0.707  -0.490  -1.238  0.00  0.00    -0.080 C 
ATOM     14  C6  <0> d           1.185   0.372  -2.100  0.00  0.00    -0.122 C 
ATOM     15  H10 <0> d           1.074   1.432  -1.923  0.00  0.00     0.066 H 
ATOM     16  H11 <0> d           1.691   0.024  -2.989  0.00  0.00     0.066 H 
ATOM     17  H9  <0> d           0.819  -1.550  -1.415  0.00  0.00     0.080 H 
ENDBRANCH   1  13
BRANCH   1  18
ATOM     18  O1  <0> d          -0.017   1.425   0.010  0.00  0.00    -0.386 OA
ATOM     19  H12 <0> d           0.861   1.830   0.004  0.00  0.00     0.211 HD
ENDBRANCH   1  18
TORSDOF 5
