REMARK  1 active torsions:
REMARK  status: ('A' for Active; 'I' for Inactive)
REMARK    1  A    between atoms: C1_1  and  C2_2 
ROOT
ATOM      1  C2  <0> d          -0.742   1.585  -1.213  0.00  0.00     0.103 A 
ATOM      2  N1  <0> d          -1.228   0.720  -2.062  0.00  0.00    -0.238 NA
ATOM      3  C3  <0> d          -1.882   1.112  -3.159  0.00  0.00     0.078 A 
ATOM      4  C4  <0> d          -2.051   2.441  -3.405  0.00  0.00     0.064 A 
ATOM      5  C5  <0> d          -1.527   3.375  -2.491  0.00  0.00     0.256 A 
ATOM      6  N2  <0> d          -0.880   2.913  -1.399  0.00  0.00    -0.311 N 
ATOM      7  O1  <0> d          -1.658   4.573  -2.678  0.00  0.00    -0.267 OA
ATOM      8  C6  <0> d          -2.816   2.603  -4.696  0.00  0.00     0.142 C 
ATOM      9  N3  <0> d          -3.439   1.285  -4.957  0.00  0.00     0.093 N 
ATOM     10  C7  <0> d          -2.530   0.332  -4.280  0.00  0.00     0.151 C 
ATOM     11  H4  <0> d          -0.513   3.535  -0.751  0.00  0.00     0.170 HD
ATOM     12  H5  <0> d          -3.585   3.368  -4.585  0.00  0.00     0.087 H 
ATOM     13  H6  <0> d          -2.137   2.866  -5.507  0.00  0.00     0.087 H 
ATOM     14  H7  <0> d          -1.772  -0.025  -4.977  0.00  0.00     0.089 H 
ATOM     15  H8  <0> d          -3.097  -0.508  -3.876  0.00  0.00     0.089 H 
ATOM     16  H9  <0> d          -4.368   1.240  -4.564  0.00  0.00     0.316 HD
ENDROOT
BRANCH   1  17
ATOM     17  C1  <0> d          -0.013   1.086   0.008  0.00  0.00    -0.021 C 
ATOM     18  H1  <0> d           0.002  -0.004   0.002  0.00  0.00     0.037 H 
ATOM     19  H2  <0> d           1.010   1.463   0.000  0.00  0.00     0.037 H 
ATOM     20  H3  <0> d          -0.523   1.437   0.905  0.00  0.00     0.037 H 
ENDBRANCH   1  17
TORSDOF 1
