REMARK  2 active torsions:
REMARK  status: ('A' for Active; 'I' for Inactive)
REMARK    1  A    between atoms: C1_1  and  N1_2 
REMARK    2  A    between atoms: C4_6  and  N3_10 
ROOT
ATOM      1  N1  <0> d          -0.698   1.558   1.213  0.00  0.00    -0.334 N 
ATOM      2  C2  <0> d          -0.842   2.997   1.454  0.00  0.00     0.034 C 
ATOM      3  C3  <0> d          -2.198   3.259   2.123  0.00  0.00     0.150 C 
ATOM      4  H1  <0> d          -2.216   4.273   2.521  0.00  0.00     0.106 H 
ATOM      5  C4  <0> d          -2.393   2.273   3.246  0.00  0.00     0.139 C 
ATOM      6  N2  <0> d          -1.905   1.064   3.159  0.00  0.00    -0.178 NA
ATOM      7  C5  <0> d          -1.188   0.670   2.096  0.00  0.00     0.345 C 
ATOM      8  O1  <0> d          -0.975  -0.516   1.927  0.00  0.00    -0.245 OA
ATOM      9  F1  <0> d          -3.224   3.107   1.184  0.00  0.00    -0.239 F 
ATOM     10  H5  <0> d          -0.038   3.339   2.105  0.00  0.00     0.069 H 
ATOM     11  H6  <0> d          -0.795   3.531   0.505  0.00  0.00     0.069 H 
ENDROOT
BRANCH   1  12
ATOM     12  C1  <0> d          -0.013   1.086   0.008  0.00  0.00    -0.014 C 
ATOM     13  H2  <0> d           0.002  -0.004   0.002  0.00  0.00     0.056 H 
ATOM     14  H3  <0> d           1.010   1.463   0.000  0.00  0.00     0.056 H 
ATOM     15  H4  <0> d          -0.540   1.447  -0.875  0.00  0.00     0.056 H 
ENDBRANCH   1  12
BRANCH   5  16
ATOM     16  N3  <0> d          -3.078   2.642   4.350  0.00  0.00    -0.385 N 
ATOM     17  H7  <0> d          -3.206   2.010   5.076  0.00  0.00     0.157 HD
ATOM     18  H8  <0> d          -3.443   3.538   4.418  0.00  0.00     0.157 HD
ENDBRANCH   5  16
TORSDOF 2
