REMARK  6 active torsions:
REMARK  status: ('A' for Active; 'I' for Inactive)
REMARK    1  A    between atoms: C1_1  and  C2_2 
REMARK    2  A    between atoms: C2_2  and  C3_3 
REMARK    3  A    between atoms: C3_3  and  O1_4 
REMARK    4  A    between atoms: O1_4  and  C4_5 
REMARK    5  A    between atoms: C4_5  and  C5_7 
REMARK    6  A    between atoms: C5_7  and  C6_8 
ROOT
ATOM      1  C3  <0> d           2.367   1.117  -0.015  0.00  0.00     0.029 C 
ATOM      2  H6  <0> d           2.409   0.484   0.872  0.00  0.00     0.075 H 
ATOM      3  H7  <0> d           2.392   0.493  -0.908  0.00  0.00     0.075 H 
ENDROOT
BRANCH   1   4
ATOM      4  C2  <0> d           3.568   2.065  -0.021  0.00  0.00    -0.048 C 
ATOM      5  H4  <0> d           3.526   2.698  -0.907  0.00  0.00     0.035 H 
ATOM      6  H5  <0> d           3.543   2.689   0.873  0.00  0.00     0.035 H 
BRANCH   4   7
ATOM      7  C1  <0> d           4.862   1.250  -0.038  0.00  0.00    -0.075 C 
ATOM      8  H1  <0> d           4.904   0.616   0.849  0.00  0.00     0.027 H 
ATOM      9  H2  <0> d           4.887   0.626  -0.931  0.00  0.00     0.027 H 
ATOM     10  H3  <0> d           5.717   1.925  -0.042  0.00  0.00     0.027 H 
ENDBRANCH   4   7
ENDBRANCH   1   4
BRANCH   1  11
ATOM     11  O1  <0> d           1.139   1.891   0.001  0.00  0.00    -0.322 OA
BRANCH  11  12
ATOM     12  C4  <0> d          -0.014   1.204   0.009  0.00  0.00     0.258 C 
ATOM     13  O2  <0> d           0.002  -0.004   0.002  0.00  0.00    -0.265 OA
BRANCH  12  14
ATOM     14  C5  <0> d          -1.329   1.940   0.019  0.00  0.00     0.013 C 
ATOM     15  H8  <0> d          -1.391   2.561   0.913  0.00  0.00     0.047 H 
ATOM     16  H9  <0> d          -1.400   2.570  -0.867  0.00  0.00     0.047 H 
BRANCH  14  17
ATOM     17  C6  <0> d          -2.479   0.930   0.019  0.00  0.00    -0.068 C 
ATOM     18  H10 <0> d          -3.430   1.462   0.026  0.00  0.00     0.028 H 
ATOM     19  H11 <0> d          -2.417   0.309  -0.875  0.00  0.00     0.028 H 
ATOM     20  H12 <0> d          -2.408   0.299   0.905  0.00  0.00     0.028 H 
ENDBRANCH  14  17
ENDBRANCH  12  14
ENDBRANCH  11  12
ENDBRANCH   1  11
TORSDOF 6
