REMARK  3 active torsions:
REMARK  status: ('A' for Active; 'I' for Inactive)
REMARK    1  A    between atoms: C1_1  and  C2_2 
REMARK    2  A    between atoms: C2_2  and  C7_9 
REMARK    3  A    between atoms: C7_9  and  C8_10 
ROOT
ATOM      1  C8  <0> d          -3.728   3.871  -0.481  0.00  0.00    -0.116 C 
ATOM      2  C9  <0> d          -4.797   4.172  -0.100  0.00  0.00    -0.154 C 
ATOM      3  H10 <0> d          -5.753   4.442   0.240  0.00  0.00     0.166 H 
ENDROOT
BRANCH   1   4
ATOM      4  C7  <0> d          -2.388   3.493  -0.958  0.00  0.00     0.010 C 
ATOM      5  H8  <0> d          -1.636   4.075  -0.426  0.00  0.00     0.054 H 
ATOM      6  H9  <0> d          -2.313   3.693  -2.027  0.00  0.00     0.054 H 
BRANCH   4   7
ATOM      7  C2  <0> d          -2.157   2.003  -0.701  0.00  0.00     0.087 C 
ATOM      8  C6  <0> d          -2.215   1.721   0.785  0.00  0.00     0.143 C 
ATOM      9  C5  <0> d          -0.772   1.601   1.246  0.00  0.00    -0.002 C 
ATOM     10  O2  <0> d          -3.206   1.615   1.466  0.00  0.00    -0.297 OA
ATOM     11  C4  <0> d          -0.013   1.086   0.008  0.00  0.00    -0.002 C 
ATOM     12  H6  <0> d          -0.664   0.951   1.998  0.00  0.00     0.044 H 
ATOM     13  H7  <0> d          -0.387   2.575   1.549  0.00  0.00     0.044 H 
ATOM     14  C3  <0> d          -0.782   1.605  -1.188  0.00  0.00     0.143 C 
ATOM     15  H4  <0> d           0.013   0.087  -0.021  0.00  0.00     0.044 H 
ATOM     16  H5  <0> d           1.005   1.476   0.000  0.00  0.00     0.044 H 
ATOM     17  O1  <0> d          -0.372   1.688  -2.321  0.00  0.00    -0.297 OA
BRANCH   7  18
ATOM     18  C1  <0> d          -3.223   1.179  -1.427  0.00  0.00    -0.055 C 
ATOM     19  H1  <0> d          -3.062   0.120  -1.227  0.00  0.00     0.029 H 
ATOM     20  H2  <0> d          -4.211   1.470  -1.071  0.00  0.00     0.029 H 
ATOM     21  H3  <0> d          -3.154   1.361  -2.499  0.00  0.00     0.029 H 
ENDBRANCH   7  18
ENDBRANCH   4   7
ENDBRANCH   1   4
TORSDOF 3
