REMARK  8 active torsions:
REMARK  status: ('A' for Active; 'I' for Inactive)
REMARK    1  A    between atoms: C1_1  and  C2_2 
REMARK    2  A    between atoms: C2_2  and  C9_11 
REMARK    3  A    between atoms: C3_3  and  C4_4 
REMARK    4  A    between atoms: C4_4  and  O2_6 
REMARK    5  A    between atoms: O2_6  and  C5_7 
REMARK    6  A    between atoms: C5_7  and  C6_8 
REMARK    7  A    between atoms: C5_7  and  C7_9 
REMARK    8  A    between atoms: C5_7  and  C8_10 
ROOT
ATOM      1  O2  <0> d          -1.155  -0.754   3.293  0.00  0.00    -0.308 OA
ENDROOT
BRANCH   1   2
ATOM      2  C4  <0> d          -0.774  -1.429   2.191  0.00  0.00     0.283 C 
ATOM      3  O1  <0> d           0.256  -2.074   2.200  0.00  0.00    -0.260 OA
BRANCH   2   4
ATOM      4  C3  <0> d          -1.603  -1.386   0.979  0.00  0.00    -0.009 C 
ATOM      5  C2  <0> d          -1.246  -2.082  -0.098  0.00  0.00    -0.082 C 
ATOM      6  H4  <0> d          -2.503  -0.789   0.961  0.00  0.00     0.093 H 
BRANCH   5   7
ATOM      7  C1  <0> d           0.067  -2.822  -0.114  0.00  0.00    -0.055 C 
ATOM      8  H1  <0> d           0.882  -2.120   0.060  0.00  0.00     0.033 H 
ATOM      9  H2  <0> d           0.067  -3.580   0.669  0.00  0.00     0.033 H 
ATOM     10  H3  <0> d           0.202  -3.302  -1.084  0.00  0.00     0.033 H 
ENDBRANCH   5   7
BRANCH   5  11
ATOM     11  C9  <0> d          -2.153  -2.131  -1.300  0.00  0.00    -0.055 C 
ATOM     12  H14 <0> d          -1.908  -1.311  -1.974  0.00  0.00     0.033 H 
ATOM     13  H15 <0> d          -2.019  -3.080  -1.818  0.00  0.00     0.033 H 
ATOM     14  H16 <0> d          -3.190  -2.038  -0.976  0.00  0.00     0.033 H 
ENDBRANCH   5  11
ENDBRANCH   2   4
ENDBRANCH   1   2
BRANCH   1  15
ATOM     15  C5  <0> d          -0.287  -0.842   4.454  0.00  0.00     0.060 C 
BRANCH  15  16
ATOM     16  C6  <0> d           1.098  -0.298   4.097  0.00  0.00    -0.048 C 
ATOM     17  H5  <0> d           1.010   0.743   3.787  0.00  0.00     0.031 H 
ATOM     18  H6  <0> d           1.749  -0.364   4.968  0.00  0.00     0.031 H 
ATOM     19  H7  <0> d           1.520  -0.886   3.282  0.00  0.00     0.031 H 
ENDBRANCH  15  16
BRANCH  15  20
ATOM     20  C7  <0> d          -0.880  -0.017   5.598  0.00  0.00    -0.048 C 
ATOM     21  H8  <0> d          -1.867  -0.404   5.852  0.00  0.00     0.031 H 
ATOM     22  H9  <0> d          -0.229  -0.083   6.469  0.00  0.00     0.031 H 
ATOM     23  H10 <0> d          -0.968   1.024   5.287  0.00  0.00     0.031 H 
ENDBRANCH  15  20
BRANCH  15  24
ATOM     24  C8  <0> d          -0.165  -2.304   4.889  0.00  0.00    -0.048 C 
ATOM     25  H11 <0> d           0.257  -2.891   4.074  0.00  0.00     0.031 H 
ATOM     26  H12 <0> d           0.487  -2.370   5.761  0.00  0.00     0.031 H 
ATOM     27  H13 <0> d          -1.152  -2.691   5.143  0.00  0.00     0.031 H 
ENDBRANCH  15  24
ENDBRANCH   1  15
TORSDOF 8
