REMARK  1 active torsions:
REMARK  status: ('A' for Active; 'I' for Inactive)
REMARK    1  A    between atoms: C4_5  and  C8_11 
REMARK       I    between atoms: C8_11  and  N1_13 
ROOT
ATOM      1  C1  <0> d           1.308  -0.259   0.840  0.00  0.00    -0.051 C 
ATOM      2  C2  <0> d           2.162   0.748  -0.015  0.00  0.00    -0.037 C 
ATOM      3  H1  <0> d           3.191   0.912   0.307  0.00  0.00     0.046 H 
ATOM      4  C3  <0> d           1.972   0.140  -1.441  0.00  0.00    -0.047 C 
ATOM      5  C4  <0> d           0.488  -0.369  -1.437  0.00  0.00     0.030 C 
ATOM      6  H2  <0> d           0.454  -1.448  -1.590  0.00  0.00     0.055 H 
ATOM      7  C5  <0> d           0.002  -0.004   0.002  0.00  0.00    -0.026 C 
ATOM      8  H3  <0> d          -0.904  -0.502   0.346  0.00  0.00     0.047 H 
ATOM      9  C6  <0> d          -0.019   1.529   0.011  0.00  0.00    -0.101 C 
ATOM     10  C7  <0> d           1.226   1.963   0.001  0.00  0.00    -0.102 C 
ATOM     11  H4  <0> d           1.206   0.057   1.878  0.00  0.00     0.035 H 
ATOM     12  H5  <0> d           1.665  -1.285   0.755  0.00  0.00     0.035 H 
ATOM     13  H6  <0> d           2.105   0.906  -2.205  0.00  0.00     0.035 H 
ATOM     14  H7  <0> d           2.666  -0.685  -1.601  0.00  0.00     0.035 H 
ATOM     15  H8  <0> d          -0.903   2.149   0.018  0.00  0.00     0.077 H 
ATOM     16  H9  <0> d           1.534   2.998   0.004  0.00  0.00     0.076 H 
ENDROOT
BRANCH   5  17
ATOM     17  C8  <0> d          -0.344   0.340  -2.473  0.00  0.00     0.220 C 
ATOM     18  O1  <0> d          -1.246   1.074  -2.128  0.00  0.00    -0.273 OA
ATOM     19  N1  <0> d          -0.087   0.160  -3.784  0.00  0.00    -0.370 N 
ATOM     20  H10 <0> d           0.634  -0.427  -4.060  0.00  0.00     0.159 HD
ATOM     21  H11 <0> d          -0.623   0.617  -4.451  0.00  0.00     0.159 HD
ENDBRANCH   5  17
TORSDOF 1
