REMARK  0 active torsions:
REMARK  status: ('A' for Active; 'I' for Inactive)
ROOT
ATOM      1  C1  <0> d           1.159   1.776   0.001  0.00  0.00    -0.080 A 
ATOM      2  C2  <0> d          -0.013   1.076   0.008  0.00  0.00    -0.069 A 
ATOM      3  C3  <0> d          -1.232   1.761   0.017  0.00  0.00     0.013 A 
ATOM      4  C4  <0> d          -2.630   1.341   0.034  0.00  0.00     0.034 A 
ATOM      5  N1  <0> d          -3.368   2.414   0.047  0.00  0.00    -0.186 NA
ATOM      6  N2  <0> d          -2.558   3.554   0.045  0.00  0.00    -0.276 N 
ATOM      7  H1  <0> d          -2.886   4.499   0.053  0.00  0.00     0.189 HD
ATOM      8  C5  <0> d          -1.243   3.169   0.030  0.00  0.00     0.083 A 
ATOM      9  C6  <0> d          -0.034   3.863   0.023  0.00  0.00     0.063 A 
ATOM     10  C7  <0> d           1.153   3.166   0.008  0.00  0.00    -0.060 A 
ATOM     11 Cl1  <0> d          -0.026   5.599   0.032  0.00  0.00    -0.082 Cl
ATOM     12  H2  <0> d           2.099   1.245  -0.011  0.00  0.00     0.083 H 
ATOM     13  H3  <0> d           0.002  -0.004   0.002  0.00  0.00     0.085 H 
ATOM     14  H4  <0> d          -2.988   0.322   0.032  0.00  0.00     0.118 H 
ATOM     15  H5  <0> d           2.089   3.704   0.002  0.00  0.00     0.086 H 
ENDROOT
TORSDOF 0
