REMARK  1 active torsions:
REMARK  status: ('A' for Active; 'I' for Inactive)
REMARK    1  A    between atoms: C6_6  and  O1_7 
ROOT
ATOM      1  C1  <0> d           1.159   3.522   0.010  0.00  0.00    -0.050 A 
ATOM      2  C2  <0> d           1.182   2.145   0.002  0.00  0.00    -0.059 A 
ATOM      3  C3  <0> d          -0.017   1.428   0.010  0.00  0.00     0.066 A 
ATOM      4  C4  <0> d          -1.237   2.113   0.019  0.00  0.00     0.057 A 
ATOM      5  C5  <0> d          -1.250   3.492   0.033  0.00  0.00    -0.029 A 
ATOM      6  C6  <0> d          -0.055   4.199   0.025  0.00  0.00     0.067 A 
ATOM      7 Cl1  <0> d          -2.731   1.229   0.022  0.00  0.00    -0.083 Cl
ATOM      8  C7  <0> d           0.002  -0.004   0.002  0.00  0.00     0.101 C 
ATOM      9  N1  <0> d           0.018  -1.140  -0.004  0.00  0.00    -0.191 NA
ATOM     10  H1  <0> d           2.086   4.077   0.004  0.00  0.00     0.087 H 
ATOM     11  H2  <0> d           2.126   1.620  -0.010  0.00  0.00     0.086 H 
ATOM     12  H3  <0> d          -2.191   4.022   0.045  0.00  0.00     0.090 H 
ENDROOT
BRANCH   6  13
ATOM     13  O1  <0> d          -0.072   5.557   0.032  0.00  0.00    -0.361 OA
ATOM     14  H4  <0> d          -0.086   5.955  -0.849  0.00  0.00     0.217 HD
ENDBRANCH   6  13
TORSDOF 1
