REMARK  2 active torsions:
REMARK  status: ('A' for Active; 'I' for Inactive)
REMARK    1  A    between atoms: C1_1  and  C2_2 
REMARK    2  A    between atoms: C4_4  and  N2_9 
ROOT
ATOM      1  C2  <0> d           2.355  -0.030  -0.021  0.00  0.00    -0.002 A 
ATOM      2  C3  <0> d           2.381   1.354  -0.013  0.00  0.00    -0.046 A 
ATOM      3  C4  <0> d           1.168   2.039   0.002  0.00  0.00     0.044 A 
ATOM      4  C5  <0> d          -0.016   1.315   0.009  0.00  0.00     0.030 A 
ATOM      5  N1  <0> d           0.002  -0.004   0.002  0.00  0.00    -0.230 NA
ATOM      6  C6  <0> d           1.134  -0.684  -0.013  0.00  0.00     0.215 A 
ATOM      7  F1  <0> d           1.100  -2.034  -0.020  0.00  0.00    -0.184 F 
ATOM      8  H4  <0> d           3.319   1.890  -0.020  0.00  0.00     0.088 H 
ATOM      9  H5  <0> d          -0.962   1.836   0.017  0.00  0.00     0.118 H 
ENDROOT
BRANCH   1  10
ATOM     10  C1  <0> d           3.641  -0.817  -0.037  0.00  0.00    -0.047 C 
ATOM     11  H1  <0> d           3.941  -1.001  -1.068  0.00  0.00     0.033 H 
ATOM     12  H2  <0> d           4.420  -0.249   0.473  0.00  0.00     0.033 H 
ATOM     13  H3  <0> d           3.491  -1.768   0.474  0.00  0.00     0.033 H 
ENDBRANCH   1  10
BRANCH   3  14
ATOM     14  N2  <0> d           1.144   3.438   0.009  0.00  0.00    -0.398 N 
ATOM     15  H6  <0> d           0.295   3.908   0.019  0.00  0.00     0.156 HD
ATOM     16  H7  <0> d           1.975   3.937   0.004  0.00  0.00     0.156 HD
ENDBRANCH   3  14
TORSDOF 2
