REMARK  4 active torsions:
REMARK  status: ('A' for Active; 'I' for Inactive)
REMARK    1  A    between atoms: C1_1  and  O1_2 
REMARK    2  A    between atoms: O1_2  and  C2_3 
REMARK    3  A    between atoms: C2_3  and  C3_4 
REMARK    4  A    between atoms: C3_4  and  C4_5 
ROOT
ATOM      1  C2  <0> d          -0.733   1.888   1.268  0.00  0.00     0.085 C 
ATOM      2  H4  <0> d          -0.206   1.527   2.152  0.00  0.00     0.083 H 
ATOM      3  H5  <0> d          -0.748   2.978   1.274  0.00  0.00     0.083 H 
ENDROOT
BRANCH   1   4
ATOM      4  O1  <0> d          -2.074   1.394   1.279  0.00  0.00    -0.390 OA
BRANCH   4   5
ATOM      5  C1  <0> d          -2.834   1.799   2.419  0.00  0.00     0.004 C 
ATOM      6  H1  <0> d          -2.350   1.436   3.326  0.00  0.00     0.066 H 
ATOM      7  H2  <0> d          -2.892   2.887   2.449  0.00  0.00     0.066 H 
ATOM      8  H3  <0> d          -3.839   1.383   2.352  0.00  0.00     0.066 H 
ENDBRANCH   4   5
ENDBRANCH   1   4
BRANCH   1   9
ATOM      9  C3  <0> d          -0.017   1.395   0.010  0.00  0.00     0.322 C 
ATOM     10  F3  <0> d           0.002  -0.004   0.002  0.00  0.00    -0.198 F 
ATOM     11  F4  <0> d           1.296   1.879  -0.000  0.00  0.00    -0.198 F 
BRANCH   9  12
ATOM     12  C4  <0> d          -0.757   1.902  -1.230  0.00  0.00     0.272 C 
ATOM     13  F1  <0> d          -0.776   3.300  -1.222  0.00  0.00    -0.208 F 
ATOM     14  F2  <0> d          -0.102   1.450  -2.381  0.00  0.00    -0.208 F 
ATOM     15  H6  <0> d          -1.780   1.524  -1.222  0.00  0.00     0.155 H 
ENDBRANCH   9  12
ENDBRANCH   1   9
TORSDOF 4
