REMARK  0 active torsions:
REMARK  status: ('A' for Active; 'I' for Inactive)
ROOT
ATOM      1  C1  <0> d          -0.016   1.300   0.009  0.00  0.00     0.041 A 
ATOM      2  C2  <0> d           1.314   1.761  -0.001  0.00  0.00     0.098 A 
ATOM      3  C3  <0> d           2.147   0.630  -0.015  0.00  0.00     0.162 A 
ATOM      4  N1  <0> d           1.328  -0.454  -0.013  0.00  0.00    -0.261 N 
ATOM      5  H1  <0> d           1.614  -1.381  -0.021  0.00  0.00     0.191 HD
ATOM      6  N2  <0> d           0.002  -0.004   0.002  0.00  0.00    -0.184 NA
ATOM      7  N3  <0> d           3.478   0.799  -0.026  0.00  0.00    -0.224 NA
ATOM      8  C4  <0> d           4.021   1.981  -0.025  0.00  0.00     0.069 A 
ATOM      9  N4  <0> d           3.297   3.128  -0.011  0.00  0.00    -0.317 N 
ATOM     10  H2  <0> d           3.751   3.985  -0.011  0.00  0.00     0.170 HD
ATOM     11  C5  <0> d           1.944   3.081   0.000  0.00  0.00     0.262 A 
ATOM     12  O1  <0> d           1.277   4.100   0.012  0.00  0.00    -0.267 OA
ATOM     13  H3  <0> d          -0.899   1.921   0.025  0.00  0.00     0.119 H 
ATOM     14  H4  <0> d           5.099   2.052  -0.035  0.00  0.00     0.143 H 
ENDROOT
TORSDOF 0
