REMARK  1 active torsions:
REMARK  status: ('A' for Active; 'I' for Inactive)
REMARK    1  A    between atoms: C3_3  and  O1_9 
ROOT
ATOM      1  C1  <0> d          -0.683   2.010  -1.287  0.00  0.00    -0.056 C 
ATOM      2  C2  <0> d           0.125   1.516  -2.489  0.00  0.00    -0.032 C 
ATOM      3  C3  <0> d           1.331   0.704  -1.998  0.00  0.00     0.075 C 
ATOM      4  C4  <0> d           0.810  -0.499  -1.200  0.00  0.00    -0.032 C 
ATOM      5  C5  <0> d           0.002  -0.004   0.002  0.00  0.00    -0.056 C 
ATOM      6  C6  <0> d          -0.019   1.530   0.011  0.00  0.00    -0.038 C 
ATOM      7  C7  <0> d           1.423   2.016  -0.001  0.00  0.00    -0.100 C 
ATOM      8  C8  <0> d           2.126   1.586  -1.046  0.00  0.00    -0.074 C 
ATOM      9  H1  <0> d          -1.697   1.615  -1.344  0.00  0.00     0.034 H 
ATOM     10  H2  <0> d          -0.717   3.100  -1.296  0.00  0.00     0.034 H 
ATOM     11  H3  <0> d           0.475   2.371  -3.068  0.00  0.00     0.037 H 
ATOM     12  H4  <0> d          -0.505   0.886  -3.116  0.00  0.00     0.037 H 
ATOM     13  H5  <0> d           1.653  -1.095  -0.850  0.00  0.00     0.037 H 
ATOM     14  H6  <0> d           0.173  -1.110  -1.839  0.00  0.00     0.037 H 
ATOM     15  H7  <0> d           0.461  -0.366   0.922  0.00  0.00     0.034 H 
ATOM     16  H8  <0> d          -1.018  -0.381  -0.067  0.00  0.00     0.034 H 
ATOM     17  H9  <0> d          -0.546   1.904   0.888  0.00  0.00     0.046 H 
ATOM     18  H10 <0> d           1.838   2.651   0.768  0.00  0.00     0.077 H 
ATOM     19  H11 <0> d           3.163   1.840  -1.204  0.00  0.00     0.081 H 
ENDROOT
BRANCH   3  20
ATOM     20  O1  <0> d           2.147   0.272  -3.089  0.00  0.00    -0.386 OA
ATOM     21  H12 <0> d           2.501   0.995  -3.625  0.00  0.00     0.211 HD
ENDBRANCH   3  20
TORSDOF 1
