REMARK  5 active torsions:
REMARK  status: ('A' for Active; 'I' for Inactive)
REMARK    1  A    between atoms: C1_1  and  C2_2 
REMARK    2  A    between atoms: C2_2  and  C3_3 
REMARK    3  A    between atoms: C2_2  and  N1_4 
REMARK    4  A    between atoms: C5_6  and  C7_9 
REMARK    5  A    between atoms: C7_9  and  O1_10 
ROOT
ATOM      1  N1  <0> d          -2.103   1.072   1.277  0.00  0.00    -0.277 N 
ATOM      2  C4  <0> d          -2.501  -0.135   1.731  0.00  0.00     0.008 A 
ATOM      3  C5  <0> d          -3.842  -0.215   1.569  0.00  0.00     0.002 A 
ATOM      4  C6  <0> d          -4.277   0.980   0.988  0.00  0.00     0.031 A 
ATOM      5  N2  <0> d          -3.236   1.752   0.812  0.00  0.00    -0.184 NA
ATOM      6  H8  <0> d          -1.863  -0.899   2.151  0.00  0.00     0.115 H 
ATOM      7  H9  <0> d          -5.297   1.223   0.728  0.00  0.00     0.118 H 
ENDROOT
BRANCH   1   8
ATOM      8  C2  <0> d          -0.729   1.579   1.267  0.00  0.00     0.027 C 
ATOM      9  H4  <0> d          -0.744   2.669   1.273  0.00  0.00     0.074 H 
BRANCH   8  10
ATOM     10  C1  <0> d          -0.013   1.086   0.008  0.00  0.00    -0.056 C 
ATOM     11  H1  <0> d           0.002  -0.004   0.002  0.00  0.00     0.030 H 
ATOM     12  H2  <0> d           1.010   1.463   0.000  0.00  0.00     0.030 H 
ATOM     13  H3  <0> d          -0.540   1.447  -0.875  0.00  0.00     0.030 H 
ENDBRANCH   8  10
BRANCH   8  14
ATOM     14  C3  <0> d           0.011   1.072   2.506  0.00  0.00    -0.056 C 
ATOM     15  H5  <0> d           1.034   1.450   2.499  0.00  0.00     0.030 H 
ATOM     16  H6  <0> d          -0.499   1.424   3.403  0.00  0.00     0.030 H 
ATOM     17  H7  <0> d           0.026  -0.018   2.500  0.00  0.00     0.030 H 
ENDBRANCH   8  14
ENDBRANCH   1   8
BRANCH   3  18
ATOM     18  C7  <0> d          -4.711  -1.388   1.943  0.00  0.00     0.043 C 
ATOM     19  H10 <0> d          -4.275  -1.906   2.797  0.00  0.00     0.081 H 
ATOM     20  H11 <0> d          -5.708  -1.033   2.203  0.00  0.00     0.081 H 
BRANCH  18  21
ATOM     21  O1  <0> d          -4.800  -2.287   0.836  0.00  0.00    -0.396 OA
ATOM     22  H12 <0> d          -5.346  -3.067   1.005  0.00  0.00     0.209 HD
ENDBRANCH  18  21
ENDBRANCH   3  18
TORSDOF 5
