REMARK  2 active torsions:
REMARK  status: ('A' for Active; 'I' for Inactive)
REMARK    1  A    between atoms: C2_2  and  C3_3 
REMARK    2  A    between atoms: C7_7  and  C9_9 
ROOT
ATOM      1  C1  <0> d           0.018  -1.178  -0.004  0.00  0.00    -0.149 C 
ATOM      2  C2  <0> d           0.002  -0.004   0.002  0.00  0.00    -0.078 C 
ATOM      3  H1  <0> d           0.032  -2.228  -0.010  0.00  0.00     0.166 H 
ENDROOT
BRANCH   2   4
ATOM      4  C3  <0> d          -0.017   1.428   0.010  0.00  0.00     0.017 A 
ATOM      5  C8  <0> d           1.179   2.145   0.002  0.00  0.00    -0.058 A 
ATOM      6  C7  <0> d           1.154   3.524   0.005  0.00  0.00    -0.044 A 
ATOM      7  H5  <0> d           2.124   1.621  -0.009  0.00  0.00     0.086 H 
ATOM      8  C6  <0> d          -0.055   4.197   0.026  0.00  0.00    -0.076 A 
ATOM      9  C5  <0> d          -1.245   3.491   0.039  0.00  0.00    -0.081 A 
ATOM     10  H4  <0> d          -0.070   5.276   0.031  0.00  0.00     0.084 H 
ATOM     11  C4  <0> d          -1.234   2.112   0.031  0.00  0.00    -0.065 A 
ATOM     12  H3  <0> d          -2.186   4.022   0.055  0.00  0.00     0.083 H 
ATOM     13  H2  <0> d          -2.163   1.563   0.041  0.00  0.00     0.085 H 
BRANCH   6  14
ATOM     14  C9  <0> d           2.446   4.301  -0.010  0.00  0.00     0.038 C 
ATOM     15  C10 <0> d           2.886   4.546   1.373  0.00  0.00     0.063 C 
ATOM     16  N1  <0> d           3.227   4.736   2.440  0.00  0.00    -0.197 NA
ATOM     17  H6  <0> d           3.208   3.727  -0.538  0.00  0.00     0.062 H 
ATOM     18  H7  <0> d           2.291   5.253  -0.517  0.00  0.00     0.062 H 
ENDBRANCH   6  14
ENDBRANCH   2   4
TORSDOF 2
