REMARK  4 active torsions:
REMARK  status: ('A' for Active; 'I' for Inactive)
REMARK    1  A    between atoms: C2_2  and  N3_10 
REMARK    2  A    between atoms: N1_4  and  C4_6 
REMARK    3  A    between atoms: C4_6  and  C5_7 
REMARK    4  A    between atoms: C5_7  and  C6_8 
ROOT
ATOM      1  C1  <0> d          -0.695   3.200   0.026  0.00  0.00     0.048 A 
ATOM      2  C2  <0> d          -1.118   1.863   0.017  0.00  0.00     0.062 A 
ATOM      3  C3  <0> d          -0.013   1.076   0.008  0.00  0.00     0.025 A 
ATOM      4  N1  <0> d           1.073   1.894   0.002  0.00  0.00    -0.279 N 
ATOM      5  N2  <0> d           0.614   3.217   0.013  0.00  0.00    -0.183 NA
ATOM      6  H1  <0> d          -1.338   4.066   0.036  0.00  0.00     0.121 H 
ATOM      7  H2  <0> d           0.002  -0.004   0.002  0.00  0.00     0.117 H 
ENDROOT
BRANCH   4   8
ATOM      8  C4  <0> d           2.475   1.468  -0.013  0.00  0.00     0.025 C 
ATOM      9  H3  <0> d           2.957   1.773   0.915  0.00  0.00     0.068 H 
ATOM     10  H4  <0> d           2.523   0.383  -0.109  0.00  0.00     0.068 H 
BRANCH   8  11
ATOM     11  C5  <0> d           3.192   2.117  -1.198  0.00  0.00     0.032 C 
ATOM     12  H5  <0> d           2.710   1.812  -2.127  0.00  0.00     0.051 H 
ATOM     13  H6  <0> d           3.144   3.201  -1.103  0.00  0.00     0.051 H 
BRANCH  11  14
ATOM     14  C6  <0> d           4.634   1.678  -1.214  0.00  0.00     0.174 C 
ATOM     15  O1  <0> d           5.045   0.924  -0.364  0.00  0.00    -0.648 OA
ATOM     16  O2  <0> d           5.461   2.125  -2.172  0.00  0.00    -0.648 OA
ENDBRANCH  11  14
ENDBRANCH   8  11
ENDBRANCH   4   8
BRANCH   2  17
ATOM     17  N3  <0> d          -2.453   1.416   0.019  0.00  0.00    -0.397 N 
ATOM     18  H7  <0> d          -2.647   0.466   0.015  0.00  0.00     0.156 HD
ATOM     19  H8  <0> d          -3.180   2.059   0.026  0.00  0.00     0.156 HD
ENDBRANCH   2  17
TORSDOF 4
