REMARK  4 active torsions:
REMARK  status: ('A' for Active; 'I' for Inactive)
REMARK    1  A    between atoms: C1_1  and  C2_2 
REMARK    2  A    between atoms: C5_5  and  O1_9 
REMARK    3  A    between atoms: C6_7  and  C7_8 
REMARK    4  A    between atoms: O1_9  and  C8_10 
ROOT
ATOM      1  C2  <0> d           2.382   0.099  -0.020  0.00  0.00    -0.037 A 
ATOM      2  C3  <0> d           1.220  -0.661  -0.013  0.00  0.00    -0.071 A 
ATOM      3  C4  <0> d           0.002  -0.004   0.002  0.00  0.00    -0.031 A 
ATOM      4  C5  <0> d          -0.017   1.385   0.010  0.00  0.00     0.164 A 
ATOM      5  N1  <0> d           1.112   2.074   0.003  0.00  0.00    -0.229 NA
ATOM      6  C6  <0> d           2.288   1.476  -0.012  0.00  0.00     0.039 A 
ATOM      7  H4  <0> d           1.266  -1.740  -0.020  0.00  0.00     0.084 H 
ATOM      8  H5  <0> d          -0.921  -0.564   0.007  0.00  0.00     0.090 H 
ENDROOT
BRANCH   4   9
ATOM      9  O1  <0> d          -1.204   2.041   0.019  0.00  0.00    -0.339 OA
BRANCH   9  10
ATOM     10  C8  <0> d          -1.157   3.469   0.026  0.00  0.00     0.012 C 
ATOM     11  H9  <0> d          -2.172   3.866   0.033  0.00  0.00     0.067 H 
ATOM     12  H10 <0> d          -0.627   3.810   0.916  0.00  0.00     0.067 H 
ATOM     13  H11 <0> d          -0.635   3.820  -0.864  0.00  0.00     0.067 H 
ENDBRANCH   9  10
ENDBRANCH   4   9
BRANCH   6  14
ATOM     14  C7  <0> d           3.545   2.308  -0.020  0.00  0.00    -0.035 C 
ATOM     15  H6  <0> d           3.838   2.513  -1.050  0.00  0.00     0.035 H 
ATOM     16  H7  <0> d           3.363   3.248   0.501  0.00  0.00     0.035 H 
ATOM     17  H8  <0> d           4.344   1.763   0.483  0.00  0.00     0.035 H 
ENDBRANCH   6  14
BRANCH   1  18
ATOM     18  C1  <0> d           3.731  -0.573  -0.036  0.00  0.00    -0.049 C 
ATOM     19  H1  <0> d           4.046  -0.729  -1.068  0.00  0.00     0.033 H 
ATOM     20  H2  <0> d           4.458   0.060   0.474  0.00  0.00     0.033 H 
ATOM     21  H3  <0> d           3.664  -1.534   0.473  0.00  0.00     0.033 H 
ENDBRANCH   1  18
TORSDOF 4
