REMARK  8 active torsions:
REMARK  status: ('A' for Active; 'I' for Inactive)
REMARK    1  A    between atoms: C1_1  and  C2_2 
REMARK    2  A    between atoms: C2_2  and  C3_3 
REMARK    3  A    between atoms: C3_3  and  C4_4 
REMARK    4  A    between atoms: C3_3  and  O1_6 
REMARK    5  A    between atoms: C4_4  and  C5_5 
REMARK    6  A    between atoms: O1_6  and  C6_7 
REMARK    7  A    between atoms: C6_7  and  C7_9 
REMARK    8  A    between atoms: C7_9  and  C8_10 
ROOT
ATOM      1  C3  <0> d           2.367   1.117  -0.015  0.00  0.00     0.047 C 
ATOM      2  H6  <0> d           2.205   0.167   0.496  0.00  0.00     0.084 H 
ENDROOT
BRANCH   1   3
ATOM      3  C2  <0> d           2.785   0.853  -1.462  0.00  0.00    -0.044 C 
ATOM      4  H4  <0> d           2.861   1.799  -1.997  0.00  0.00     0.036 H 
ATOM      5  H5  <0> d           3.752   0.349  -1.476  0.00  0.00     0.036 H 
BRANCH   3   6
ATOM      6  C1  <0> d           1.739  -0.034  -2.141  0.00  0.00    -0.074 C 
ATOM      7  H1  <0> d           0.772   0.469  -2.128  0.00  0.00     0.027 H 
ATOM      8  H2  <0> d           2.036  -0.222  -3.173  0.00  0.00     0.027 H 
ATOM      9  H3  <0> d           1.663  -0.981  -1.607  0.00  0.00     0.027 H 
ENDBRANCH   3   6
ENDBRANCH   1   3
BRANCH   1  10
ATOM     10  C4  <0> d           3.472   1.898   0.700  0.00  0.00    -0.044 C 
ATOM     11  H7  <0> d           4.414   1.358   0.612  0.00  0.00     0.036 H 
ATOM     12  H8  <0> d           3.573   2.883   0.245  0.00  0.00     0.036 H 
BRANCH  10  13
ATOM     13  C5  <0> d           3.111   2.054   2.179  0.00  0.00    -0.074 C 
ATOM     14  H9  <0> d           3.009   1.069   2.634  0.00  0.00     0.027 H 
ATOM     15  H10 <0> d           3.897   2.610   2.688  0.00  0.00     0.027 H 
ATOM     16  H11 <0> d           2.168   2.594   2.268  0.00  0.00     0.027 H 
ENDBRANCH  10  13
ENDBRANCH   1  10
BRANCH   1  17
ATOM     17  O1  <0> d           1.139   1.891   0.001  0.00  0.00    -0.316 OA
BRANCH  17  18
ATOM     18  C6  <0> d          -0.014   1.204   0.009  0.00  0.00     0.258 C 
ATOM     19  O2  <0> d           0.002  -0.004   0.002  0.00  0.00    -0.265 OA
BRANCH  18  20
ATOM     20  C7  <0> d          -1.329   1.940   0.019  0.00  0.00     0.013 C 
ATOM     21  H12 <0> d          -1.391   2.561   0.913  0.00  0.00     0.047 H 
ATOM     22  H13 <0> d          -1.400   2.570  -0.867  0.00  0.00     0.047 H 
BRANCH  20  23
ATOM     23  C8  <0> d          -2.479   0.930   0.019  0.00  0.00    -0.068 C 
ATOM     24  H14 <0> d          -2.408   0.299   0.905  0.00  0.00     0.028 H 
ATOM     25  H15 <0> d          -3.430   1.462   0.026  0.00  0.00     0.028 H 
ATOM     26  H16 <0> d          -2.417   0.309  -0.875  0.00  0.00     0.028 H 
ENDBRANCH  20  23
ENDBRANCH  18  20
ENDBRANCH  17  18
ENDBRANCH   1  17
TORSDOF 8
