REMARK  3 active torsions:
REMARK  status: ('A' for Active; 'I' for Inactive)
REMARK    1  A    between atoms: C1_1  and  C2_2 
REMARK    2  A    between atoms: C5_6  and  C8_11 
REMARK    3  A    between atoms: C6_7  and  C7_8 
ROOT
ATOM      1  C2  <0> d           1.160   2.039   0.002  0.00  0.00    -0.027 A 
ATOM      2  C3  <0> d          -0.016   1.314   0.009  0.00  0.00     0.009 A 
ATOM      3  N1  <0> d           0.002  -0.004   0.002  0.00  0.00    -0.272 NA
ATOM      4  C4  <0> d           1.129  -0.689  -0.013  0.00  0.00     0.009 A 
ATOM      5  C5  <0> d           2.350  -0.044  -0.021  0.00  0.00    -0.027 A 
ATOM      6  C6  <0> d           2.379   1.355  -0.014  0.00  0.00     0.055 A 
ATOM      7  H4  <0> d          -0.963   1.834   0.017  0.00  0.00     0.115 H 
ATOM      8  H5  <0> d           1.096  -1.768  -0.018  0.00  0.00     0.115 H 
ENDROOT
BRANCH   1   9
ATOM      9  C1  <0> d           1.129   3.546   0.010  0.00  0.00    -0.049 C 
ATOM     10  H1  <0> d           0.085   3.891   0.022  0.00  0.00     0.033 H 
ATOM     11  H2  <0> d           1.631   3.928  -0.891  0.00  0.00     0.033 H 
ATOM     12  H3  <0> d           1.649   3.919   0.905  0.00  0.00     0.033 H 
ENDBRANCH   1   9
BRANCH   6  13
ATOM     13  C7  <0> d           3.664   2.089  -0.023  0.00  0.00     0.210 C 
ATOM     14  O1  <0> d           4.181   2.396  -1.079  0.00  0.00    -0.644 OA
ATOM     15  O2  <0> d           4.261   2.417   1.139  0.00  0.00    -0.644 OA
ENDBRANCH   6  13
BRANCH   5  16
ATOM     16  C8  <0> d           3.633  -0.835  -0.039  0.00  0.00    -0.049 C 
ATOM     17  H6  <0> d           4.489  -0.145  -0.043  0.00  0.00     0.033 H 
ATOM     18  H7  <0> d           3.663  -1.464  -0.941  0.00  0.00     0.033 H 
ATOM     19  H8  <0> d           3.681  -1.474   0.855  0.00  0.00     0.033 H 
ENDBRANCH   5  16
TORSDOF 3
