REMARK  0 active torsions:
REMARK  status: ('A' for Active; 'I' for Inactive)
ROOT
ATOM      1  C1  <0> d          -0.017   1.405   0.010  0.00  0.00    -0.050 A 
ATOM      2  C2  <0> d           1.141   2.098   0.002  0.00  0.00    -0.042 A 
ATOM      3  S1  <0> d           2.355   0.790  -0.016  0.00  0.00    -0.104 SA
ATOM      4  C3  <0> d           1.234  -0.582  -0.013  0.00  0.00     0.018 A 
ATOM      5  C4  <0> d           0.002  -0.004   0.002  0.00  0.00     0.048 A 
ATOM      6  N1  <0> d          -0.976  -1.036   0.006  0.00  0.00    -0.326 N 
ATOM      7  C5  <0> d          -0.435  -2.263  -0.006  0.00  0.00     0.227 A 
ATOM      8  O1  <0> d          -1.032  -3.319  -0.006  0.00  0.00    -0.273 OA
ATOM      9  C6  <0> d           1.067  -2.070  -0.019  0.00  0.00     0.042 A 
ATOM     10  H1  <0> d          -0.960   1.931   0.026  0.00  0.00     0.087 H 
ATOM     11  H2  <0> d           1.293   3.167   0.007  0.00  0.00     0.095 H 
ATOM     12  H3  <0> d          -1.932  -0.870   0.016  0.00  0.00     0.169 HD
ATOM     13  H4  <0> d           1.501  -2.500  -0.922  0.00  0.00     0.055 H 
ATOM     14  H5  <0> d           1.518  -2.510   0.871  0.00  0.00     0.055 H 
ENDROOT
TORSDOF 0
