REMARK  3 active torsions:
REMARK  status: ('A' for Active; 'I' for Inactive)
REMARK    1  A    between atoms: C1_1  and  C2_2 
REMARK       I    between atoms: C2_2  and  N1_4 
REMARK    2  A    between atoms: N1_4  and  C3_5 
REMARK    3  A    between atoms: C3_5  and  C8_10 
ROOT
ATOM      1  C8  <0> d          -0.691   2.023   1.226  0.00  0.00    -0.086 C 
ATOM      2  C9  <0> d          -1.226   2.413   2.195  0.00  0.00    -0.151 C 
ATOM      3  H13 <0> d          -1.705   2.761   3.062  0.00  0.00     0.166 H 
ENDROOT
BRANCH   1   4
ATOM      4  C3  <0> d          -0.019   1.534   0.011  0.00  0.00     0.095 C 
ATOM      5  C7  <0> d           0.002  -0.004   0.002  0.00  0.00    -0.031 C 
ATOM      6  C6  <0> d           1.486  -0.425  -0.014  0.00  0.00    -0.062 C 
ATOM      7  H11 <0> d          -0.485  -0.389   0.898  0.00  0.00     0.038 H 
ATOM      8  H12 <0> d          -0.502  -0.379  -0.888  0.00  0.00     0.038 H 
ATOM      9  C5  <0> d           2.232   0.792   0.586  0.00  0.00    -0.062 C 
ATOM     10  H9  <0> d           1.639  -1.309   0.604  0.00  0.00     0.033 H 
ATOM     11  H10 <0> d           1.819  -0.610  -1.036  0.00  0.00     0.033 H 
ATOM     12  C4  <0> d           1.453   1.995  -0.001  0.00  0.00    -0.031 C 
ATOM     13  H7  <0> d           2.169   0.786   1.675  0.00  0.00     0.033 H 
ATOM     14  H8  <0> d           3.273   0.806   0.262  0.00  0.00     0.033 H 
ATOM     15  H5  <0> d           1.781   2.201  -1.020  0.00  0.00     0.038 H 
ATOM     16  H6  <0> d           1.582   2.877   0.627  0.00  0.00     0.038 H 
BRANCH   4  17
ATOM     17  N1  <0> d          -0.710   2.034  -1.181  0.00  0.00    -0.341 N 
ATOM     18  C2  <0> d          -0.844   3.360  -1.376  0.00  0.00     0.214 C 
ATOM     19  O1  <0> d          -0.393   4.141  -0.565  0.00  0.00    -0.274 OA
ATOM     20  H4  <0> d          -1.071   1.409  -1.829  0.00  0.00     0.164 HD
BRANCH  18  21
ATOM     21  C1  <0> d          -1.556   3.874  -2.601  0.00  0.00    -0.003 C 
ATOM     22  H1  <0> d          -1.889   3.031  -3.207  0.00  0.00     0.040 H 
ATOM     23  H2  <0> d          -2.418   4.468  -2.299  0.00  0.00     0.040 H 
ATOM     24  H3  <0> d          -0.874   4.494  -3.184  0.00  0.00     0.040 H 
ENDBRANCH  18  21
ENDBRANCH   4  17
ENDBRANCH   1   4
TORSDOF 3
