REMARK  3 active torsions:
REMARK  status: ('A' for Active; 'I' for Inactive)
REMARK    1  A    between atoms: C1_1  and  C2_2 
REMARK    2  A    between atoms: C4_5  and  N3_10 
REMARK    3  A    between atoms: C5_6  and  C6_8 
ROOT
ATOM      1  C2  <0> d          -2.484   3.906   0.135  0.00  0.00     0.122 A 
ATOM      2  N1  <0> d          -3.644   3.281   0.046  0.00  0.00    -0.244 NA
ATOM      3  C3  <0> d          -3.706   1.968  -0.063  0.00  0.00     0.032 A 
ATOM      4  C4  <0> d          -2.517   1.232  -0.085  0.00  0.00     0.079 A 
ATOM      5  C5  <0> d          -1.305   1.933   0.012  0.00  0.00     0.162 A 
ATOM      6  N2  <0> d          -1.339   3.260   0.125  0.00  0.00    -0.225 NA
ATOM      7  H4  <0> d          -4.661   1.469  -0.135  0.00  0.00     0.118 H 
ENDROOT
BRANCH   1   8
ATOM      8  C1  <0> d          -2.472   5.407   0.259  0.00  0.00    -0.019 C 
ATOM      9  H1  <0> d          -2.503   5.686   1.312  0.00  0.00     0.037 H 
ATOM     10  H2  <0> d          -1.563   5.802  -0.195  0.00  0.00     0.037 H 
ATOM     11  H3  <0> d          -3.342   5.821  -0.252  0.00  0.00     0.037 H 
ENDBRANCH   1   8
BRANCH   5  12
ATOM     12  C6  <0> d          -0.014   1.211  -0.005  0.00  0.00     0.231 C 
ATOM     13  O1  <0> d           0.003  -0.003  -0.003  0.00  0.00    -0.643 OA
ATOM     14  O2  <0> d           1.143   1.901  -0.029  0.00  0.00    -0.643 OA
ENDBRANCH   5  12
BRANCH   4  15
ATOM     15  N3  <0> d          -2.535  -0.151  -0.198  0.00  0.00    -0.396 N 
ATOM     16  H5  <0> d          -1.708  -0.654  -0.134  0.00  0.00     0.156 HD
ATOM     17  H6  <0> d          -3.375  -0.615  -0.341  0.00  0.00     0.156 HD
ENDBRANCH   4  15
TORSDOF 3
