REMARK  3 active torsions:
REMARK  status: ('A' for Active; 'I' for Inactive)
REMARK    1  A    between atoms: C1_1  and  O1_2 
REMARK    2  A    between atoms: O1_2  and  C2_3 
REMARK    3  A    between atoms: C2_3  and  C3_4 
ROOT
ATOM      1  C3  <0> d          -0.048   3.850   0.023  0.00  0.00    -0.033 A 
ATOM      2  C4  <0> d           1.155   3.167   0.008  0.00  0.00    -0.075 A 
ATOM      3  C5  <0> d           1.172   1.783   0.000  0.00  0.00    -0.081 A 
ATOM      4  C6  <0> d          -0.013   1.076   0.008  0.00  0.00    -0.063 A 
ATOM      5  C7  <0> d          -1.230   1.759   0.017  0.00  0.00     0.045 A 
ATOM      6  C8  <0> d          -1.240   3.155   0.031  0.00  0.00    -0.055 A 
ATOM      7  C9  <0> d          -2.463   1.031   0.019  0.00  0.00     0.099 C 
ATOM      8  N1  <0> d          -3.442   0.454   0.021  0.00  0.00    -0.191 NA
ATOM      9  H6  <0> d           2.085   3.716   0.001  0.00  0.00     0.084 H 
ATOM     10  H7  <0> d           2.114   1.256  -0.011  0.00  0.00     0.083 H 
ATOM     11  H8  <0> d           0.002  -0.004   0.002  0.00  0.00     0.085 H 
ATOM     12  H9  <0> d          -2.178   3.690   0.043  0.00  0.00     0.086 H 
ENDROOT
BRANCH   1  13
ATOM     13  C2  <0> d          -0.057   5.357   0.031  0.00  0.00     0.043 C 
ATOM     14  H4  <0> d           0.844   5.726   0.543  0.00  0.00     0.081 H 
ATOM     15  H5  <0> d          -0.952   5.716   0.560  0.00  0.00     0.081 H 
BRANCH  13  16
ATOM     16  O1  <0> d          -0.072   5.841  -1.313  0.00  0.00    -0.391 OA
BRANCH  16  17
ATOM     17  C1  <0> d          -0.081   7.266  -1.419  0.00  0.00     0.004 C 
ATOM     18  H1  <0> d          -0.093   7.555  -2.480  0.00  0.00     0.066 H 
ATOM     19  H2  <0> d           0.819   7.675  -0.937  0.00  0.00     0.066 H 
ATOM     20  H3  <0> d          -0.977   7.665  -0.920  0.00  0.00     0.066 H 
ENDBRANCH  16  17
ENDBRANCH  13  16
ENDBRANCH   1  13
TORSDOF 3
