REMARK  3 active torsions:
REMARK  status: ('A' for Active; 'I' for Inactive)
REMARK    1  A    between atoms: C1_1  and  C2_2 
REMARK    2  A    between atoms: C2_2  and  C9_13 
REMARK    3  A    between atoms: C7_9  and  O1_12 
ROOT
ATOM      1  C2  <0> d           0.002  -0.004   0.002  0.00  0.00    -0.038 C 
ATOM      2  C3  <0> d           0.998  -0.573  -1.069  0.00  0.00    -0.045 C 
ATOM      3  H1  <0> d           0.773  -0.338  -2.109  0.00  0.00     0.041 H 
ATOM      4  C4  <0> d           2.352  -0.025  -0.524  0.00  0.00    -0.060 C 
ATOM      5  C5  <0> d           2.187  -0.036   1.013  0.00  0.00    -0.058 C 
ATOM      6  C6  <0> d           0.750  -0.590   1.252  0.00  0.00    -0.022 C 
ATOM      7  H2  <0> d           0.309  -0.368   2.224  0.00  0.00     0.045 H 
ATOM      8  C7  <0> d           0.840  -2.095   0.855  0.00  0.00     0.040 C 
ATOM      9  H3  <0> d          -0.074  -2.617   1.135  0.00  0.00     0.083 H 
ATOM     10  C8  <0> d           0.989  -2.087  -0.695  0.00  0.00    -0.037 C 
ATOM     11  H7  <0> d           3.174  -0.676  -0.822  0.00  0.00     0.033 H 
ATOM     12  H8  <0> d           2.522   0.991  -0.881  0.00  0.00     0.033 H 
ATOM     13  H9  <0> d           2.928  -0.692   1.470  0.00  0.00     0.033 H 
ATOM     14  H10 <0> d           2.276   0.975   1.412  0.00  0.00     0.033 H 
ATOM     15  H11 <0> d           0.153  -2.593  -1.179  0.00  0.00     0.037 H 
ATOM     16  H12 <0> d           1.932  -2.554  -0.979  0.00  0.00     0.037 H 
ENDROOT
BRANCH   1  17
ATOM     17  C1  <0> d          -0.019   1.526   0.010  0.00  0.00    -0.069 C 
ATOM     18  H4  <0> d           1.004   1.903   0.003  0.00  0.00     0.028 H 
ATOM     19  H5  <0> d          -0.546   1.887  -0.873  0.00  0.00     0.028 H 
ATOM     20  H6  <0> d          -0.529   1.877   0.907  0.00  0.00     0.028 H 
ENDBRANCH   1  17
BRANCH   1  21
ATOM     21  C9  <0> d          -1.404  -0.588  -0.152  0.00  0.00    -0.069 C 
ATOM     22  H14 <0> d          -1.844  -0.236  -1.085  0.00  0.00     0.028 H 
ATOM     23  H15 <0> d          -1.345  -1.677  -0.166  0.00  0.00     0.028 H 
ATOM     24  H16 <0> d          -2.023  -0.268   0.686  0.00  0.00     0.028 H 
ENDBRANCH   1  21
BRANCH   8  25
ATOM     25  O1  <0> d           1.973  -2.706   1.475  0.00  0.00    -0.395 OA
ATOM     26  H13 <0> d           2.079  -3.644   1.263  0.00  0.00     0.210 HD
ENDBRANCH   8  25
TORSDOF 3
