REMARK  2 active torsions:
REMARK  status: ('A' for Active; 'I' for Inactive)
REMARK    1  A    between atoms: C1_1  and  C2_2 
REMARK    2  A    between atoms: C7_7  and  C8_8 
ROOT
ATOM      1  C2  <0> d          -0.048   1.303   0.173  0.00  0.00    -0.055 A 
ATOM      2  C3  <0> d           0.047  -0.068  -0.060  0.00  0.00    -0.074 A 
ATOM      3  C4  <0> d           1.254  -0.667  -0.243  0.00  0.00    -0.054 A 
ATOM      4  C5  <0> d           2.430   0.102  -0.196  0.00  0.00     0.067 A 
ATOM      5  C6  <0> d           2.332   1.496   0.042  0.00  0.00    -0.001 A 
ATOM      6  C7  <0> d           1.068   2.081   0.226  0.00  0.00    -0.043 A 
ATOM      7  C9  <0> d           3.509   2.265   0.089  0.00  0.00    -0.069 A 
ATOM      8  C10 <0> d           4.703   1.628  -0.100  0.00  0.00    -0.065 A 
ATOM      9  C11 <0> d           4.729   0.255  -0.330  0.00  0.00     0.003 A 
ATOM     10  N1  <0> d           3.630  -0.459  -0.372  0.00  0.00    -0.260 NA
ATOM     11  H4  <0> d          -0.853  -0.663  -0.098  0.00  0.00     0.084 H 
ATOM     12  H5  <0> d           1.310  -1.731  -0.423  0.00  0.00     0.087 H 
ATOM     13  H9  <0> d           3.470   3.329   0.268  0.00  0.00     0.085 H 
ATOM     14  H10 <0> d           5.626   2.189  -0.071  0.00  0.00     0.085 H 
ATOM     15  H11 <0> d           5.680  -0.236  -0.477  0.00  0.00     0.114 H 
ENDROOT
BRANCH   1  16
ATOM     16  C1  <0> d          -1.403   1.933   0.364  0.00  0.00    -0.051 C 
ATOM     17  H1  <0> d          -1.623   2.007   1.429  0.00  0.00     0.033 H 
ATOM     18  H2  <0> d          -1.406   2.930  -0.077  0.00  0.00     0.033 H 
ATOM     19  H3  <0> d          -2.161   1.319  -0.122  0.00  0.00     0.033 H 
ENDBRANCH   1  16
BRANCH   6  20
ATOM     20  C8  <0> d           0.949   3.562   0.479  0.00  0.00    -0.050 C 
ATOM     21  H6  <0> d           0.923   3.746   1.553  0.00  0.00     0.033 H 
ATOM     22  H7  <0> d           1.805   4.076   0.043  0.00  0.00     0.033 H 
ATOM     23  H8  <0> d           0.031   3.935   0.024  0.00  0.00     0.033 H 
ENDBRANCH   6  20
TORSDOF 2
