REMARK  0 active torsions:
REMARK  status: ('A' for Active; 'I' for Inactive)
ROOT
ATOM      1  C1  <0> d           1.096   1.921   0.002  0.00  0.00    -0.066 A 
ATOM      2  C2  <0> d          -0.013   1.076   0.008  0.00  0.00    -0.052 A 
ATOM      3  C3  <0> d          -1.141   1.888   0.017  0.00  0.00     0.080 A 
ATOM      4  N1  <0> d          -0.708   3.191   0.025  0.00  0.00    -0.353 N 
ATOM      5  C4  <0> d           0.647   3.199   0.012  0.00  0.00    -0.020 A 
ATOM      6  C5  <0> d          -1.857   4.107   0.040  0.00  0.00     0.006 A 
ATOM      7  C6  <0> d          -3.103   3.209   0.047  0.00  0.00     0.011 A 
ATOM      8  C7  <0> d          -2.553   1.802   0.035  0.00  0.00     0.177 A 
ATOM      9  O1  <0> d          -3.206   0.778   0.036  0.00  0.00    -0.291 OA
ATOM     10  H1  <0> d           2.131   1.611  -0.009  0.00  0.00     0.085 H 
ATOM     11  H2  <0> d           0.002  -0.004   0.002  0.00  0.00     0.087 H 
ATOM     12  H3  <0> d           1.268   4.082   0.011  0.00  0.00     0.111 H 
ATOM     13  H4  <0> d          -1.833   4.726   0.937  0.00  0.00     0.065 H 
ATOM     14  H5  <0> d          -1.849   4.736  -0.851  0.00  0.00     0.065 H 
ATOM     15  H6  <0> d          -3.647   3.399   0.865  0.00  0.00     0.047 H 
ATOM     16  H7  <0> d          -3.709   3.390  -0.841  0.00  0.00     0.047 H 
ENDROOT
TORSDOF 0
