REMARK  1 active torsions:
REMARK  status: ('A' for Active; 'I' for Inactive)
REMARK    1  A    between atoms: C1_1  and  N1_2 
ROOT
ATOM      1  N1  <0> d          -0.778   1.600  -1.141  0.00  0.00    -0.330 N 
ATOM      2  C2  <0> d          -0.013   1.086   0.008  0.00  0.00     0.073 A 
ATOM      3  C3  <0> d          -0.778   1.602   1.210  0.00  0.00     0.243 A 
ATOM      4  O1  <0> d          -0.511   1.425   2.380  0.00  0.00    -0.271 OA
ATOM      5  N2  <0> d          -1.819   2.299   0.704  0.00  0.00    -0.278 N 
ATOM      6  C4  <0> d          -1.813   2.295  -0.634  0.00  0.00     0.325 A 
ATOM      7  O2  <0> d          -2.648   2.856  -1.315  0.00  0.00    -0.247 OA
ATOM      8  H4  <0> d           0.011  -0.013  -0.030  0.00  0.00     0.079 H 
ATOM      9  H5  <0> d           1.015   1.477  -0.032  0.00  0.00     0.079 H 
ATOM     10  H6  <0> d          -2.539   2.781   1.381  0.00  0.00     0.173 HD
ENDROOT
BRANCH   1  11
ATOM     11  C1  <0> d          -0.473   1.394  -2.559  0.00  0.00    -0.014 C 
ATOM     12  H1  <0> d           0.437   0.783  -2.653  0.00  0.00     0.056 H 
ATOM     13  H2  <0> d          -0.313   2.368  -3.044  0.00  0.00     0.056 H 
ATOM     14  H3  <0> d          -1.314   0.877  -3.043  0.00  0.00     0.056 H 
ENDBRANCH   1  11
TORSDOF 1
