REMARK  2 active torsions:
REMARK  status: ('A' for Active; 'I' for Inactive)
REMARK    1  A    between atoms: C5_6  and  C6_7 
REMARK    2  A    between atoms: C6_7  and  O1_8 
ROOT
ATOM      1  C1  <0> d           1.163   2.039   0.002  0.00  0.00    -0.058 A 
ATOM      2  C2  <0> d          -0.016   1.311   0.009  0.00  0.00     0.004 A 
ATOM      3  N1  <0> d           0.002  -0.004   0.002  0.00  0.00    -0.250 NA
ATOM      4  C3  <0> d           1.142  -0.685  -0.013  0.00  0.00     0.136 A 
ATOM      5  C4  <0> d           2.366  -0.017  -0.021  0.00  0.00    -0.037 A 
ATOM      6  C5  <0> d           2.376   1.368  -0.014  0.00  0.00    -0.031 A 
ATOM      7  C7  <0> d           1.115  -2.117  -0.020  0.00  0.00     0.119 C 
ATOM      8  N2  <0> d           1.093  -3.252  -0.026  0.00  0.00    -0.190 NA
ATOM      9  H1  <0> d           1.137   3.119   0.008  0.00  0.00     0.086 H 
ATOM     10  H2  <0> d          -0.963   1.831   0.017  0.00  0.00     0.114 H 
ATOM     11  H3  <0> d           3.293  -0.571  -0.033  0.00  0.00     0.089 H 
ENDROOT
BRANCH   6  12
ATOM     12  C6  <0> d           3.677   2.129  -0.023  0.00  0.00     0.041 C 
ATOM     13  H4  <0> d           3.545   3.087   0.502  0.00  0.00     0.081 H 
ATOM     14  H5  <0> d           4.452   1.537   0.485  0.00  0.00     0.081 H 
BRANCH  12  15
ATOM     15  O1  <0> d           4.075   2.377  -1.373  0.00  0.00    -0.396 OA
ATOM     16  H6  <0> d           5.006   2.924  -1.580  0.00  0.00     0.209 HD
ENDBRANCH  12  15
ENDBRANCH   6  12
TORSDOF 2
