REMARK  5 active torsions:
REMARK  status: ('A' for Active; 'I' for Inactive)
REMARK    1  A    between atoms: C1_1  and  C2_2 
REMARK    2  A    between atoms: C2_2  and  C3_3 
REMARK    3  A    between atoms: C5_5  and  C9_11 
REMARK    4  A    between atoms: C6_7  and  C8_10 
REMARK    5  A    between atoms: C7_8  and  O1_9 
ROOT
ATOM      1  C3  <0> d          -0.653   2.253   3.543  0.00  0.00    -0.021 A 
ATOM      2  C4  <0> d          -2.023   2.450   3.471  0.00  0.00    -0.051 A 
ATOM      3  C5  <0> d          -2.680   2.197   2.281  0.00  0.00     0.031 A 
ATOM      4  N1  <0> d          -2.020   1.777   1.220  0.00  0.00    -0.256 NA
ATOM      5  C6  <0> d          -0.718   1.572   1.248  0.00  0.00     0.064 A 
ATOM      6  C7  <0> d           0.010   1.804   2.406  0.00  0.00     0.096 A 
ATOM      7  H6  <0> d          -2.571   2.799   4.334  0.00  0.00     0.087 H 
ENDROOT
BRANCH   1   8
ATOM      8  C2  <0> d           0.099   2.518   4.822  0.00  0.00    -0.042 C 
ATOM      9  H4  <0> d          -0.581   2.423   5.669  0.00  0.00     0.039 H 
ATOM     10  H5  <0> d           0.909   1.796   4.923  0.00  0.00     0.039 H 
BRANCH   8  11
ATOM     11  C1  <0> d           0.678   3.933   4.789  0.00  0.00    -0.073 C 
ATOM     12  H1  <0> d           1.358   4.028   3.942  0.00  0.00     0.028 H 
ATOM     13  H2  <0> d          -0.132   4.655   4.688  0.00  0.00     0.028 H 
ATOM     14  H3  <0> d           1.222   4.125   5.714  0.00  0.00     0.028 H 
ENDBRANCH   8  11
ENDBRANCH   1   8
BRANCH   6  15
ATOM     15  O1  <0> d           1.353   1.597   2.428  0.00  0.00    -0.358 OA
ATOM     16  H7  <0> d           1.875   2.373   2.183  0.00  0.00     0.217 HD
ENDBRANCH   6  15
BRANCH   5  17
ATOM     17  C8  <0> d          -0.013   1.086   0.008  0.00  0.00    -0.033 C 
ATOM     18  H8  <0> d           0.002  -0.004   0.002  0.00  0.00     0.035 H 
ATOM     19  H9  <0> d           1.010   1.463   0.000  0.00  0.00     0.035 H 
ATOM     20  H10 <0> d          -0.540   1.447  -0.875  0.00  0.00     0.035 H 
ENDBRANCH   5  17
BRANCH   3  21
ATOM     21  C9  <0> d          -4.169   2.409   2.195  0.00  0.00    -0.035 C 
ATOM     22  H11 <0> d          -4.373   3.433   1.881  0.00  0.00     0.035 H 
ATOM     23  H12 <0> d          -4.593   1.715   1.469  0.00  0.00     0.035 H 
ATOM     24  H13 <0> d          -4.619   2.232   3.172  0.00  0.00     0.035 H 
ENDBRANCH   3  21
TORSDOF 5
