REMARK  4 active torsions:
REMARK  status: ('A' for Active; 'I' for Inactive)
REMARK    1  A    between atoms: C1_1  and  C2_2 
REMARK    2  A    between atoms: C2_2  and  C3_3 
REMARK    3  A    between atoms: C2_2  and  C4_4 
REMARK    4  A    between atoms: C7_7  and  O1_10 
ROOT
ATOM      1  C4  <0> d          -2.188   1.063  -1.221  0.00  0.00    -0.051 C 
ATOM      2  C5  <0> d          -0.753   1.593  -1.232  0.00  0.00    -0.059 C 
ATOM      3  C6  <0> d          -0.013   1.086   0.008  0.00  0.00    -0.041 C 
ATOM      4  C7  <0> d          -0.729   1.579   1.267  0.00  0.00     0.035 C 
ATOM      5  C8  <0> d          -2.164   1.050   1.278  0.00  0.00    -0.041 C 
ATOM      6  C9  <0> d          -2.904   1.556   0.038  0.00  0.00    -0.059 C 
ATOM      7  H8  <0> d          -2.173  -0.037  -1.227  0.00  0.00     0.040 H 
ATOM      8  H9  <0> d          -0.238   1.238  -2.136  0.00  0.00     0.033 H 
ATOM      9  H10 <0> d          -0.768   2.693  -1.225  0.00  0.00     0.033 H 
ATOM     10  H11 <0> d           0.002  -0.014   0.002  0.00  0.00     0.036 H 
ATOM     11  H12 <0> d           1.019   1.466   0.000  0.00  0.00     0.036 H 
ATOM     12  H13 <0> d          -0.187   1.281   2.176  0.00  0.00     0.082 H 
ATOM     13  H14 <0> d          -2.149  -0.050   1.272  0.00  0.00     0.036 H 
ATOM     14  H15 <0> d          -2.679   1.405   2.183  0.00  0.00     0.036 H 
ATOM     15  H16 <0> d          -2.919   2.656   0.044  0.00  0.00     0.033 H 
ATOM     16  H17 <0> d          -3.936   1.176   0.046  0.00  0.00     0.033 H 
ENDROOT
BRANCH   1  17
ATOM     17  C2  <0> d          -2.928   1.570  -2.460  0.00  0.00    -0.058 C 
ATOM     18  H4  <0> d          -2.943   2.670  -2.454  0.00  0.00     0.039 H 
BRANCH  17  19
ATOM     19  C1  <0> d          -2.212   1.077  -3.719  0.00  0.00    -0.073 C 
ATOM     20  H1  <0> d          -1.180   1.457  -3.727  0.00  0.00     0.028 H 
ATOM     21  H2  <0> d          -2.744   1.441  -4.610  0.00  0.00     0.028 H 
ATOM     22  H3  <0> d          -2.197  -0.023  -3.725  0.00  0.00     0.028 H 
ENDBRANCH  17  19
BRANCH  17  23
ATOM     23  C3  <0> d          -4.364   1.040  -2.449  0.00  0.00    -0.073 C 
ATOM     24  H5  <0> d          -4.878   1.395  -1.544  0.00  0.00     0.028 H 
ATOM     25  H6  <0> d          -4.349  -0.060  -2.455  0.00  0.00     0.028 H 
ATOM     26  H7  <0> d          -4.896   1.405  -3.341  0.00  0.00     0.028 H 
ENDBRANCH  17  23
ENDBRANCH   1  17
BRANCH   4  27
ATOM     27  O1  <0> d          -0.748   3.008   1.275  0.00  0.00    -0.396 OA
ATOM     28  H18 <0> d          -1.224   3.547   2.107  0.00  0.00     0.210 HD
ENDBRANCH   4  27
TORSDOF 4
