REMARK  0 active torsions:
REMARK  status: ('A' for Active; 'I' for Inactive)
ROOT
ATOM      1  C1  <0> d           1.224  -0.680  -0.013  0.00  0.00    -0.026 A 
ATOM      2  C2  <0> d           0.002  -0.004   0.002  0.00  0.00     0.049 A 
ATOM      3  C3  <0> d          -0.017   1.392   0.010  0.00  0.00    -0.042 A 
ATOM      4  C4  <0> d           1.171   2.096   0.002  0.00  0.00     0.038 A 
ATOM      5  C5  <0> d           2.379   1.421  -0.013  0.00  0.00    -0.025 A 
ATOM      6  C6  <0> d           2.405   0.036  -0.021  0.00  0.00     0.119 A 
ATOM      7  F1  <0> d           3.589  -0.616  -0.035  0.00  0.00    -0.206 F 
ATOM      8 Cl1  <0> d           1.149   3.832   0.011  0.00  0.00    -0.084 Cl
ATOM      9  C7  <0> d          -1.226  -0.740   0.010  0.00  0.00     0.099 C 
ATOM     10  N1  <0> d          -2.201  -1.323   0.017  0.00  0.00    -0.191 NA
ATOM     11  H1  <0> d           1.245  -1.760  -0.020  0.00  0.00     0.090 H 
ATOM     12  H2  <0> d          -0.959   1.920   0.017  0.00  0.00     0.088 H 
ATOM     13  H3  <0> d           3.306   1.977  -0.018  0.00  0.00     0.090 H 
ENDROOT
TORSDOF 0
