REMARK  4 active torsions:
REMARK  status: ('A' for Active; 'I' for Inactive)
REMARK    1  A    between atoms: C1_1  and  C2_2 
REMARK    2  A    between atoms: C2_2  and  C3_3 
REMARK    3  A    between atoms: C2_2  and  N1_4 
REMARK    4  A    between atoms: C4_5  and  N3_11 
ROOT
ATOM      1  N1  <0> d          -2.103   1.072   1.277  0.00  0.00    -0.270 N 
ATOM      2  C4  <0> d          -3.244   1.833   1.298  0.00  0.00     0.121 A 
ATOM      3  C5  <0> d          -4.316   0.988   1.298  0.00  0.00     0.027 A 
ATOM      4  C6  <0> d          -3.831  -0.328   1.287  0.00  0.00     0.263 A 
ATOM      5  O1  <0> d          -4.508  -1.341   1.288  0.00  0.00    -0.267 OA
ATOM      6  N2  <0> d          -2.484  -0.276   1.274  0.00  0.00    -0.262 N 
ATOM      7  H1  <0> d          -1.884  -1.038   1.265  0.00  0.00     0.190 HD
ATOM      8  H9  <0> d          -5.355   1.281   1.311  0.00  0.00     0.098 H 
ENDROOT
BRANCH   1   9
ATOM      9  C2  <0> d          -0.729   1.579   1.267  0.00  0.00     0.027 C 
ATOM     10  H5  <0> d          -0.744   2.669   1.273  0.00  0.00     0.074 H 
BRANCH   9  11
ATOM     11  C1  <0> d          -0.013   1.086   0.008  0.00  0.00    -0.056 C 
ATOM     12  H2  <0> d           0.002  -0.004   0.002  0.00  0.00     0.030 H 
ATOM     13  H3  <0> d           1.010   1.463   0.000  0.00  0.00     0.030 H 
ATOM     14  H4  <0> d          -0.540   1.447  -0.875  0.00  0.00     0.030 H 
ENDBRANCH   9  11
BRANCH   9  15
ATOM     15  C3  <0> d           0.011   1.072   2.506  0.00  0.00    -0.056 C 
ATOM     16  H6  <0> d           1.034   1.450   2.499  0.00  0.00     0.030 H 
ATOM     17  H7  <0> d          -0.499   1.424   3.403  0.00  0.00     0.030 H 
ATOM     18  H8  <0> d           0.026  -0.018   2.500  0.00  0.00     0.030 H 
ENDBRANCH   9  15
ENDBRANCH   1   9
BRANCH   2  19
ATOM     19  N3  <0> d          -3.298   3.204   1.312  0.00  0.00    -0.384 N 
ATOM     20  H10 <0> d          -2.478   3.721   1.308  0.00  0.00     0.157 HD
ATOM     21  H11 <0> d          -4.156   3.655   1.327  0.00  0.00     0.157 HD
ENDBRANCH   2  19
TORSDOF 4
