REMARK  2 active torsions:
REMARK  status: ('A' for Active; 'I' for Inactive)
REMARK    1  A    between atoms: C1_1  and  C2_2 
REMARK    2  A    between atoms: C6_7  and  O1_8 
ROOT
ATOM      1  C2  <0> d           1.159   2.039   0.002  0.00  0.00    -0.008 A 
ATOM      2  C3  <0> d          -0.016   1.315   0.009  0.00  0.00     0.010 A 
ATOM      3  N1  <0> d           0.002  -0.004   0.002  0.00  0.00    -0.269 NA
ATOM      4  C4  <0> d           1.132  -0.686  -0.012  0.00  0.00     0.042 A 
ATOM      5  C5  <0> d           2.351  -0.035  -0.021  0.00  0.00     0.167 A 
ATOM      6  C6  <0> d           2.373   1.360  -0.013  0.00  0.00     0.113 A 
ATOM      7  F1  <0> d           3.503  -0.739  -0.035  0.00  0.00    -0.202 F 
ATOM      8  H4  <0> d          -0.962   1.835   0.017  0.00  0.00     0.115 H 
ATOM      9  H5  <0> d           1.104  -1.765  -0.018  0.00  0.00     0.119 H 
ENDROOT
BRANCH   1  10
ATOM     10  C1  <0> d           1.128   3.546   0.010  0.00  0.00    -0.047 C 
ATOM     11  H1  <0> d           1.130   3.904   1.039  0.00  0.00     0.033 H 
ATOM     12  H2  <0> d           2.005   3.930  -0.510  0.00  0.00     0.033 H 
ATOM     13  H3  <0> d           0.226   3.893  -0.494  0.00  0.00     0.033 H 
ENDBRANCH   1  10
BRANCH   6  14
ATOM     14  O1  <0> d           3.551   2.037  -0.020  0.00  0.00    -0.357 OA
ATOM     15  H6  <0> d           3.883   2.238  -0.906  0.00  0.00     0.217 HD
ENDBRANCH   6  14
TORSDOF 2
