REMARK  1 active torsions:
REMARK  status: ('A' for Active; 'I' for Inactive)
REMARK    1  A    between atoms: N2_4  and  C4_6 
ROOT
ATOM      1  C1  <0> d          -0.016   1.349   0.009  0.00  0.00    -0.048 A 
ATOM      2  C2  <0> d           1.308   1.797  -0.001  0.00  0.00     0.023 A 
ATOM      3  N1  <0> d           2.094   0.751  -0.014  0.00  0.00    -0.185 NA
ATOM      4  N2  <0> d           1.293  -0.398  -0.012  0.00  0.00    -0.277 N 
ATOM      5  C3  <0> d           0.002  -0.004   0.002  0.00  0.00     0.000 A 
ATOM      6  H1  <0> d          -0.898   1.972   0.025  0.00  0.00     0.087 H 
ATOM      7  H2  <0> d           1.628   2.829   0.002  0.00  0.00     0.117 H 
ATOM      8  H3  <0> d          -0.862  -0.653   0.007  0.00  0.00     0.114 H 
ENDROOT
BRANCH   4   9
ATOM      9  C4  <0> d           1.771  -1.782  -0.025  0.00  0.00     0.034 A 
ATOM     10  C6  <0> d           1.877  -2.481  -1.382  0.00  0.00    -0.042 A 
ATOM     11  C5  <0> d           0.768  -2.873  -0.404  0.00  0.00    -0.042 A 
ATOM     12  H7  <0> d           1.591  -1.910  -2.265  0.00  0.00     0.036 H 
ATOM     13  H8  <0> d           2.697  -3.186  -1.522  0.00  0.00     0.036 H 
ATOM     14  H5  <0> d           0.857  -3.836   0.098  0.00  0.00     0.036 H 
ATOM     15  H6  <0> d          -0.248  -2.561  -0.645  0.00  0.00     0.036 H 
ATOM     16  H4  <0> d           2.521  -2.027   0.727  0.00  0.00     0.075 H 
ENDBRANCH   4   9
TORSDOF 1
