REMARK  4 active torsions:
REMARK  status: ('A' for Active; 'I' for Inactive)
REMARK    1  A    between atoms: C1_1  and  C2_2 
REMARK    2  A    between atoms: C2_2  and  C8_12 
REMARK    3  A    between atoms: C4_5  and  C5_8 
REMARK    4  A    between atoms: C5_8  and  C6_9 
ROOT
ATOM      1  C6  <0> d          -0.018   1.468   0.010  0.00  0.00     0.017 C 
ATOM      2  C7  <0> d           0.002  -0.004   0.002  0.00  0.00     0.059 C 
ATOM      3  N1  <0> d           0.018  -1.140  -0.004  0.00  0.00    -0.197 NA
ATOM      4  H9  <0> d          -0.533   1.823   0.915  0.00  0.00     0.055 H 
ATOM      5  H10 <0> d          -0.550   1.832  -0.881  0.00  0.00     0.055 H 
ENDROOT
BRANCH   1   6
ATOM      6  C5  <0> d           1.417   1.997  -0.001  0.00  0.00    -0.028 C 
ATOM      7  H7  <0> d           1.932   1.643  -0.906  0.00  0.00     0.038 H 
ATOM      8  H8  <0> d           1.950   1.633   0.890  0.00  0.00     0.038 H 
BRANCH   6   9
ATOM      9  C4  <0> d           1.397   3.527   0.008  0.00  0.00     0.063 C 
ATOM     10  C3  <0> d           2.831   4.101   0.123  0.00  0.00     0.047 C 
ATOM     11  O1  <0> d           2.716   5.395  -0.502  0.00  0.00    -0.353 OA
ATOM     12  H5  <0> d           3.573   3.496  -0.419  0.00  0.00     0.078 H 
ATOM     13  H6  <0> d           3.153   4.225   1.167  0.00  0.00     0.078 H 
ATOM     14  C2  <0> d           1.565   5.356  -1.355  0.00  0.00     0.157 C 
ATOM     15  O2  <0> d           0.975   4.047  -1.276  0.00  0.00    -0.348 OA
ATOM     16  H1  <0> d           0.698   3.823   0.804  0.00  0.00     0.086 H 
BRANCH  14  17
ATOM     17  C1  <0> d           0.550   6.405  -0.897  0.00  0.00    -0.026 C 
ATOM     18  H2  <0> d           1.004   7.405  -0.958  0.00  0.00     0.035 H 
ATOM     19  H3  <0> d           0.254   6.200   0.142  0.00  0.00     0.035 H 
ATOM     20  H4  <0> d          -0.337   6.365  -1.546  0.00  0.00     0.035 H 
ENDBRANCH  14  17
BRANCH  14  21
ATOM     21  C8  <0> d           1.984   5.641  -2.798  0.00  0.00    -0.026 C 
ATOM     22  H11 <0> d           2.713   4.885  -3.125  0.00  0.00     0.035 H 
ATOM     23  H12 <0> d           2.440   6.640  -2.857  0.00  0.00     0.035 H 
ATOM     24  H13 <0> d           1.099   5.603  -3.451  0.00  0.00     0.035 H 
ENDBRANCH  14  21
ENDBRANCH   6   9
ENDBRANCH   1   6
TORSDOF 4
