REMARK  2 active torsions:
REMARK  status: ('A' for Active; 'I' for Inactive)
REMARK    1  A    between atoms: C1_1  and  C2_2 
REMARK    2  A    between atoms: C3_3  and  C6_7 
REMARK       I    between atoms: C6_7  and  N1_9 
ROOT
ATOM      1  C2  <0> d           0.002  -0.004   0.002  0.00  0.00    -0.006 A 
ATOM      2  C3  <0> d          -1.073  -0.864   0.002  0.00  0.00     0.044 A 
ATOM      3  C4  <0> d          -0.778  -2.277  -0.007  0.00  0.00    -0.060 A 
ATOM      4  C5  <0> d           0.531  -2.602  -0.014  0.00  0.00    -0.044 A 
ATOM      5  S1  <0> d           1.340  -1.016  -0.017  0.00  0.00    -0.106 SA
ATOM      6  H4  <0> d          -1.556  -3.026  -0.007  0.00  0.00     0.085 H 
ATOM      7  H5  <0> d           0.979  -3.584  -0.021  0.00  0.00     0.095 H 
ENDROOT
BRANCH   2   8
ATOM      8  C6  <0> d          -2.458  -0.367   0.011  0.00  0.00     0.250 C 
ATOM      9  O1  <0> d          -2.674   0.830   0.019  0.00  0.00    -0.268 OA
ATOM     10  N1  <0> d          -3.487  -1.237   0.011  0.00  0.00    -0.366 N 
ATOM     11  H6  <0> d          -3.314  -2.192   0.005  0.00  0.00     0.159 HD
ATOM     12  H7  <0> d          -4.400  -0.909   0.017  0.00  0.00     0.159 HD
ENDBRANCH   2   8
BRANCH   1  13
ATOM     13  C1  <0> d          -0.018   1.503   0.010  0.00  0.00    -0.044 C 
ATOM     14  H1  <0> d           1.004   1.880   0.003  0.00  0.00     0.034 H 
ATOM     15  H2  <0> d          -0.545   1.864  -0.873  0.00  0.00     0.034 H 
ATOM     16  H3  <0> d          -0.529   1.854   0.907  0.00  0.00     0.034 H 
ENDBRANCH   1  13
TORSDOF 2
