REMARK  2 active torsions:
REMARK  status: ('A' for Active; 'I' for Inactive)
REMARK    1  A    between atoms: C1_1  and  C2_2 
REMARK    2  A    between atoms: C8_12  and  C9_14 
ROOT
ATOM      1  C2  <0> d          -0.538   1.755   1.300  0.00  0.00    -0.053 C 
ATOM      2  H1  <0> d          -0.029   1.266   2.165  0.00  0.00     0.040 H 
ATOM      3  C3  <0> d          -0.038   3.216   1.251  0.00  0.00    -0.058 C 
ATOM      4  C4  <0> d           0.912   3.242   0.011  0.00  0.00    -0.049 C 
ATOM      5  H2  <0> d           1.669   4.021   0.004  0.00  0.00     0.040 H 
ATOM      6  C5  <0> d           1.428   1.759  -0.002  0.00  0.00    -0.056 C 
ATOM      7  C6  <0> d          -0.013   1.093   0.008  0.00  0.00    -0.035 C 
ATOM      8  H3  <0> d           0.002  -0.004   0.002  0.00  0.00     0.042 H 
ATOM      9  C7  <0> d          -0.559   1.768  -1.269  0.00  0.00     0.037 C 
ATOM     10  H4  <0> d          -0.045   1.305  -2.145  0.00  0.00     0.064 H 
ATOM     11  C8  <0> d          -0.084   3.236  -1.191  0.00  0.00    -0.038 C 
ATOM     12  H5  <0> d          -0.923   3.901  -0.994  0.00  0.00     0.042 H 
ATOM     13  C10 <0> d          -1.993   1.651  -1.500  0.00  0.00     0.064 C 
ATOM     14  N1  <0> d          -3.111   1.559  -1.679  0.00  0.00    -0.197 NA
ATOM     15  H9  <0> d           0.515   3.463   2.156  0.00  0.00     0.034 H 
ATOM     16  H10 <0> d          -0.870   3.903   1.108  0.00  0.00     0.034 H 
ATOM     17  H11 <0> d           1.982   1.507   0.899  0.00  0.00     0.034 H 
ATOM     18  H12 <0> d           1.970   1.512  -0.909  0.00  0.00     0.034 H 
ENDROOT
BRANCH  11  19
ATOM     19  C9  <0> d           0.630   3.642  -2.481  0.00  0.00    -0.071 C 
ATOM     20  H13 <0> d           1.437   2.939  -2.686  0.00  0.00     0.028 H 
ATOM     21  H14 <0> d          -0.080   3.632  -3.308  0.00  0.00     0.028 H 
ATOM     22  H15 <0> d           1.042   4.645  -2.368  0.00  0.00     0.028 H 
ENDBRANCH  11  19
BRANCH   1  23
ATOM     23  C1  <0> d          -2.032   1.659   1.541  0.00  0.00    -0.072 C 
ATOM     24  H6  <0> d          -2.323   0.610   1.600  0.00  0.00     0.028 H 
ATOM     25  H7  <0> d          -2.282   2.159   2.477  0.00  0.00     0.028 H 
ATOM     26  H8  <0> d          -2.564   2.138   0.720  0.00  0.00     0.028 H 
ENDBRANCH   1  23
TORSDOF 2
