REMARK  2 active torsions:
REMARK  status: ('A' for Active; 'I' for Inactive)
REMARK    1  A    between atoms: C1_1  and  C2_2 
REMARK    2  A    between atoms: C3_3  and  N2_9 
ROOT
ATOM      1  C2  <0> d           1.113   3.192   0.009  0.00  0.00     0.060 A 
ATOM      2  C3  <0> d           1.174   1.805   0.001  0.00  0.00     0.050 A 
ATOM      3  C4  <0> d          -0.013   1.076   0.008  0.00  0.00    -0.051 A 
ATOM      4  C5  <0> d          -1.211   1.769   0.017  0.00  0.00    -0.025 A 
ATOM      5  C6  <0> d          -1.192   3.154   0.031  0.00  0.00     0.210 A 
ATOM      6  N1  <0> d          -0.049   3.815   0.024  0.00  0.00    -0.223 NA
ATOM      7  F1  <0> d          -2.357   3.837   0.047  0.00  0.00    -0.184 F 
ATOM      8  H4  <0> d           0.002  -0.004   0.002  0.00  0.00     0.087 H 
ATOM      9  H5  <0> d          -2.151   1.236   0.018  0.00  0.00     0.090 H 
ENDROOT
BRANCH   1  10
ATOM     10  C1  <0> d           2.389   3.994   0.001  0.00  0.00    -0.033 C 
ATOM     11  H1  <0> d           2.687   4.193  -1.029  0.00  0.00     0.035 H 
ATOM     12  H2  <0> d           2.228   4.938   0.521  0.00  0.00     0.035 H 
ATOM     13  H3  <0> d           3.175   3.432   0.504  0.00  0.00     0.035 H 
ENDBRANCH   1  10
BRANCH   2  14
ATOM     14  N2  <0> d           2.409   1.150  -0.014  0.00  0.00    -0.397 N 
ATOM     15  H6  <0> d           2.444   0.180  -0.020  0.00  0.00     0.156 HD
ATOM     16  H7  <0> d           3.232   1.665  -0.019  0.00  0.00     0.156 HD
ENDBRANCH   2  14
TORSDOF 2
