REMARK  0 active torsions:
REMARK  status: ('A' for Active; 'I' for Inactive)
ROOT
ATOM      1  C1  <0> d           1.403  -0.232   2.038  0.00  0.00    -0.063 C 
ATOM      2  C2  <0> d           0.078  -0.532   1.453  0.00  0.00    -0.057 C 
ATOM      3  C3  <0> d           0.002  -0.004   0.002  0.00  0.00     0.016 C 
ATOM      4  C4  <0> d          -0.018   1.484   0.010  0.00  0.00     0.258 C 
ATOM      5  O1  <0> d          -1.085   2.051   0.018  0.00  0.00    -0.265 OA
ATOM      6  O2  <0> d           1.116   2.229   0.003  0.00  0.00    -0.321 OA
ATOM      7  C5  <0> d           2.235   1.780   0.839  0.00  0.00     0.029 C 
ATOM      8  C6  <0> d           1.711   1.256   2.153  0.00  0.00    -0.045 C 
ATOM      9  H1  <0> d           1.450  -0.673   3.034  0.00  0.00     0.033 H 
ATOM     10  H2  <0> d           2.169  -0.698   1.419  0.00  0.00     0.033 H 
ATOM     11  H3  <0> d          -0.698  -0.055   2.052  0.00  0.00     0.033 H 
ATOM     12  H4  <0> d          -0.080  -1.611   1.454  0.00  0.00     0.033 H 
ATOM     13  H5  <0> d          -0.906  -0.377  -0.472  0.00  0.00     0.048 H 
ATOM     14  H6  <0> d           0.872  -0.352  -0.556  0.00  0.00     0.048 H 
ATOM     15  H7  <0> d           2.907   2.618   1.025  0.00  0.00     0.075 H 
ATOM     16  H8  <0> d           2.777   0.988   0.323  0.00  0.00     0.075 H 
ATOM     17  H9  <0> d           0.802   1.794   2.420  0.00  0.00     0.036 H 
ATOM     18  H10 <0> d           2.461   1.411   2.929  0.00  0.00     0.036 H 
ENDROOT
TORSDOF 0
