REMARK  1 active torsions:
REMARK  status: ('A' for Active; 'I' for Inactive)
REMARK    1  A    between atoms: C6_7  and  O2_12 
ROOT
ATOM      1  C1  <0> d          -0.060  -2.733   0.013  0.00  0.00    -0.063 A 
ATOM      2  C2  <0> d           1.106  -2.096  -0.376  0.00  0.00    -0.047 A 
ATOM      3  C3  <0> d           1.135  -0.703  -0.379  0.00  0.00     0.096 A 
ATOM      4  C4  <0> d           0.002  -0.004   0.002  0.00  0.00     0.096 A 
ATOM      5  N1  <0> d          -1.091  -0.654   0.367  0.00  0.00    -0.260 NA
ATOM      6  C5  <0> d          -1.151  -1.970   0.383  0.00  0.00     0.003 A 
ATOM      7  C6  <0> d          -0.018   1.504   0.010  0.00  0.00     0.082 C 
ATOM      8  H1  <0> d          -0.598   1.884  -0.844  0.00  0.00     0.093 H 
ATOM      9  C7  <0> d           1.416   2.039  -0.001  0.00  0.00    -0.015 C 
ATOM     10  C8  <0> d           2.196   1.309  -1.101  0.00  0.00     0.029 C 
ATOM     11  O1  <0> d           2.278  -0.074  -0.750  0.00  0.00    -0.349 OA
ATOM     12  H2  <0> d          -0.116  -3.812   0.026  0.00  0.00     0.085 H 
ATOM     13  H3  <0> d           1.975  -2.666  -0.671  0.00  0.00     0.087 H 
ATOM     14  H4  <0> d          -2.064  -2.458   0.688  0.00  0.00     0.114 H 
ATOM     15  H5  <0> d           1.402   3.120  -0.203  0.00  0.00     0.040 H 
ATOM     16  H6  <0> d           1.883   1.855   0.978  0.00  0.00     0.040 H 
ATOM     17  H7  <0> d           1.671   1.423  -2.061  0.00  0.00     0.075 H 
ATOM     18  H8  <0> d           3.205   1.738  -1.182  0.00  0.00     0.075 H 
ENDROOT
BRANCH   7  19
ATOM     19  O2  <0> d          -0.689   1.964   1.185  0.00  0.00    -0.389 OA
ATOM     20  H9  <0> d          -0.803   3.043   1.367  0.00  0.00     0.210 HD
ENDBRANCH   7  19
TORSDOF 1
