REMARK  0 active torsions:
REMARK  status: ('A' for Active; 'I' for Inactive)
ROOT
ATOM      1  C1  <0> d           1.105   3.073   0.008  0.00  0.00     0.019 A 
ATOM      2  C2  <0> d          -0.102   3.749   0.023  0.00  0.00     0.020 A 
ATOM      3  N1  <0> d          -1.238   3.074   0.030  0.00  0.00    -0.251 NA
ATOM      4  C3  <0> d          -1.221   1.752   0.017  0.00  0.00     0.120 A 
ATOM      5  C4  <0> d          -0.013   1.076   0.008  0.00  0.00     0.036 A 
ATOM      6  N2  <0> d           1.123   1.752   0.001  0.00  0.00    -0.269 NA
ATOM      7 Br1  <0> d          -2.846   0.785   0.020  0.00  0.00    -0.028 Br
ATOM      8  H1  <0> d           2.033   3.626   0.002  0.00  0.00     0.117 H 
ATOM      9  H2  <0> d          -0.116   4.829   0.029  0.00  0.00     0.117 H 
ATOM     10  H3  <0> d           0.002  -0.004   0.002  0.00  0.00     0.119 H 
ENDROOT
TORSDOF 0
