REMARK  2 active torsions:
REMARK  status: ('A' for Active; 'I' for Inactive)
REMARK    1  A    between atoms: C1_1  and  O1_2 
REMARK    2  A    between atoms: O1_2  and  C2_3 
ROOT
ATOM      1  C2  <0> d          -0.813   2.907  -1.296  0.00  0.00     0.136 A 
ATOM      2  C3  <0> d          -0.271   3.749  -0.366  0.00  0.00    -0.044 A 
ATOM      3  C4  <0> d          -0.398   5.135  -0.540  0.00  0.00    -0.065 A 
ATOM      4  C5  <0> d          -1.050   5.625  -1.619  0.00  0.00    -0.020 A 
ATOM      5  N1  <0> d          -1.589   4.788  -2.545  0.00  0.00    -0.331 N 
ATOM      6  C6  <0> d          -1.481   3.452  -2.412  0.00  0.00     0.278 A 
ATOM      7  O2  <0> d          -1.965   2.714  -3.255  0.00  0.00    -0.265 OA
ATOM      8  H4  <0> d           0.247   3.352   0.494  0.00  0.00     0.088 H 
ATOM      9  H5  <0> d           0.025   5.812   0.188  0.00  0.00     0.085 H 
ATOM     10  H6  <0> d          -1.144   6.693  -1.746  0.00  0.00     0.111 H 
ATOM     11  H7  <0> d          -2.053   5.158  -3.312  0.00  0.00     0.168 HD
ENDROOT
BRANCH   1  12
ATOM     12  O1  <0> d          -0.704   1.559  -1.150  0.00  0.00    -0.351 OA
BRANCH  12  13
ATOM     13  C1  <0> d          -0.013   1.086   0.008  0.00  0.00     0.011 C 
ATOM     14  H1  <0> d           0.002  -0.004   0.002  0.00  0.00     0.067 H 
ATOM     15  H2  <0> d           1.010   1.463   0.000  0.00  0.00     0.067 H 
ATOM     16  H3  <0> d          -0.523   1.437   0.905  0.00  0.00     0.067 H 
ENDBRANCH  12  13
ENDBRANCH   1  12
TORSDOF 2
