REMARK  1 active torsions:
REMARK  status: ('A' for Active; 'I' for Inactive)
REMARK    1  A    between atoms: C6_6  and  O1_7 
ROOT
ATOM      1  C1  <0> d          -3.411   2.486   0.047  0.00  0.00    -0.049 A 
ATOM      2  C2  <0> d          -2.503   1.467   0.033  0.00  0.00    -0.052 A 
ATOM      3  C3  <0> d          -1.139   1.747   0.016  0.00  0.00     0.062 A 
ATOM      4  C4  <0> d          -0.704   3.086   0.025  0.00  0.00     0.014 A 
ATOM      5  C5  <0> d          -1.646   4.121   0.039  0.00  0.00    -0.037 A 
ATOM      6  C6  <0> d          -2.991   3.815   0.050  0.00  0.00     0.066 A 
ATOM      7  C7  <0> d           0.754   3.044   0.011  0.00  0.00     0.034 A 
ATOM      8  N1  <0> d           1.117   1.793   0.001  0.00  0.00    -0.186 NA
ATOM      9  N2  <0> d          -0.011   0.966   0.007  0.00  0.00    -0.278 N 
ATOM     10  H1  <0> d          -0.101  -0.131   0.006  0.00  0.00     0.189 HD
ATOM     11  H2  <0> d          -4.467   2.261   0.056  0.00  0.00     0.087 H 
ATOM     12  H3  <0> d          -2.843   0.442   0.031  0.00  0.00     0.087 H 
ATOM     13  H4  <0> d          -1.322   5.151   0.041  0.00  0.00     0.089 H 
ATOM     14  H6  <0> d           1.416   3.898   0.009  0.00  0.00     0.118 H 
ENDROOT
BRANCH   6  15
ATOM     15  O1  <0> d          -3.912   4.816   0.064  0.00  0.00    -0.361 OA
ATOM     16  H5  <0> d          -3.583   5.865   0.066  0.00  0.00     0.217 HD
ENDBRANCH   6  15
TORSDOF 1
