REMARK  1 active torsions:
REMARK  status: ('A' for Active; 'I' for Inactive)
REMARK    1  A    between atoms: C3_3  and  O1_10 
ROOT
ATOM      1  C1  <0> d           0.041  -2.105   1.148  0.00  0.00    -0.063 A 
ATOM      2  C2  <0> d           0.023  -0.703   1.176  0.00  0.00    -0.046 A 
ATOM      3  C3  <0> d           0.002  -0.004   0.002  0.00  0.00     0.115 A 
ATOM      4  C4  <0> d          -0.006  -0.713  -1.218  0.00  0.00     0.208 A 
ATOM      5  N1  <0> d          -0.017  -0.342  -2.491  0.00  0.00    -0.106 NA
ATOM      6  N2  <0> d          -0.011  -1.377  -3.254  0.00  0.00    -0.022 NA
ATOM      7  N3  <0> d           0.010  -2.461  -2.556  0.00  0.00    -0.039 NA
ATOM      8  N4  <0> d           0.018  -2.080  -1.207  0.00  0.00    -0.203 N 
ATOM      9  C5  <0> d           0.038  -2.764  -0.032  0.00  0.00     0.008 A 
ATOM     10  H1  <0> d           0.058  -2.661   2.074  0.00  0.00     0.085 H 
ATOM     11  H2  <0> d           0.025  -0.178   2.120  0.00  0.00     0.087 H 
ATOM     12  H3  <0> d           0.052  -3.844  -0.042  0.00  0.00     0.115 H 
ENDROOT
BRANCH   3  13
ATOM     13  O1  <0> d          -0.016   1.355   0.009  0.00  0.00    -0.357 OA
ATOM     14  H4  <0> d           0.862   1.760   0.003  0.00  0.00     0.218 HD
ENDBRANCH   3  13
TORSDOF 1
