REMARK  4 active torsions:
REMARK  status: ('A' for Active; 'I' for Inactive)
REMARK    1  A    between atoms: C1_1  and  C2_2 
REMARK    2  A    between atoms: C5_6  and  C6_9 
REMARK    3  A    between atoms: C6_9  and  O3_11 
REMARK    4  A    between atoms: O3_11  and  C7_12 
ROOT
ATOM      1  C2  <0> d           0.002  -0.004   0.002  0.00  0.00     0.036 C 
ATOM      2  H1  <0> d           0.520  -0.375  -0.883  0.00  0.00     0.082 H 
ATOM      3  C3  <0> d          -1.439  -0.570   0.068  0.00  0.00    -0.038 C 
ATOM      4  C4  <0> d          -1.209  -1.974   0.678  0.00  0.00    -0.030 C 
ATOM      5  C5  <0> d           0.162  -1.864   1.373  0.00  0.00     0.122 C 
ATOM      6  H2  <0> d           0.868  -2.553   0.911  0.00  0.00     0.099 H 
ATOM      7  O1  <0> d           0.622  -0.511   1.204  0.00  0.00    -0.371 OA
ATOM      8  H6  <0> d          -2.067   0.039   0.719  0.00  0.00     0.036 H 
ATOM      9  H7  <0> d          -1.874  -0.645  -0.929  0.00  0.00     0.036 H 
ATOM     10  H8  <0> d          -1.988  -2.207   1.405  0.00  0.00     0.037 H 
ATOM     11  H9  <0> d          -1.180  -2.730  -0.106  0.00  0.00     0.037 H 
ENDROOT
BRANCH   5  12
ATOM     12  C6  <0> d           0.020  -2.182   2.839  0.00  0.00     0.287 C 
ATOM     13  O2  <0> d           0.231  -1.327   3.666  0.00  0.00    -0.262 OA
BRANCH  12  14
ATOM     14  O3  <0> d          -0.340  -3.416   3.226  0.00  0.00    -0.324 OA
BRANCH  14  15
ATOM     15  C7  <0> d          -0.454  -3.647   4.632  0.00  0.00     0.013 C 
ATOM     16  H10 <0> d           0.506  -3.458   5.111  0.00  0.00     0.067 H 
ATOM     17  H11 <0> d          -1.207  -2.978   5.050  0.00  0.00     0.067 H 
ATOM     18  H12 <0> d          -0.751  -4.682   4.806  0.00  0.00     0.067 H 
ENDBRANCH  14  15
ENDBRANCH  12  14
ENDBRANCH   5  12
BRANCH   1  19
ATOM     19  C1  <0> d          -0.019   1.526   0.010  0.00  0.00    -0.052 C 
ATOM     20  H3  <0> d           1.004   1.903   0.003  0.00  0.00     0.030 H 
ATOM     21  H4  <0> d          -0.546   1.887  -0.873  0.00  0.00     0.030 H 
ATOM     22  H5  <0> d          -0.529   1.877   0.907  0.00  0.00     0.030 H 
ENDBRANCH   1  19
TORSDOF 4
