REMARK  0 active torsions:
REMARK  status: ('A' for Active; 'I' for Inactive)
ROOT
ATOM      1  C1  <0> d          -0.016   1.317   0.009  0.00  0.00     0.090 A 
ATOM      2  N1  <0> d           1.085   2.037   0.003  0.00  0.00    -0.218 NA
ATOM      3  C2  <0> d           2.276   1.448  -0.012  0.00  0.00     0.208 A 
ATOM      4  C3  <0> d           2.344   0.041  -0.020  0.00  0.00     0.170 A 
ATOM      5  C4  <0> d           1.140  -0.677  -0.013  0.00  0.00     0.161 A 
ATOM      6  N2  <0> d           0.002  -0.004   0.002  0.00  0.00    -0.227 NA
ATOM      7 Cl1  <0> d           1.143  -2.413  -0.022  0.00  0.00    -0.060 Cl
ATOM      8  N3  <0> d           3.648  -0.307  -0.035  0.00  0.00    -0.123 NA
ATOM      9  N4  <0> d           4.386   0.748  -0.036  0.00  0.00    -0.041 NA
ATOM     10  N5  <0> d           3.570   1.889  -0.022  0.00  0.00    -0.107 NA
ATOM     11  H1  <0> d          -0.969   1.825   0.026  0.00  0.00     0.146 H 
ENDROOT
TORSDOF 0
