REMARK  1 active torsions:
REMARK  status: ('A' for Active; 'I' for Inactive)
REMARK    1  A    between atoms: C6_6  and  N1_7 
ROOT
ATOM      1  C1  <0> d           1.172   2.081   0.002  0.00  0.00    -0.057 A 
ATOM      2  C2  <0> d          -0.017   1.371   0.010  0.00  0.00    -0.072 A 
ATOM      3  C3  <0> d           0.002  -0.004   0.002  0.00  0.00    -0.018 A 
ATOM      4  C4  <0> d           1.217  -0.696  -0.013  0.00  0.00     0.050 A 
ATOM      5  C5  <0> d           2.414   0.020  -0.021  0.00  0.00    -0.041 A 
ATOM      6  C6  <0> d           2.387   1.407  -0.013  0.00  0.00     0.026 A 
ATOM      7  C7  <0> d           0.920  -2.140  -0.018  0.00  0.00     0.294 A 
ATOM      8  O1  <0> d           1.756  -3.021  -0.032  0.00  0.00    -0.259 OA
ATOM      9  O2  <0> d          -0.408  -2.341  -0.007  0.00  0.00    -0.313 OA
ATOM     10  C8  <0> d          -1.082  -1.053   0.007  0.00  0.00     0.054 A 
ATOM     11  H1  <0> d           1.155   3.161   0.008  0.00  0.00     0.086 H 
ATOM     12  H2  <0> d          -0.959   1.898   0.017  0.00  0.00     0.084 H 
ATOM     13  H3  <0> d           3.359  -0.504  -0.033  0.00  0.00     0.088 H 
ATOM     14  H6  <0> d          -1.690  -0.958   0.906  0.00  0.00     0.082 H 
ATOM     15  H7  <0> d          -1.708  -0.948  -0.880  0.00  0.00     0.082 H 
ENDROOT
BRANCH   6  16
ATOM     16  N1  <0> d           3.584   2.127  -0.020  0.00  0.00    -0.399 N 
ATOM     17  H4  <0> d           4.433   1.658  -0.031  0.00  0.00     0.156 HD
ATOM     18  H5  <0> d           3.566   3.097  -0.015  0.00  0.00     0.156 HD
ENDBRANCH   6  16
TORSDOF 1
