REMARK  1 active torsions:
REMARK  status: ('A' for Active; 'I' for Inactive)
REMARK    1  A    between atoms: C3_3  and  C7_8 
ROOT
ATOM      1  C1  <0> d          -0.017   1.377   0.010  0.00  0.00    -0.079 A 
ATOM      2  C2  <0> d           1.171   2.086   0.002  0.00  0.00    -0.071 A 
ATOM      3  C3  <0> d           2.378   1.413  -0.013  0.00  0.00     0.009 A 
ATOM      4  C4  <0> d           2.399   0.030  -0.021  0.00  0.00    -0.034 A 
ATOM      5  C5  <0> d           1.211  -0.679  -0.013  0.00  0.00     0.117 A 
ATOM      6  C6  <0> d           0.002  -0.004   0.002  0.00  0.00    -0.046 A 
ATOM      7  F1  <0> d           1.230  -2.030  -0.022  0.00  0.00    -0.206 F 
ATOM      8  H1  <0> d          -0.959   1.905   0.026  0.00  0.00     0.083 H 
ATOM      9  H2  <0> d           1.155   3.166   0.008  0.00  0.00     0.084 H 
ATOM     10  H3  <0> d           3.343  -0.495  -0.034  0.00  0.00     0.089 H 
ATOM     11  H4  <0> d          -0.926  -0.557   0.008  0.00  0.00     0.088 H 
ENDROOT
BRANCH   3  12
ATOM     12  C7  <0> d           3.672   2.186  -0.021  0.00  0.00     0.234 C 
ATOM     13  F2  <0> d           4.652   1.448  -0.694  0.00  0.00    -0.209 F 
ATOM     14  F3  <0> d           3.479   3.409  -0.672  0.00  0.00    -0.209 F 
ATOM     15  H5  <0> d           3.993   2.367   1.004  0.00  0.00     0.153 H 
ENDBRANCH   3  12
TORSDOF 1
