REMARK  1 active torsions:
REMARK  status: ('A' for Active; 'I' for Inactive)
REMARK    1  A    between atoms: C2_2  and  C4_8 
ROOT
ATOM      1  C1  <0> d           1.078   1.785   0.001  0.00  0.00     0.013 A 
ATOM      2  C2  <0> d           0.610   3.066   0.013  0.00  0.00     0.128 A 
ATOM      3  N1  <0> d          -0.750   3.008   0.025  0.00  0.00    -0.313 N 
ATOM      4  C3  <0> d          -1.121   1.755   0.016  0.00  0.00     0.256 A 
ATOM      5  N2  <0> d          -0.011   0.966   0.007  0.00  0.00    -0.328 N 
ATOM      6  H1  <0> d           0.122  -0.126   0.005  0.00  0.00     0.169 HD
ATOM      7  O1  <0> d          -2.401   1.313   0.019  0.00  0.00    -0.151 OA
ATOM      8  H2  <0> d           2.113   1.479  -0.010  0.00  0.00     0.115 H 
ATOM      9  H3  <0> d          -1.340   3.936   0.041  0.00  0.00     0.170 HD
ENDROOT
BRANCH   2  10
ATOM     10  C4  <0> d           1.427   4.289   0.012  0.00  0.00     0.228 C 
ATOM     11  O2  <0> d           2.640   4.210   0.001  0.00  0.00    -0.643 OA
ATOM     12  O3  <0> d           0.830   5.498   0.024  0.00  0.00    -0.643 OA
ENDBRANCH   2  10
TORSDOF 1
