REMARK  0 active torsions:
REMARK  status: ('A' for Active; 'I' for Inactive)
ROOT
ATOM      1  C1  <0> d          -0.018   1.446   0.010  0.00  0.00    -0.064 A 
ATOM      2  C2  <0> d           1.145   2.118   0.003  0.00  0.00    -0.043 A 
ATOM      3  S1  <0> d           2.375   0.826  -0.016  0.00  0.00    -0.100 SA
ATOM      4  C3  <0> d           1.298  -0.579  -0.013  0.00  0.00     0.035 A 
ATOM      5  C4  <0> d           0.002  -0.004   0.002  0.00  0.00     0.002 A 
ATOM      6  C5  <0> d          -1.062  -0.935   0.007  0.00  0.00     0.035 A 
ATOM      7  N1  <0> d          -0.804  -2.221  -0.003  0.00  0.00    -0.162 NA
ATOM      8  N2  <0> d           0.379  -2.715  -0.017  0.00  0.00    -0.162 NA
ATOM      9  C6  <0> d           1.454  -1.946  -0.022  0.00  0.00     0.041 A 
ATOM     10  H1  <0> d          -0.957   1.979   0.026  0.00  0.00     0.085 H 
ATOM     11  H2  <0> d           1.299   3.187   0.006  0.00  0.00     0.095 H 
ATOM     12  H3  <0> d          -2.085  -0.588   0.019  0.00  0.00     0.118 H 
ATOM     13  H4  <0> d           2.441  -2.385  -0.035  0.00  0.00     0.119 H 
ENDROOT
TORSDOF 0
