REMARK  1 active torsions:
REMARK  status: ('A' for Active; 'I' for Inactive)
REMARK    1  A    between atoms: C4_5  and  C6_7 
REMARK       I    between atoms: C6_7  and  N2_9 
ROOT
ATOM      1  C1  <0> d          -0.017   1.382   0.010  0.00  0.00    -0.079 A 
ATOM      2  C2  <0> d           1.193   2.059   0.002  0.00  0.00    -0.066 A 
ATOM      3  C3  <0> d           2.375   1.338  -0.013  0.00  0.00     0.003 A 
ATOM      4  N1  <0> d           2.364   0.023  -0.020  0.00  0.00    -0.256 NA
ATOM      5  C4  <0> d           1.229  -0.664  -0.013  0.00  0.00     0.123 A 
ATOM      6  C5  <0> d           0.002  -0.004   0.002  0.00  0.00    -0.050 A 
ATOM      7  H1  <0> d          -0.952   1.921   0.026  0.00  0.00     0.083 H 
ATOM      8  H2  <0> d           1.212   3.139   0.007  0.00  0.00     0.085 H 
ATOM      9  H3  <0> d           3.319   1.863  -0.020  0.00  0.00     0.114 H 
ATOM     10  H4  <0> d          -0.921  -0.564   0.008  0.00  0.00     0.087 H 
ENDROOT
BRANCH   5  11
ATOM     11  C6  <0> d           1.266  -2.145  -0.022  0.00  0.00     0.268 C 
ATOM     12  O1  <0> d           0.229  -2.779  -0.015  0.00  0.00    -0.266 OA
ATOM     13  N2  <0> d           2.450  -2.789  -0.036  0.00  0.00    -0.365 N 
ATOM     14  H5  <0> d           3.277  -2.284  -0.042  0.00  0.00     0.159 HD
ATOM     15  H6  <0> d           2.474  -3.759  -0.042  0.00  0.00     0.159 HD
ENDBRANCH   5  11
TORSDOF 1
