REMARK  2 active torsions:
REMARK  status: ('A' for Active; 'I' for Inactive)
REMARK    1  A    between atoms: C2_2  and  C3_3 
REMARK    2  A    between atoms: C6_7  and  C7_9 
ROOT
ATOM      1  C3  <0> d           1.317  -0.740  -0.015  0.00  0.00    -0.032 C 
ATOM      2  H1  <0> d           2.172  -0.083   0.150  0.00  0.00     0.046 H 
ATOM      3  C4  <0> d           1.330  -1.999   0.868  0.00  0.00    -0.058 C 
ATOM      4  C5  <0> d           2.134  -2.680  -0.252  0.00  0.00    -0.058 C 
ATOM      5  C6  <0> d           1.484  -1.677  -1.222  0.00  0.00    -0.032 C 
ATOM      6  H2  <0> d           0.538  -2.023  -1.640  0.00  0.00     0.046 H 
ATOM      7  H6  <0> d           1.890  -1.877   1.795  0.00  0.00     0.034 H 
ATOM      8  H7  <0> d           0.342  -2.433   1.023  0.00  0.00     0.034 H 
ATOM      9  H8  <0> d           3.212  -2.555  -0.154  0.00  0.00     0.034 H 
ATOM     10  H9  <0> d           1.841  -3.715  -0.432  0.00  0.00     0.034 H 
ENDROOT
BRANCH   1  11
ATOM     11  C2  <0> d           0.002  -0.004   0.002  0.00  0.00    -0.107 C 
ATOM     12  C1  <0> d          -0.016   1.306   0.009  0.00  0.00    -0.124 C 
ATOM     13  H3  <0> d           0.912   1.859   0.003  0.00  0.00     0.066 H 
ATOM     14  H4  <0> d          -0.958   1.833   0.017  0.00  0.00     0.066 H 
ATOM     15  H5  <0> d          -0.926  -0.557   0.008  0.00  0.00     0.075 H 
ENDBRANCH   1  11
BRANCH   5  16
ATOM     16  C7  <0> d           2.429  -1.149  -2.270  0.00  0.00    -0.107 C 
ATOM     17  C8  <0> d           2.002  -0.936  -3.490  0.00  0.00    -0.124 C 
ATOM     18  H11 <0> d           0.973  -1.139  -3.745  0.00  0.00     0.066 H 
ATOM     19  H12 <0> d           2.680  -0.558  -4.241  0.00  0.00     0.066 H 
ATOM     20  H10 <0> d           3.459  -0.947  -2.015  0.00  0.00     0.075 H 
ENDBRANCH   5  16
TORSDOF 2
