REMARK  5 active torsions:
REMARK  status: ('A' for Active; 'I' for Inactive)
REMARK    1  A    between atoms: C1_1  and  C2_2 
REMARK    2  A    between atoms: C2_2  and  C3_3 
REMARK    3  A    between atoms: C3_3  and  C4_4 
REMARK    4  A    between atoms: C4_4  and  N1_5 
REMARK       I    between atoms: N1_5  and  C5_6 
REMARK    5  A    between atoms: C5_6  and  C6_8 
ROOT
ATOM      1  C6  <0> d           2.462   0.920  -0.017  0.00  0.00     0.088 C 
ATOM      2  C7  <0> d           3.568   1.892  -0.022  0.00  0.00     0.068 C 
ATOM      3  N2  <0> d           4.421   2.641  -0.026  0.00  0.00    -0.197 NA
ATOM      4  H11 <0> d           2.537   0.289   0.869  0.00  0.00     0.069 H 
ATOM      5  H12 <0> d           2.520   0.299  -0.910  0.00  0.00     0.069 H 
ENDROOT
BRANCH   1   6
ATOM      6  C5  <0> d           1.147   1.655  -0.000  0.00  0.00     0.230 C 
ATOM      7  N1  <0> d          -0.011   0.966   0.007  0.00  0.00    -0.360 N 
ATOM      8  H10 <0> d           0.002  -0.004   0.002  0.00  0.00     0.162 HD
ATOM      9  O1  <0> d           1.130   2.868   0.007  0.00  0.00    -0.273 OA
BRANCH   7  10
ATOM     10  C4  <0> d          -1.290   1.681   0.017  0.00  0.00    -0.005 C 
ATOM     11  H8  <0> d          -1.352   2.302   0.911  0.00  0.00     0.064 H 
ATOM     12  H9  <0> d          -1.360   2.312  -0.869  0.00  0.00     0.064 H 
BRANCH  10  13
ATOM     13  C3  <0> d          -2.439   0.671   0.017  0.00  0.00    -0.051 C 
ATOM     14  H6  <0> d          -2.377   0.050  -0.876  0.00  0.00     0.035 H 
ATOM     15  H7  <0> d          -2.369   0.040   0.903  0.00  0.00     0.035 H 
BRANCH  13  16
ATOM     16  C2  <0> d          -3.774   1.418   0.028  0.00  0.00    -0.067 C 
ATOM     17  H4  <0> d          -3.836   2.039   0.921  0.00  0.00     0.032 H 
ATOM     18  H5  <0> d          -3.845   2.049  -0.859  0.00  0.00     0.032 H 
BRANCH  16  19
ATOM     19  C1  <0> d          -4.923   0.408   0.028  0.00  0.00    -0.076 C 
ATOM     20  H1  <0> d          -4.862  -0.213  -0.866  0.00  0.00     0.027 H 
ATOM     21  H2  <0> d          -4.853  -0.223   0.914  0.00  0.00     0.027 H 
ATOM     22  H3  <0> d          -5.875   0.940   0.035  0.00  0.00     0.027 H 
ENDBRANCH  16  19
ENDBRANCH  13  16
ENDBRANCH  10  13
ENDBRANCH   7  10
ENDBRANCH   1   6
TORSDOF 5
