REMARK  1 active torsions:
REMARK  status: ('A' for Active; 'I' for Inactive)
REMARK    1  A    between atoms: C3_4  and  N3_7 
ROOT
ATOM      1  C1  <0> d          -1.182   3.043   0.030  0.00  0.00     0.019 A 
ATOM      2  C2  <0> d           0.002   3.755   0.022  0.00  0.00     0.021 A 
ATOM      3  N1  <0> d           1.160   3.116   0.008  0.00  0.00    -0.241 NA
ATOM      4  C3  <0> d           1.183   1.790   0.000  0.00  0.00     0.138 A 
ATOM      5  C4  <0> d          -0.013   1.076   0.008  0.00  0.00     0.045 A 
ATOM      6  N2  <0> d          -1.163   1.721   0.017  0.00  0.00    -0.268 NA
ATOM      7  H1  <0> d          -2.126   3.568   0.042  0.00  0.00     0.117 H 
ATOM      8  H2  <0> d          -0.017   4.835   0.028  0.00  0.00     0.117 H 
ATOM      9  H3  <0> d           0.002  -0.004   0.002  0.00  0.00     0.120 H 
ENDROOT
BRANCH   4  10
ATOM     10  N3  <0> d           2.398   1.114  -0.015  0.00  0.00    -0.383 N 
ATOM     11  H4  <0> d           2.414   0.144  -0.021  0.00  0.00     0.157 HD
ATOM     12  H5  <0> d           3.230   1.613  -0.021  0.00  0.00     0.157 HD
ENDBRANCH   4  10
TORSDOF 1
