REMARK  3 active torsions:
REMARK  status: ('A' for Active; 'I' for Inactive)
REMARK    1  A    between atoms: N3_4  and  C2_6 
REMARK    2  A    between atoms: C2_6  and  C3_7 
REMARK    3  A    between atoms: C3_7  and  C4_8 
ROOT
ATOM      1  C2  <0> d          -1.072   3.582   0.027  0.00  0.00     0.045 C 
ATOM      2  H2  <0> d          -0.500   3.848   0.915  0.00  0.00     0.070 H 
ATOM      3  H3  <0> d          -0.508   3.857  -0.865  0.00  0.00     0.070 H 
ENDROOT
BRANCH   1   4
ATOM      4  N3  <0> d          -2.351   4.297   0.037  0.00  0.00    -0.168 N 
ATOM      5  N2  <0> d          -2.997   4.656   1.091  0.00  0.00    -0.047 NA
ATOM      6  N1  <0> d          -4.077   5.262   0.728  0.00  0.00    -0.122 NA
ATOM      7  C1  <0> d          -4.096   5.276  -0.605  0.00  0.00     0.130 A 
ATOM      8  N4  <0> d          -3.006   4.672  -1.008  0.00  0.00    -0.145 NA
ATOM      9  H1  <0> d          -4.862   5.707  -1.233  0.00  0.00     0.152 H 
ENDBRANCH   1   4
BRANCH   1  10
ATOM     10  C3  <0> d          -1.331   2.074   0.020  0.00  0.00     0.034 C 
ATOM     11  H4  <0> d          -1.903   1.808  -0.869  0.00  0.00     0.051 H 
ATOM     12  H5  <0> d          -1.895   1.798   0.911  0.00  0.00     0.051 H 
BRANCH  10  13
ATOM     13  C4  <0> d          -0.016   1.338   0.009  0.00  0.00     0.174 C 
ATOM     14  O1  <0> d           1.022   1.956   0.003  0.00  0.00    -0.648 OA
ATOM     15  O2  <0> d           0.002  -0.004   0.002  0.00  0.00    -0.648 OA
ENDBRANCH  10  13
ENDBRANCH   1  10
TORSDOF 3
