REMARK  0 active torsions:
REMARK  status: ('A' for Active; 'I' for Inactive)
ROOT
ATOM      1  C1  <0> d           3.532   2.623  -2.542  0.00  0.00    -0.044 A 
ATOM      2  C2  <0> d           2.521   2.164  -3.296  0.00  0.00     0.021 A 
ATOM      3  O1  <0> d           1.533   1.700  -2.510  0.00  0.00    -0.317 OA
ATOM      4  C3  <0> d           1.850   1.834  -1.212  0.00  0.00     0.146 A 
ATOM      5  C4  <0> d           3.126   2.423  -1.151  0.00  0.00     0.059 A 
ATOM      6  C5  <0> d           3.686   2.670   0.108  0.00  0.00     0.208 A 
ATOM      7  N1  <0> d           3.000   2.343   1.190  0.00  0.00    -0.251 N 
ATOM      8  N2  <0> d           1.835   1.810   1.135  0.00  0.00    -0.141 NA
ATOM      9  C6  <0> d           1.222   1.532  -0.001  0.00  0.00     0.253 A 
ATOM     10  O2  <0> d          -0.011   0.963   0.007  0.00  0.00    -0.165 OA
ATOM     11  O3  <0> d           4.915   3.236   0.217  0.00  0.00    -0.170 OA
ATOM     12  H1  <0> d           4.458   3.054  -2.892  0.00  0.00     0.088 H 
ATOM     13  H2  <0> d           2.503   2.166  -4.375  0.00  0.00     0.123 H 
ATOM     14  H3  <0> d           3.426   2.526   2.188  0.00  0.00     0.191 HD
ENDROOT
TORSDOF 0
