REMARK  3 active torsions:
REMARK  status: ('A' for Active; 'I' for Inactive)
REMARK    1  A    between atoms: C2_2  and  C5_11 
REMARK    2  A    between atoms: C5_11  and  O3_12 
REMARK    3  A    between atoms: C5_11  and  O4_13 
ROOT
ATOM      1  C1  <0> d          -0.017   1.411   0.010  0.00  0.00     0.009 A 
ATOM      2  C2  <0> d           1.153   2.084   0.002  0.00  0.00     0.073 A 
ATOM      3  N1  <0> d           2.333   1.392  -0.013  0.00  0.00    -0.307 N 
ATOM      4  H1  <0> d           3.174   1.875  -0.018  0.00  0.00     0.170 HD
ATOM      5  C3  <0> d           2.338   0.046  -0.020  0.00  0.00     0.327 A 
ATOM      6  O1  <0> d           3.398  -0.549  -0.033  0.00  0.00    -0.247 OA
ATOM      7  N2  <0> d           1.186  -0.650  -0.012  0.00  0.00    -0.275 N 
ATOM      8  H2  <0> d           1.207  -1.619  -0.016  0.00  0.00     0.173 HD
ATOM      9  C4  <0> d           0.002  -0.004   0.002  0.00  0.00     0.251 A 
ATOM     10  O2  <0> d          -1.041  -0.633   0.009  0.00  0.00    -0.268 OA
ATOM     11  H3  <0> d          -0.956   1.946   0.026  0.00  0.00     0.095 H 
ENDROOT
BRANCH   2  12
ATOM     12  C5  <0> d           1.160   3.591   0.010  0.00  0.00     0.167 C 
ATOM     13  H4  <0> d           0.135   3.959   0.021  0.00  0.00     0.139 H 
BRANCH  12  14
ATOM     14  O3  <0> d           1.847   4.059   1.173  0.00  0.00    -0.366 OA
ATOM     15  H5  <0> d           1.890   5.022   1.243  0.00  0.00     0.213 HD
ENDBRANCH  12  14
BRANCH  12  16
ATOM     16  O4  <0> d           1.825   4.071  -1.161  0.00  0.00    -0.366 OA
ATOM     17  H6  <0> d           2.745   3.781  -1.237  0.00  0.00     0.213 HD
ENDBRANCH  12  16
ENDBRANCH   2  12
TORSDOF 3
