REMARK  2 active torsions:
REMARK  status: ('A' for Active; 'I' for Inactive)
REMARK    1  A    between atoms: C2_2  and  N1_10 
REMARK    2  A    between atoms: C6_6  and  O1_7 
ROOT
ATOM      1  C1  <0> d           1.174   2.094   0.002  0.00  0.00    -0.020 A 
ATOM      2  C2  <0> d           2.384   1.414  -0.013  0.00  0.00     0.067 A 
ATOM      3  C3  <0> d           2.399   0.024  -0.020  0.00  0.00     0.145 A 
ATOM      4  C4  <0> d           1.209  -0.681  -0.013  0.00  0.00    -0.003 A 
ATOM      5  C5  <0> d           0.002  -0.004   0.002  0.00  0.00     0.152 A 
ATOM      6  C6  <0> d          -0.017   1.385   0.010  0.00  0.00     0.106 A 
ATOM      7  F1  <0> d          -1.159  -0.695   0.009  0.00  0.00    -0.203 F 
ATOM      8  F2  <0> d           3.576  -0.638  -0.034  0.00  0.00    -0.204 F 
ATOM      9  H1  <0> d           1.160   3.174   0.008  0.00  0.00     0.091 H 
ATOM     10  H2  <0> d           1.221  -1.761  -0.018  0.00  0.00     0.093 H 
ENDROOT
BRANCH   2  11
ATOM     11  N1  <0> d           3.588   2.128  -0.020  0.00  0.00    -0.397 N 
ATOM     12  H4  <0> d           4.434   1.653  -0.030  0.00  0.00     0.156 HD
ATOM     13  H5  <0> d           3.577   3.098  -0.015  0.00  0.00     0.156 HD
ENDBRANCH   2  11
BRANCH   6  14
ATOM     14  O1  <0> d          -1.204   2.049   0.019  0.00  0.00    -0.358 OA
ATOM     15  H3  <0> d          -1.543   2.236   0.905  0.00  0.00     0.217 HD
ENDBRANCH   6  14
TORSDOF 2
