REMARK  6 active torsions:
REMARK  status: ('A' for Active; 'I' for Inactive)
REMARK    1  A    between atoms: C1_1  and  O1_2 
REMARK    2  A    between atoms: O1_2  and  C2_3 
REMARK    3  A    between atoms: C2_3  and  C3_5 
REMARK    4  A    between atoms: C2_3  and  O4_9 
REMARK    5  A    between atoms: C3_5  and  O3_7 
REMARK    6  A    between atoms: O3_7  and  C4_8 
ROOT
ATOM      1  C2  <0> d          -1.329   1.940   0.019  0.00  0.00     0.213 C 
ATOM      2  H1  <0> d          -1.651   2.123  -1.006  0.00  0.00     0.145 H 
ENDROOT
BRANCH   1   3
ATOM      3  O1  <0> d          -2.312   1.150   0.693  0.00  0.00    -0.357 OA
BRANCH   3   4
ATOM      4  C1  <0> d          -3.645   1.648   0.565  0.00  0.00     0.007 C 
ATOM      5  H2  <0> d          -4.330   0.994   1.104  0.00  0.00     0.066 H 
ATOM      6  H3  <0> d          -3.699   2.654   0.983  0.00  0.00     0.066 H 
ATOM      7  H4  <0> d          -3.923   1.677  -0.488  0.00  0.00     0.066 H 
ENDBRANCH   3   4
ENDBRANCH   1   3
BRANCH   1   8
ATOM      8  C3  <0> d          -0.014   1.204   0.009  0.00  0.00     0.314 C 
ATOM      9  O2  <0> d           0.002  -0.004   0.002  0.00  0.00    -0.260 OA
BRANCH   8  10
ATOM     10  O3  <0> d           1.139   1.891   0.001  0.00  0.00    -0.323 OA
BRANCH  10  11
ATOM     11  C4  <0> d           2.367   1.117  -0.015  0.00  0.00     0.013 C 
ATOM     12  H5  <0> d           2.409   0.484   0.872  0.00  0.00     0.067 H 
ATOM     13  H6  <0> d           2.392   0.493  -0.908  0.00  0.00     0.067 H 
ATOM     14  H7  <0> d           3.223   1.792  -0.019  0.00  0.00     0.067 H 
ENDBRANCH  10  11
ENDBRANCH   8  10
ENDBRANCH   1   8
BRANCH   1  15
ATOM     15  O4  <0> d          -1.172   3.187   0.699  0.00  0.00    -0.363 OA
ATOM     16  H8  <0> d          -0.887   3.100   1.618  0.00  0.00     0.213 HD
ENDBRANCH   1  15
TORSDOF 6
