REMARK  8 active torsions:
REMARK  status: ('A' for Active; 'I' for Inactive)
REMARK    1  A    between atoms: C1_1  and  C2_2 
REMARK    2  A    between atoms: C2_2  and  C3_3 
REMARK    3  A    between atoms: C2_2  and  C4_4 
REMARK    4  A    between atoms: C4_4  and  C5_5 
REMARK    5  A    between atoms: C5_5  and  C6_6 
REMARK    6  A    between atoms: C5_5  and  C7_7 
REMARK    7  A    between atoms: C5_5  and  C8_8 
REMARK    8  A    between atoms: C8_8  and  C9_10 
ROOT
ATOM      1  C5  <0> d           0.987   1.752  -0.105  0.00  0.00     0.013 C 
ENDROOT
BRANCH   1   2
ATOM      2  C4  <0> d           2.051   0.724   0.284  0.00  0.00    -0.050 C 
ATOM      3  H8  <0> d           1.798   0.287   1.250  0.00  0.00     0.035 H 
ATOM      4  H9  <0> d           2.091  -0.061  -0.471  0.00  0.00     0.035 H 
BRANCH   2   5
ATOM      5  C2  <0> d           3.415   1.412   0.377  0.00  0.00    -0.060 C 
ATOM      6  H4  <0> d           3.527   2.109  -0.454  0.00  0.00     0.038 H 
BRANCH   5   7
ATOM      7  C1  <0> d           3.512   2.175   1.700  0.00  0.00    -0.073 C 
ATOM      8  H1  <0> d           2.874   3.058   1.658  0.00  0.00     0.028 H 
ATOM      9  H2  <0> d           3.187   1.530   2.516  0.00  0.00     0.028 H 
ATOM     10  H3  <0> d           4.545   2.480   1.868  0.00  0.00     0.028 H 
ENDBRANCH   5   7
BRANCH   5  11
ATOM     11  C3  <0> d           4.523   0.359   0.312  0.00  0.00    -0.073 C 
ATOM     12  H5  <0> d           4.453  -0.184  -0.630  0.00  0.00     0.028 H 
ATOM     13  H6  <0> d           5.494   0.849   0.378  0.00  0.00     0.028 H 
ATOM     14  H7  <0> d           4.410  -0.338   1.143  0.00  0.00     0.028 H 
ENDBRANCH   5  11
ENDBRANCH   2   5
ENDBRANCH   1   2
BRANCH   1  15
ATOM     15  C6  <0> d           1.339   2.363  -1.462  0.00  0.00    -0.063 C 
ATOM     16  H10 <0> d           0.581   3.096  -1.739  0.00  0.00     0.029 H 
ATOM     17  H11 <0> d           2.311   2.853  -1.399  0.00  0.00     0.029 H 
ATOM     18  H12 <0> d           1.377   1.577  -2.216  0.00  0.00     0.029 H 
ENDBRANCH   1  15
BRANCH   1  19
ATOM     19  C7  <0> d           0.933   2.856   0.953  0.00  0.00    -0.063 C 
ATOM     20  H13 <0> d           1.077   2.419   1.942  0.00  0.00     0.029 H 
ATOM     21  H14 <0> d           1.722   3.583   0.760  0.00  0.00     0.029 H 
ATOM     22  H15 <0> d          -0.036   3.352   0.912  0.00  0.00     0.029 H 
ENDBRANCH   1  19
BRANCH   1  23
ATOM     23  C8  <0> d          -0.357   1.075  -0.193  0.00  0.00     0.131 C 
ATOM     24  O1  <0> d          -0.453  -0.107   0.032  0.00  0.00    -0.298 OA
BRANCH  23  25
ATOM     25  C9  <0> d          -1.579   1.873  -0.567  0.00  0.00    -0.020 C 
ATOM     26  H16 <0> d          -2.007   2.235   0.261  0.00  0.00     0.037 H 
ATOM     27  H17 <0> d          -1.290   2.698  -1.218  0.00  0.00     0.037 H 
ATOM     28  H18 <0> d          -2.287   1.229  -1.090  0.00  0.00     0.037 H 
ENDBRANCH  23  25
ENDBRANCH   1  23
TORSDOF 8
