REMARK  4 active torsions:
REMARK  status: ('A' for Active; 'I' for Inactive)
REMARK    1  A    between atoms: C1_1  and  C2_2 
REMARK    2  A    between atoms: C2_2  and  C3_3 
REMARK    3  A    between atoms: C4_4  and  C8_12 
REMARK    4  A    between atoms: C5_6  and  C7_11 
ROOT
ATOM      1  C3  <0> d           2.337  -0.018  -0.020  0.00  0.00     0.034 A 
ATOM      2  C4  <0> d           1.150  -0.686  -0.013  0.00  0.00     0.044 A 
ATOM      3  N1  <0> d           0.002  -0.004   0.002  0.00  0.00    -0.240 NA
ATOM      4  C5  <0> d          -0.016   1.302   0.009  0.00  0.00     0.103 A 
ATOM      5  N2  <0> d           1.124   2.022   0.002  0.00  0.00    -0.311 N 
ATOM      6  H1  <0> d           1.080   3.121   0.009  0.00  0.00     0.170 HD
ATOM      7  C6  <0> d           2.318   1.392  -0.013  0.00  0.00     0.255 A 
ATOM      8  O1  <0> d           3.358   2.029  -0.019  0.00  0.00    -0.268 OA
ENDROOT
BRANCH   1   9
ATOM      9  C2  <0> d           3.643  -0.770  -0.036  0.00  0.00    -0.037 C 
ATOM     10  H5  <0> d           3.496  -1.770   0.398  0.00  0.00     0.039 H 
ATOM     11  H6  <0> d           4.390  -0.220   0.554  0.00  0.00     0.039 H 
BRANCH   9  12
ATOM     12  C1  <0> d           4.134  -0.909  -1.479  0.00  0.00    -0.072 C 
ATOM     13  H2  <0> d           5.087  -1.457  -1.490  0.00  0.00     0.028 H 
ATOM     14  H3  <0> d           4.281   0.091  -1.913  0.00  0.00     0.028 H 
ATOM     15  H4  <0> d           3.387  -1.459  -2.069  0.00  0.00     0.028 H 
ENDBRANCH   9  12
ENDBRANCH   1   9
BRANCH   2  16
ATOM     16  C8  <0> d           1.132  -2.193  -0.020  0.00  0.00    -0.035 C 
ATOM     17  H10 <0> d           0.090  -2.547  -0.012  0.00  0.00     0.035 H 
ATOM     18  H11 <0> d           1.654  -2.570   0.871  0.00  0.00     0.035 H 
ATOM     19  H12 <0> d           1.637  -2.561  -0.925  0.00  0.00     0.035 H 
ENDBRANCH   2  16
BRANCH   4  20
ATOM     20  C7  <0> d          -1.340   2.021   0.019  0.00  0.00    -0.021 C 
ATOM     21  H7  <0> d          -1.168   3.107   0.024  0.00  0.00     0.037 H 
ATOM     22  H8  <0> d          -1.906   1.735   0.919  0.00  0.00     0.037 H 
ATOM     23  H9  <0> d          -1.914   1.744  -0.878  0.00  0.00     0.037 H 
ENDBRANCH   4  20
TORSDOF 4
