REMARK  2 active torsions:
REMARK  status: ('A' for Active; 'I' for Inactive)
REMARK    1  A    between atoms: C1_1  and  O1_2 
REMARK    2  A    between atoms: O1_2  and  C2_3 
REMARK       I    between atoms: C2_3  and  N1_5 
ROOT
ATOM      1  C2  <0> d          -1.102   2.267   0.020  0.00  0.00     0.362 C 
ATOM      2  O2  <0> d          -2.216   1.782   0.023  0.00  0.00    -0.238 OA
ATOM      3  N1  <0> d          -0.018   1.466   0.010  0.00  0.00    -0.321 N 
ATOM      4  C3  <0> d           1.393   1.877  -0.001  0.00  0.00     0.015 A 
ATOM      5  C4  <0> d           2.222   0.620  -0.016  0.00  0.00    -0.088 A 
ATOM      6  C5  <0> d           1.447  -0.428  -0.014  0.00  0.00    -0.088 A 
ATOM      7  C6  <0> d           0.002  -0.004   0.002  0.00  0.00     0.015 A 
ATOM      8  H4  <0> d           1.600   2.469  -0.893  0.00  0.00     0.070 H 
ATOM      9  H5  <0> d           1.617   2.459   0.893  0.00  0.00     0.070 H 
ATOM     10  H6  <0> d           3.302   0.592  -0.026  0.00  0.00     0.079 H 
ATOM     11  H7  <0> d           1.791  -1.452  -0.022  0.00  0.00     0.079 H 
ATOM     12  H8  <0> d          -0.487  -0.387   0.898  0.00  0.00     0.070 H 
ATOM     13  H9  <0> d          -0.504  -0.377  -0.888  0.00  0.00     0.070 H 
ENDROOT
BRANCH   1  14
ATOM     14  O1  <0> d          -0.950   3.605   0.026  0.00  0.00    -0.309 OA
BRANCH  14  15
ATOM     15  C1  <0> d          -2.161   4.405   0.037  0.00  0.00     0.015 C 
ATOM     16  H1  <0> d          -2.752   4.182  -0.852  0.00  0.00     0.067 H 
ATOM     17  H2  <0> d          -2.743   4.172   0.928  0.00  0.00     0.067 H 
ATOM     18  H3  <0> d          -1.897   5.463   0.041  0.00  0.00     0.067 H 
ENDBRANCH  14  15
ENDBRANCH   1  14
TORSDOF 2
