REMARK  2 active torsions:
REMARK  status: ('A' for Active; 'I' for Inactive)
REMARK    1  A    between atoms: C2_2  and  C3_3 
REMARK    2  A    between atoms: C3_3  and  N1_4 
ROOT
ATOM      1  N1  <0> d          -2.146   1.365  -1.112  0.00  0.00    -0.336 N 
ATOM      2  C4  <0> d          -2.237   1.966  -2.329  0.00  0.00     0.067 A 
ATOM      3  N2  <0> d          -3.052   1.302  -3.096  0.00  0.00    -0.242 NA
ATOM      4  C5  <0> d          -3.547   0.234  -2.419  0.00  0.00     0.085 A 
ATOM      5  C6  <0> d          -2.973   0.259  -1.137  0.00  0.00     0.064 A 
ATOM      6  C7  <0> d          -3.299  -0.725  -0.214  0.00  0.00    -0.055 A 
ATOM      7  C8  <0> d          -4.186  -1.721  -0.563  0.00  0.00    -0.081 A 
ATOM      8  C9  <0> d          -4.753  -1.746  -1.829  0.00  0.00    -0.081 A 
ATOM      9  C10 <0> d          -4.443  -0.786  -2.751  0.00  0.00    -0.053 A 
ATOM     10  H6  <0> d          -1.708   2.862  -2.617  0.00  0.00     0.143 H 
ATOM     11  H7  <0> d          -2.861  -0.710   0.773  0.00  0.00     0.087 H 
ATOM     12  H8  <0> d          -4.441  -2.488   0.154  0.00  0.00     0.083 H 
ATOM     13  H9  <0> d          -5.446  -2.532  -2.089  0.00  0.00     0.083 H 
ATOM     14  H10 <0> d          -4.891  -0.815  -3.733  0.00  0.00     0.087 H 
ENDROOT
BRANCH   1  15
ATOM     15  C3  <0> d          -1.328   1.812   0.018  0.00  0.00     0.015 C 
ATOM     16  H4  <0> d          -1.853   1.605   0.951  0.00  0.00     0.070 H 
ATOM     17  H5  <0> d          -1.145   2.883  -0.066  0.00  0.00     0.070 H 
BRANCH  15  18
ATOM     18  C2  <0> d          -0.013   1.076   0.008  0.00  0.00    -0.095 C 
ATOM     19  C1  <0> d           1.113   1.746   0.001  0.00  0.00    -0.123 C 
ATOM     20  H1  <0> d           1.098   2.826   0.007  0.00  0.00     0.066 H 
ATOM     21  H2  <0> d           2.055   1.219  -0.011  0.00  0.00     0.066 H 
ATOM     22  H3  <0> d           0.002  -0.004   0.002  0.00  0.00     0.078 H 
ENDBRANCH  15  18
ENDBRANCH   1  15
TORSDOF 2
