REMARK  0 active torsions:
REMARK  status: ('A' for Active; 'I' for Inactive)
ROOT
ATOM      1  C1  <0> d          -2.364   2.435  -2.408  0.00  0.00     0.052 A 
ATOM      2  C2  <0> d          -2.080   2.087  -1.146  0.00  0.00    -0.007 A 
ATOM      3  C3  <0> d          -0.754   1.591  -1.202  0.00  0.00     0.070 A 
ATOM      4  N1  <0> d          -0.383   1.679  -2.435  0.00  0.00    -0.133 NA
ATOM      5  O1  <0> d          -1.264   2.148  -3.128  0.00  0.00    -0.225 OA
ATOM      6  C4  <0> d          -0.013   1.086   0.008  0.00  0.00    -0.022 C 
ATOM      7  C5  <0> d          -0.745   1.587   1.260  0.00  0.00    -0.060 C 
ATOM      8  C6  <0> d          -2.236   1.256   1.161  0.00  0.00    -0.061 C 
ATOM      9  C7  <0> d          -2.901   2.156   0.109  0.00  0.00    -0.037 C 
ATOM     10  H1  <0> d          -3.287   2.858  -2.773  0.00  0.00     0.127 H 
ATOM     11  H2  <0> d           0.002  -0.004   0.002  0.00  0.00     0.042 H 
ATOM     12  H3  <0> d           1.008   1.468   0.000  0.00  0.00     0.042 H 
ATOM     13  H4  <0> d          -0.324   1.105   2.143  0.00  0.00     0.033 H 
ATOM     14  H5  <0> d          -0.618   2.667   1.345  0.00  0.00     0.033 H 
ATOM     15  H6  <0> d          -2.708   1.422   2.130  0.00  0.00     0.033 H 
ATOM     16  H7  <0> d          -2.356   0.212   0.873  0.00  0.00     0.033 H 
ATOM     17  H8  <0> d          -2.934   3.184   0.471  0.00  0.00     0.040 H 
ATOM     18  H9  <0> d          -3.913   1.803  -0.092  0.00  0.00     0.040 H 
ENDROOT
TORSDOF 0
