REMARK  1 active torsions:
REMARK  status: ('A' for Active; 'I' for Inactive)
REMARK    1  A    between atoms: C3_3  and  C5_7 
ROOT
ATOM      1  C1  <0> d           3.649   2.058  -0.022  0.00  0.00     0.027 A 
ATOM      2  C2  <0> d           2.485   1.299  -0.015  0.00  0.00     0.087 A 
ATOM      3  C3  <0> d           1.260   1.969   0.001  0.00  0.00     0.157 A 
ATOM      4  N1  <0> d           1.255   3.300   0.002  0.00  0.00    -0.233 NA
ATOM      5  C4  <0> d           2.382   3.977   0.001  0.00  0.00     0.087 A 
ATOM      6  N2  <0> d           3.557   3.377  -0.014  0.00  0.00    -0.252 NA
ATOM      7 Cl1  <0> d           2.553  -0.436  -0.025  0.00  0.00    -0.080 Cl
ATOM      8  H1  <0> d           4.616   1.578  -0.033  0.00  0.00     0.117 H 
ATOM      9  H2  <0> d           2.345   5.056   0.007  0.00  0.00     0.146 H 
ENDROOT
BRANCH   3  10
ATOM     10  C5  <0> d          -0.014   1.210   0.009  0.00  0.00     0.230 C 
ATOM     11  O1  <0> d           0.002  -0.004   0.002  0.00  0.00    -0.643 OA
ATOM     12  O2  <0> d          -1.190   1.867   0.018  0.00  0.00    -0.643 OA
ENDBRANCH   3  10
TORSDOF 1
