REMARK  1 active torsions:
REMARK  status: ('A' for Active; 'I' for Inactive)
REMARK    1  A    between atoms: C3_3  and  C6_9 
ROOT
ATOM      1  C1  <0> d          -0.726   1.578   1.270  0.00  0.00    -0.055 C 
ATOM      2  C2  <0> d          -0.978   3.083   1.129  0.00  0.00    -0.036 C 
ATOM      3  C3  <0> d          -2.003   3.304   0.017  0.00  0.00     0.096 C 
ATOM      4  H1  <0> d          -2.977   2.942   0.347  0.00  0.00     0.089 H 
ATOM      5  N1  <0> d          -1.607   2.591  -1.191  0.00  0.00    -0.347 N 
ATOM      6  C4  <0> d          -0.736   1.582  -1.211  0.00  0.00     0.218 C 
ATOM      7  O1  <0> d          -0.514   1.036  -2.271  0.00  0.00    -0.274 OA
ATOM      8  C5  <0> d          -0.013   1.086   0.008  0.00  0.00     0.009 C 
ATOM      9  H2  <0> d          -1.675   1.055   1.383  0.00  0.00     0.033 H 
ATOM     10  H3  <0> d          -0.098   1.392   2.142  0.00  0.00     0.033 H 
ATOM     11  H4  <0> d          -0.046   3.588   0.874  0.00  0.00     0.036 H 
ATOM     12  H5  <0> d          -1.365   3.481   2.067  0.00  0.00     0.036 H 
ATOM     13  H6  <0> d          -2.003   2.866  -2.032  0.00  0.00     0.163 HD
ATOM     14  H7  <0> d           0.002  -0.004   0.002  0.00  0.00     0.047 H 
ATOM     15  H8  <0> d           1.010   1.462   0.000  0.00  0.00     0.047 H 
ENDROOT
BRANCH   3  16
ATOM     16  C6  <0> d          -2.100   4.778  -0.285  0.00  0.00     0.196 C 
ATOM     17  O2  <0> d          -1.535   5.236  -1.250  0.00  0.00    -0.646 OA
ATOM     18  O3  <0> d          -2.816   5.581   0.517  0.00  0.00    -0.646 OA
ENDBRANCH   3  16
TORSDOF 1
