REMARK  5 active torsions:
REMARK  status: ('A' for Active; 'I' for Inactive)
REMARK    1  A    between atoms: C1_1  and  C2_2 
REMARK    2  A    between atoms: C3_3  and  C4_4 
REMARK    3  A    between atoms: C4_4  and  C5_6 
REMARK    4  A    between atoms: C4_4  and  O1_9 
REMARK    5  A    between atoms: C5_6  and  C6_7 
ROOT
ATOM      1  C6  <0> d          -1.993  -4.177   1.112  0.00  0.00    -0.115 C 
ATOM      2  C7  <0> d          -2.057  -5.347   1.053  0.00  0.00    -0.154 C 
ATOM      3  H9  <0> d          -2.115  -6.394   0.999  0.00  0.00     0.166 H 
ENDROOT
BRANCH   1   4
ATOM      4  C5  <0> d          -1.912  -2.709   1.188  0.00  0.00     0.017 C 
ATOM      5  H7  <0> d          -1.424  -2.419   2.118  0.00  0.00     0.056 H 
ATOM      6  H8  <0> d          -2.917  -2.288   1.158  0.00  0.00     0.056 H 
BRANCH   4   7
ATOM      7  C4  <0> d          -1.103  -2.181   0.001  0.00  0.00     0.061 C 
ATOM      8  H1  <0> d          -1.541  -2.546  -0.928  0.00  0.00     0.090 H 
BRANCH   7   9
ATOM      9  C3  <0> d          -1.123  -0.674   0.009  0.00  0.00    -0.079 C 
ATOM     10  C2  <0> d           0.002  -0.004   0.002  0.00  0.00    -0.108 C 
ATOM     11  H5  <0> d           0.945  -0.531  -0.010  0.00  0.00     0.075 H 
ATOM     12  H6  <0> d          -2.066  -0.147   0.021  0.00  0.00     0.080 H 
BRANCH  10  13
ATOM     13  C1  <0> d          -0.018   1.503   0.010  0.00  0.00    -0.060 C 
ATOM     14  H2  <0> d           1.004   1.880   0.003  0.00  0.00     0.032 H 
ATOM     15  H3  <0> d          -0.545   1.864  -0.873  0.00  0.00     0.032 H 
ATOM     16  H4  <0> d          -0.529   1.854   0.907  0.00  0.00     0.032 H 
ENDBRANCH  10  13
ENDBRANCH   7   9
BRANCH   7  17
ATOM     17  O1  <0> d           0.247  -2.640   0.103  0.00  0.00    -0.391 OA
ATOM     18  H10 <0> d           0.700  -2.353   0.907  0.00  0.00     0.210 HD
ENDBRANCH   7  17
ENDBRANCH   4   7
ENDBRANCH   1   4
TORSDOF 5
