REMARK  6 active torsions:
REMARK  status: ('A' for Active; 'I' for Inactive)
REMARK    1  A    between atoms: C1_1  and  C2_2 
REMARK    2  A    between atoms: C2_2  and  C3_3 
REMARK    3  A    between atoms: C2_2  and  N1_4 
REMARK       I    between atoms: N1_4  and  C4_5 
REMARK    4  A    between atoms: C4_5  and  C5_7 
REMARK    5  A    between atoms: C5_7  and  C6_8 
REMARK    6  A    between atoms: C6_8  and  C7_9 
ROOT
ATOM      1  N1  <0> d          -4.952   0.976   0.031  0.00  0.00    -0.357 N 
ATOM      2  C4  <0> d          -3.794   1.665   0.029  0.00  0.00     0.218 C 
ATOM      3  O1  <0> d          -3.811   2.878   0.036  0.00  0.00    -0.274 OA
ATOM      4  H8  <0> d          -4.939   0.006   0.025  0.00  0.00     0.162 HD
ENDROOT
BRANCH   1   5
ATOM      5  C2  <0> d          -6.231   1.691   0.041  0.00  0.00     0.005 C 
ATOM      6  H4  <0> d          -6.139   2.606  -0.544  0.00  0.00     0.071 H 
BRANCH   5   7
ATOM      7  C1  <0> d          -7.317   0.802  -0.569  0.00  0.00    -0.058 C 
ATOM      8  H1  <0> d          -7.408  -0.113   0.016  0.00  0.00     0.030 H 
ATOM      9  H2  <0> d          -8.268   1.334  -0.561  0.00  0.00     0.030 H 
ATOM     10  H3  <0> d          -7.048   0.552  -1.595  0.00  0.00     0.030 H 
ENDBRANCH   5   7
BRANCH   5  11
ATOM     11  C3  <0> d          -6.607   2.042   1.482  0.00  0.00    -0.058 C 
ATOM     12  H5  <0> d          -6.698   1.127   2.066  0.00  0.00     0.030 H 
ATOM     13  H6  <0> d          -5.833   2.675   1.916  0.00  0.00     0.030 H 
ATOM     14  H7  <0> d          -7.559   2.574   1.489  0.00  0.00     0.030 H 
ENDBRANCH   5  11
ENDBRANCH   1   5
BRANCH   2  15
ATOM     15  C5  <0> d          -2.479   0.930   0.019  0.00  0.00     0.018 C 
ATOM     16  H9  <0> d          -2.417   0.309  -0.875  0.00  0.00     0.047 H 
ATOM     17  H10 <0> d          -2.408   0.299   0.905  0.00  0.00     0.047 H 
BRANCH  15  18
ATOM     18  C6  <0> d          -1.329   1.940   0.019  0.00  0.00     0.024 C 
ATOM     19  H11 <0> d          -1.391   2.561   0.913  0.00  0.00     0.049 H 
ATOM     20  H12 <0> d          -1.400   2.570  -0.867  0.00  0.00     0.049 H 
BRANCH  18  21
ATOM     21  C7  <0> d          -0.014   1.204   0.009  0.00  0.00     0.172 C 
ATOM     22  O2  <0> d           0.002  -0.004   0.002  0.00  0.00    -0.648 OA
ATOM     23  O3  <0> d           1.139   1.891   0.001  0.00  0.00    -0.648 OA
ENDBRANCH  18  21
ENDBRANCH  15  18
ENDBRANCH   2  15
TORSDOF 6
