REMARK  3 active torsions:
REMARK  status: ('A' for Active; 'I' for Inactive)
REMARK    1  A    between atoms: C1_1  and  O1_2 
REMARK    2  A    between atoms: O1_2  and  C2_3 
REMARK    3  A    between atoms: C2_3  and  C3_5 
ROOT
ATOM      1  C3  <0> d           2.344   1.441  -0.013  0.00  0.00     0.138 A 
ATOM      2  C4  <0> d           2.421   0.081  -0.021  0.00  0.00     0.016 A 
ATOM      3  C5  <0> d           1.165  -0.678  -0.013  0.00  0.00     0.248 A 
ATOM      4  O3  <0> d           1.176  -1.899  -0.019  0.00  0.00    -0.268 OA
ATOM      5  N1  <0> d           0.002  -0.004   0.002  0.00  0.00    -0.318 N 
ATOM      6  C6  <0> d          -0.016   1.302   0.009  0.00  0.00     0.067 A 
ATOM      7  N2  <0> d           1.108   2.035   0.003  0.00  0.00    -0.238 NA
ATOM      8  H1  <0> d          -0.861  -0.509   0.008  0.00  0.00     0.169 HD
ATOM      9  H5  <0> d           3.376  -0.423  -0.033  0.00  0.00     0.096 H 
ATOM     10  H6  <0> d          -0.969   1.810   0.021  0.00  0.00     0.143 H 
ENDROOT
BRANCH   1  11
ATOM     11  C2  <0> d           3.575   2.265  -0.020  0.00  0.00     0.311 C 
ATOM     12  O2  <0> d           4.664   1.729  -0.033  0.00  0.00    -0.258 OA
BRANCH  11  13
ATOM     13  O1  <0> d           3.486   3.609  -0.012  0.00  0.00    -0.321 OA
BRANCH  13  14
ATOM     14  C1  <0> d           4.734   4.352  -0.020  0.00  0.00     0.013 C 
ATOM     15  H2  <0> d           4.520   5.421  -0.012  0.00  0.00     0.067 H 
ATOM     16  H3  <0> d           5.317   4.092   0.863  0.00  0.00     0.067 H 
ATOM     17  H4  <0> d           5.300   4.101  -0.916  0.00  0.00     0.067 H 
ENDBRANCH  13  14
ENDBRANCH  11  13
ENDBRANCH   1  11
TORSDOF 3
