REMARK  3 active torsions:
REMARK  status: ('A' for Active; 'I' for Inactive)
REMARK    1  A    between atoms: C1_1  and  C2_2 
REMARK    2  A    between atoms: C2_2  and  C3_4 
REMARK    3  A    between atoms: C2_2  and  O1_8 
ROOT
ATOM      1  C2  <0> d          -0.729   1.579   1.267  0.00  0.00     0.125 C 
ATOM      2  H1  <0> d          -1.751   1.202   1.275  0.00  0.00     0.096 H 
ENDROOT
BRANCH   1   3
ATOM      3  C1  <0> d          -0.013   1.086   0.008  0.00  0.00    -0.044 C 
ATOM      4  H2  <0> d           0.002  -0.004   0.002  0.00  0.00     0.031 H 
ATOM      5  H3  <0> d           1.010   1.463   0.000  0.00  0.00     0.031 H 
ATOM      6  H4  <0> d          -0.540   1.447  -0.875  0.00  0.00     0.031 H 
ENDBRANCH   1   3
BRANCH   1   7
ATOM      7  C3  <0> d           0.011   1.072   2.506  0.00  0.00     0.412 C 
ATOM      8  F1  <0> d           1.324   1.557   2.496  0.00  0.00    -0.168 F 
ATOM      9  F2  <0> d          -0.644   1.524   3.657  0.00  0.00    -0.168 F 
ATOM     10  F3  <0> d           0.030  -0.327   2.499  0.00  0.00    -0.168 F 
ENDBRANCH   1   7
BRANCH   1  11
ATOM     11  O1  <0> d          -0.748   3.008   1.275  0.00  0.00    -0.387 OA
ATOM     12  H5  <0> d           0.130   3.413   1.268  0.00  0.00     0.210 HD
ENDBRANCH   1  11
TORSDOF 3
