REMARK  4 active torsions:
REMARK  status: ('A' for Active; 'I' for Inactive)
REMARK    1  A    between atoms: N1_3  and  C7_9 
REMARK    2  A    between atoms: C3_5  and  C4_6 
REMARK    3  A    between atoms: C7_9  and  C8_10 
REMARK    4  A    between atoms: C8_10  and  O1_11 
ROOT
ATOM      1  C1  <0> d           1.069   1.888   0.002  0.00  0.00    -0.041 A 
ATOM      2  C2  <0> d          -0.013   1.076   0.008  0.00  0.00     0.000 A 
ATOM      3  N1  <0> d          -1.113   1.857   0.017  0.00  0.00    -0.279 N 
ATOM      4  N2  <0> d          -0.694   3.193   0.025  0.00  0.00    -0.177 NA
ATOM      5  C3  <0> d           0.614   3.211   0.013  0.00  0.00     0.060 A 
ATOM      6  H1  <0> d           2.102   1.572  -0.009  0.00  0.00     0.088 H 
ATOM      7  H2  <0> d           0.002  -0.004   0.002  0.00  0.00     0.114 H 
ENDROOT
BRANCH   3   8
ATOM      8  C7  <0> d          -2.502   1.389   0.021  0.00  0.00     0.036 C 
ATOM      9  H8  <0> d          -2.989   1.689  -0.907  0.00  0.00     0.070 H 
ATOM     10  H9  <0> d          -2.519   0.302   0.105  0.00  0.00     0.070 H 
BRANCH   8  11
ATOM     11  C8  <0> d          -3.244   2.004   1.209  0.00  0.00     0.033 C 
ATOM     12  H10 <0> d          -2.757   1.704   2.136  0.00  0.00     0.076 H 
ATOM     13  H11 <0> d          -3.227   3.091   1.124  0.00  0.00     0.076 H 
BRANCH  11  14
ATOM     14  O1  <0> d          -4.598   1.548   1.212  0.00  0.00    -0.399 OA
ATOM     15  H12 <0> d          -5.129   1.899   1.940  0.00  0.00     0.209 HD
ENDBRANCH  11  14
ENDBRANCH   8  11
ENDBRANCH   3   8
BRANCH   5  16
ATOM     16  C4  <0> d           1.481   4.444   0.010  0.00  0.00    -0.010 A 
ATOM     17  C6  <0> d           1.999   4.946   1.359  0.00  0.00    -0.056 A 
ATOM     18  C5  <0> d           2.957   4.270   0.374  0.00  0.00    -0.056 A 
ATOM     19  H6  <0> d           2.093   6.024   1.493  0.00  0.00     0.034 H 
ATOM     20  H7  <0> d           1.713   4.385   2.249  0.00  0.00     0.034 H 
ATOM     21  H4  <0> d           3.301   3.265   0.616  0.00  0.00     0.034 H 
ATOM     22  H5  <0> d           3.680   4.904  -0.139  0.00  0.00     0.034 H 
ATOM     23  H3  <0> d           1.234   5.191  -0.744  0.00  0.00     0.049 H 
ENDBRANCH   5  16
TORSDOF 4
