REMARK  5 active torsions:
REMARK  status: ('A' for Active; 'I' for Inactive)
REMARK    1  A    between atoms: C1_1  and  C2_2 
REMARK    2  A    between atoms: C2_2  and  C3_3 
REMARK    3  A    between atoms: C3_3  and  C4_4 
REMARK    4  A    between atoms: C4_4  and  C5_5 
REMARK    5  A    between atoms: C8_8  and  C10_11 
ROOT
ATOM      1  C5  <0> d           0.000   1.080   2.488  0.00  0.00    -0.041 A 
ATOM      2  C6  <0> d           1.017   1.833   3.055  0.00  0.00    -0.074 A 
ATOM      3  C7  <0> d           1.659   1.334   4.178  0.00  0.00    -0.059 A 
ATOM      4  C8  <0> d           1.268   0.112   4.690  0.00  0.00     0.030 A 
ATOM      5  N1  <0> d           0.297  -0.578   4.124  0.00  0.00    -0.265 NA
ATOM      6  C9  <0> d          -0.340  -0.131   3.059  0.00  0.00     0.009 A 
ATOM      7  H10 <0> d           1.301   2.786   2.633  0.00  0.00     0.084 H 
ATOM      8  H11 <0> d           2.455   1.894   4.646  0.00  0.00     0.086 H 
ATOM      9  H12 <0> d          -1.134  -0.722   2.626  0.00  0.00     0.115 H 
ENDROOT
BRANCH   1  10
ATOM     10  C4  <0> d          -0.729   1.579   1.267  0.00  0.00    -0.040 C 
ATOM     11  H8  <0> d          -0.744   2.669   1.273  0.00  0.00     0.040 H 
ATOM     12  H9  <0> d          -1.751   1.202   1.275  0.00  0.00     0.040 H 
BRANCH  10  13
ATOM     13  C3  <0> d          -0.013   1.086   0.008  0.00  0.00    -0.062 C 
ATOM     14  H6  <0> d           0.002  -0.004   0.002  0.00  0.00     0.033 H 
ATOM     15  H7  <0> d           1.010   1.463   0.000  0.00  0.00     0.033 H 
BRANCH  13  16
ATOM     16  C2  <0> d          -0.753   1.593  -1.232  0.00  0.00    -0.068 C 
ATOM     17  H4  <0> d          -1.775   1.215  -1.224  0.00  0.00     0.032 H 
ATOM     18  H5  <0> d          -0.767   2.683  -1.226  0.00  0.00     0.032 H 
BRANCH  16  19
ATOM     19  C1  <0> d          -0.037   1.099  -2.490  0.00  0.00    -0.077 C 
ATOM     20  H1  <0> d           0.986   1.476  -2.498  0.00  0.00     0.027 H 
ATOM     21  H2  <0> d          -0.022   0.009  -2.496  0.00  0.00     0.027 H 
ATOM     22  H3  <0> d          -0.564   1.460  -3.373  0.00  0.00     0.027 H 
ENDBRANCH  16  19
ENDBRANCH  13  16
ENDBRANCH  10  13
ENDBRANCH   1  10
BRANCH   4  23
ATOM     23  C10 <0> d           1.960  -0.441   5.910  0.00  0.00    -0.035 C 
ATOM     24  H13 <0> d           1.442  -0.102   6.806  0.00  0.00     0.035 H 
ATOM     25  H14 <0> d           1.948  -1.530   5.872  0.00  0.00     0.035 H 
ATOM     26  H15 <0> d           2.992  -0.089   5.932  0.00  0.00     0.035 H 
ENDBRANCH   4  23
TORSDOF 5
