REMARK  6 active torsions:
REMARK  status: ('A' for Active; 'I' for Inactive)
REMARK    1  A    between atoms: C1_1  and  O1_2 
REMARK    2  A    between atoms: O1_2  and  C2_3 
REMARK    3  A    between atoms: C2_3  and  C3_5 
REMARK    4  A    between atoms: C3_5  and  C4_7 
REMARK    5  A    between atoms: C3_5  and  O4_10 
REMARK    6  A    between atoms: C4_7  and  C5_8 
ROOT
ATOM      1  C3  <0> d           0.679  -2.115   1.088  0.00  0.00     0.128 C 
ATOM      2  H1  <0> d          -0.330  -2.522   1.023  0.00  0.00     0.099 H 
ENDROOT
BRANCH   1   3
ATOM      3  C2  <0> d           0.618  -0.611   1.029  0.00  0.00     0.287 C 
ATOM      4  O2  <0> d           1.124   0.049   1.905  0.00  0.00    -0.262 OA
BRANCH   3   5
ATOM      5  O1  <0> d           0.002  -0.004   0.002  0.00  0.00    -0.324 OA
BRANCH   5   6
ATOM      6  C1  <0> d          -0.018   1.448   0.010  0.00  0.00     0.013 C 
ATOM      7  H2  <0> d           1.005   1.825   0.002  0.00  0.00     0.067 H 
ATOM      8  H3  <0> d          -0.545   1.809  -0.873  0.00  0.00     0.067 H 
ATOM      9  H4  <0> d          -0.528   1.799   0.907  0.00  0.00     0.067 H 
ENDBRANCH   5   6
ENDBRANCH   3   5
ENDBRANCH   1   3
BRANCH   1  10
ATOM     10  C4  <0> d           1.516  -2.639  -0.080  0.00  0.00     0.048 C 
ATOM     11  H5  <0> d           1.111  -2.257  -1.017  0.00  0.00     0.053 H 
ATOM     12  H6  <0> d           2.547  -2.304   0.033  0.00  0.00     0.053 H 
BRANCH  10  13
ATOM     13  C5  <0> d           1.475  -4.145  -0.092  0.00  0.00     0.175 C 
ATOM     14  O3  <0> d           0.842  -4.739   0.748  0.00  0.00    -0.648 OA
ATOM     15  O5  <0> d           2.143  -4.827  -1.036  0.00  0.00    -0.648 OA
ENDBRANCH  10  13
ENDBRANCH   1  10
BRANCH   1  16
ATOM     16  O4  <0> d           1.277  -2.520   2.322  0.00  0.00    -0.385 OA
ATOM     17  H7  <0> d           2.178  -2.193   2.447  0.00  0.00     0.210 HD
ENDBRANCH   1  16
TORSDOF 6
