REMARK  0 active torsions:
REMARK  status: ('A' for Active; 'I' for Inactive)
ROOT
ATOM      1  C1  <0> d          -0.713   3.509   0.026  0.00  0.00     0.022 A 
ATOM      2  C2  <0> d           0.640   3.485   0.014  0.00  0.00     0.022 A 
ATOM      3  N1  <0> d           1.039   2.213   0.004  0.00  0.00    -0.231 NA
ATOM      4  C3  <0> d          -0.017   1.428   0.010  0.00  0.00     0.231 A 
ATOM      5  N2  <0> d          -1.136   2.213   0.019  0.00  0.00    -0.231 NA
ATOM      6  C4  <0> d           0.002  -0.004   0.002  0.00  0.00     0.141 C 
ATOM      7  N3  <0> d           0.018  -1.140  -0.004  0.00  0.00    -0.188 NA
ATOM      8  H1  <0> d          -1.340   4.388   0.036  0.00  0.00     0.117 H 
ATOM      9  H2  <0> d           1.287   4.350   0.012  0.00  0.00     0.117 H 
ENDROOT
TORSDOF 0
