REMARK  3 active torsions:
REMARK  status: ('A' for Active; 'I' for Inactive)
REMARK    1  A    between atoms: C2_2  and  C3_3 
REMARK    2  A    between atoms: C3_3  and  O1_4 
REMARK    3  A    between atoms: O1_4  and  C4_5 
ROOT
ATOM      1  C1  <0> d           2.024   6.731   0.019  0.00  0.00    -0.152 C 
ATOM      2  C2  <0> d           2.198   5.570   0.011  0.00  0.00    -0.091 C 
ATOM      3  H1  <0> d           1.869   7.769   0.026  0.00  0.00     0.166 H 
ENDROOT
BRANCH   2   4
ATOM      4  C3  <0> d           2.415   4.114   0.001  0.00  0.00     0.080 C 
ATOM      5  H2  <0> d           2.986   3.826   0.884  0.00  0.00     0.094 H 
ATOM      6  H3  <0> d           2.969   3.835  -0.896  0.00  0.00     0.094 H 
BRANCH   4   7
ATOM      7  O1  <0> d           1.153   3.444   0.009  0.00  0.00    -0.340 OA
BRANCH   7   8
ATOM      8  C4  <0> d           1.176   2.086   0.002  0.00  0.00     0.070 A 
ATOM      9  C9  <0> d           2.392   1.414  -0.013  0.00  0.00    -0.049 A 
ATOM     10  C8  <0> d           2.420   0.037  -0.021  0.00  0.00    -0.060 A 
ATOM     11  H7  <0> d           3.317   1.972  -0.019  0.00  0.00     0.087 H 
ATOM     12  C7  <0> d           1.223  -0.684  -0.013  0.00  0.00     0.044 A 
ATOM     13  H6  <0> d           3.365  -0.485  -0.032  0.00  0.00     0.086 H 
ATOM     14  C6  <0> d           0.002  -0.004   0.002  0.00  0.00    -0.060 A 
ATOM     15  C10 <0> d           1.247  -2.116  -0.021  0.00  0.00     0.099 C 
ATOM     16  C5  <0> d          -0.017   1.373   0.010  0.00  0.00    -0.049 A 
ATOM     17  H5  <0> d          -0.925  -0.557   0.007  0.00  0.00     0.086 H 
ATOM     18  H4  <0> d          -0.960   1.900   0.017  0.00  0.00     0.087 H 
ATOM     19  N1  <0> d           1.266  -3.252  -0.027  0.00  0.00    -0.191 NA
ENDBRANCH   7   8
ENDBRANCH   4   7
ENDBRANCH   2   4
TORSDOF 3
