REMARK  1 active torsions:
REMARK  status: ('A' for Active; 'I' for Inactive)
REMARK    1  A    between atoms: C2_2  and  C3_3 
ROOT
ATOM      1  C1  <0> d           0.018  -1.178  -0.004  0.00  0.00    -0.149 C 
ATOM      2  C2  <0> d           0.002  -0.004   0.002  0.00  0.00    -0.076 C 
ATOM      3  H1  <0> d           0.032  -2.228  -0.010  0.00  0.00     0.166 H 
ENDROOT
BRANCH   2   4
ATOM      4  C3  <0> d          -0.017   1.428   0.010  0.00  0.00     0.034 A 
ATOM      5  C7  <0> d           1.174   2.152   0.002  0.00  0.00     0.023 A 
ATOM      6  N1  <0> d           1.158   3.470   0.005  0.00  0.00    -0.231 NA
ATOM      7  H4  <0> d           2.119   1.629  -0.009  0.00  0.00     0.117 H 
ATOM      8  C6  <0> d           0.027   4.153   0.025  0.00  0.00     0.209 A 
ATOM      9  C5  <0> d          -1.199   3.505   0.038  0.00  0.00    -0.026 A 
ATOM     10  F1  <0> d           0.066   5.503   0.031  0.00  0.00    -0.184 F 
ATOM     11  C4  <0> d          -1.233   2.123   0.031  0.00  0.00    -0.059 A 
ATOM     12  H3  <0> d          -2.117   4.073   0.054  0.00  0.00     0.090 H 
ATOM     13  H2  <0> d          -2.174   1.592   0.041  0.00  0.00     0.086 H 
ENDBRANCH   2   4
TORSDOF 1
