REMARK  4 active torsions:
REMARK  status: ('A' for Active; 'I' for Inactive)
REMARK    1  A    between atoms: C1_1  and  C2_2 
REMARK    2  A    between atoms: C2_2  and  C7_10 
REMARK    3  A    between atoms: C3_3  and  C5_8 
REMARK    4  A    between atoms: C3_3  and  C6_9 
ROOT
ATOM      1  C2  <0> d           2.212   0.551  -0.016  0.00  0.00     0.097 A 
ATOM      2  C3  <0> d           1.354   1.831  -0.001  0.00  0.00     0.097 A 
ATOM      3  O1  <0> d          -0.016   1.333   0.009  0.00  0.00    -0.284 OA
ATOM      4  C4  <0> d           0.002  -0.004   0.002  0.00  0.00     0.408 A 
ATOM      5  O2  <0> d          -1.006  -0.681   0.009  0.00  0.00    -0.229 OA
ATOM      6  O3  <0> d           1.232  -0.528  -0.013  0.00  0.00    -0.284 OA
ENDROOT
BRANCH   1   7
ATOM      7  C1  <0> d           3.093   0.480   1.233  0.00  0.00    -0.044 C 
ATOM      8  H1  <0> d           3.638  -0.464   1.241  0.00  0.00     0.031 H 
ATOM      9  H2  <0> d           3.801   1.309   1.225  0.00  0.00     0.031 H 
ATOM     10  H3  <0> d           2.467   0.546   2.123  0.00  0.00     0.031 H 
ENDBRANCH   1   7
BRANCH   1  11
ATOM     11  C7  <0> d           3.071   0.492  -1.281  0.00  0.00    -0.044 C 
ATOM     12  H10 <0> d           2.430   0.565  -2.159  0.00  0.00     0.031 H 
ATOM     13  H11 <0> d           3.780   1.320  -1.278  0.00  0.00     0.031 H 
ATOM     14  H12 <0> d           3.616  -0.452  -1.306  0.00  0.00     0.031 H 
ENDBRANCH   1  11
BRANCH   2  15
ATOM     15  C5  <0> d           1.612   2.665  -1.257  0.00  0.00    -0.044 C 
ATOM     16  H4  <0> d           0.946   3.527  -1.264  0.00  0.00     0.031 H 
ATOM     17  H5  <0> d           2.647   3.006  -1.260  0.00  0.00     0.031 H 
ATOM     18  H6  <0> d           1.428   2.056  -2.142  0.00  0.00     0.031 H 
ENDBRANCH   2  15
BRANCH   2  19
ATOM     19  C6  <0> d           1.636   2.652   1.259  0.00  0.00    -0.044 C 
ATOM     20  H7  <0> d           1.469   2.033   2.140  0.00  0.00     0.031 H 
ATOM     21  H8  <0> d           2.671   2.993   1.245  0.00  0.00     0.031 H 
ATOM     22  H9  <0> d           0.970   3.514   1.287  0.00  0.00     0.031 H 
ENDBRANCH   2  19
TORSDOF 4
