REMARK  3 active torsions:
REMARK  status: ('A' for Active; 'I' for Inactive)
REMARK    1  A    between atoms: C1_1  and  C2_2 
REMARK    2  A    between atoms: C4_4  and  C8_9 
REMARK    3  A    between atoms: C7_7  and  N1_8 
ROOT
ATOM      1  C2  <0> d          -1.195  -0.715   0.015  0.00  0.00    -0.035 A 
ATOM      2  C3  <0> d          -1.177  -2.091   0.002  0.00  0.00    -0.059 A 
ATOM      3  C4  <0> d           0.046  -2.770  -0.013  0.00  0.00     0.041 A 
ATOM      4  C5  <0> d           1.243  -2.048  -0.020  0.00  0.00    -0.064 A 
ATOM      5  C6  <0> d           1.218  -0.682  -0.013  0.00  0.00    -0.056 A 
ATOM      6  C7  <0> d           0.002  -0.004   0.002  0.00  0.00     0.031 A 
ATOM      7  H4  <0> d          -2.104  -2.645   0.008  0.00  0.00     0.086 H 
ATOM      8  H5  <0> d           2.188  -2.570  -0.032  0.00  0.00     0.085 H 
ATOM      9  H6  <0> d           2.144  -0.127  -0.019  0.00  0.00     0.086 H 
ENDROOT
BRANCH   1  10
ATOM     10  C1  <0> d          -2.509   0.022   0.038  0.00  0.00    -0.049 C 
ATOM     11  H1  <0> d          -2.841   0.205  -0.984  0.00  0.00     0.033 H 
ATOM     12  H2  <0> d          -3.254  -0.580   0.559  0.00  0.00     0.033 H 
ATOM     13  H3  <0> d          -2.384   0.973   0.555  0.00  0.00     0.033 H 
ENDBRANCH   1  10
BRANCH   6  14
ATOM     14  N1  <0> d          -0.017   1.386   0.010  0.00  0.00    -0.399 N 
ATOM     15  H7  <0> d           0.817   1.882   0.004  0.00  0.00     0.156 HD
ATOM     16  H8  <0> d          -0.863   1.859   0.016  0.00  0.00     0.156 HD
ENDBRANCH   6  14
BRANCH   3  17
ATOM     17  C8  <0> d           0.072  -4.244  -0.021  0.00  0.00     0.209 C 
ATOM     18  O1  <0> d          -0.969  -4.870  -0.014  0.00  0.00    -0.644 OA
ATOM     19  O2  <0> d           1.251  -4.896  -0.036  0.00  0.00    -0.644 OA
ENDBRANCH   3  17
TORSDOF 3
