REMARK  3 active torsions:
REMARK  status: ('A' for Active; 'I' for Inactive)
REMARK    1  A    between atoms: C1_1  and  O1_2 
REMARK    2  A    between atoms: O1_2  and  C2_3 
REMARK    3  A    between atoms: C2_3  and  C3_5 
ROOT
ATOM      1  C3  <0> d           2.213   0.113  -1.356  0.00  0.00     0.088 C 
ATOM      2  H1  <0> d           2.812  -0.212  -0.625  0.00  0.00     0.067 H 
ATOM      3  C4  <0> d           2.112   1.641  -1.298  0.00  0.00    -0.047 C 
ATOM      4  C5  <0> d           1.417   2.056  -0.000  0.00  0.00    -0.064 C 
ATOM      5  C6  <0> d          -0.019   1.528   0.010  0.00  0.00    -0.059 C 
ATOM      6  C7  <0> d           0.002  -0.004   0.002  0.00  0.00    -0.009 C 
ATOM      7  C8  <0> d           0.828  -0.467  -1.178  0.00  0.00     0.140 C 
ATOM      8  O3  <0> d           0.392  -1.280  -1.958  0.00  0.00    -0.297 OA
ATOM      9  H5  <0> d           3.112   2.073  -1.329  0.00  0.00     0.034 H 
ATOM     10  H6  <0> d           1.535   2.000  -2.151  0.00  0.00     0.034 H 
ATOM     11  H7  <0> d           1.404   3.143   0.072  0.00  0.00     0.033 H 
ATOM     12  H8  <0> d           1.961   1.644   0.850  0.00  0.00     0.033 H 
ATOM     13  H9  <0> d          -0.545   1.889  -0.873  0.00  0.00     0.033 H 
ATOM     14  H10 <0> d          -0.528   1.880   0.907  0.00  0.00     0.033 H 
ATOM     15  H11 <0> d           0.407  -0.337   0.854  0.00  0.00     0.044 H 
ATOM     16  H12 <0> d          -1.016  -0.384  -0.088  0.00  0.00     0.044 H 
ENDROOT
BRANCH   1  17
ATOM     17  C2  <0> d           2.772  -0.311  -2.690  0.00  0.00     0.269 C 
ATOM     18  O2  <0> d           3.077   0.522  -3.510  0.00  0.00    -0.264 OA
BRANCH  17  19
ATOM     19  O1  <0> d           2.931  -1.615  -2.966  0.00  0.00    -0.326 OA
BRANCH  19  20
ATOM     20  C1  <0> d           3.475  -1.950  -4.270  0.00  0.00     0.013 C 
ATOM     21  H2  <0> d           4.464  -1.505  -4.377  0.00  0.00     0.067 H 
ATOM     22  H3  <0> d           3.552  -3.033  -4.364  0.00  0.00     0.067 H 
ATOM     23  H4  <0> d           2.817  -1.563  -5.049  0.00  0.00     0.067 H 
ENDBRANCH  19  20
ENDBRANCH  17  19
ENDBRANCH   1  17
TORSDOF 3
