REMARK  1 active torsions:
REMARK  status: ('A' for Active; 'I' for Inactive)
REMARK    1  A    between atoms: C1_1  and  N1_2 
ROOT
ATOM      1  N1  <0> d          -0.700   1.560   1.217  0.00  0.00     0.118 N 
ATOM      2  C2  <0> d          -2.107   1.131   1.225  0.00  0.00     0.176 C 
ATOM      3  N2  <0> d          -2.757   1.630   2.439  0.00  0.00    -0.317 N 
ATOM      4  C3  <0> d          -2.048   1.831   3.563  0.00  0.00     0.318 C 
ATOM      5  O1  <0> d          -2.614   2.237   4.559  0.00  0.00    -0.247 OA
ATOM      6  N3  <0> d          -0.726   1.591   3.610  0.00  0.00    -0.317 N 
ATOM      7  C4  <0> d          -0.015   1.091   2.431  0.00  0.00     0.176 C 
ATOM      8  H4  <0> d          -2.619   1.536   0.339  0.00  0.00     0.112 H 
ATOM      9  H5  <0> d          -2.156   0.032   1.206  0.00  0.00     0.112 H 
ATOM     10  H6  <0> d          -3.836   1.845   2.436  0.00  0.00     0.166 HD
ATOM     11  H7  <0> d          -0.177   1.775   4.545  0.00  0.00     0.166 HD
ATOM     12  H8  <0> d          -0.006  -0.009   2.445  0.00  0.00     0.112 H 
ATOM     13  H9  <0> d           1.019   1.466   2.437  0.00  0.00     0.112 H 
ENDROOT
BRANCH   1  14
ATOM     14  C1  <0> d          -0.013   1.086   0.008  0.00  0.00     0.099 C 
ATOM     15  H1  <0> d          -0.545   1.450  -0.883  0.00  0.00     0.072 H 
ATOM     16  H2  <0> d           0.002  -0.014   0.002  0.00  0.00     0.072 H 
ATOM     17  H3  <0> d           1.019   1.466   0.000  0.00  0.00     0.072 H 
ENDBRANCH   1  14
TORSDOF 1
