REMARK  0 active torsions:
REMARK  status: ('A' for Active; 'I' for Inactive)
ROOT
ATOM      1  C1  <0> d          -0.019   1.531   0.011  0.00  0.00    -0.056 C 
ATOM      2  C2  <0> d           1.419   2.049  -0.001  0.00  0.00    -0.049 C 
ATOM      3  C3  <0> d           2.204   1.442  -1.125  0.00  0.00    -0.100 C 
ATOM      4  C4  <0> d           1.869   0.299  -1.712  0.00  0.00    -0.042 C 
ATOM      5  C5  <0> d           0.676  -0.438  -1.284  0.00  0.00     0.149 C 
ATOM      6  O1  <0> d           0.243  -1.365  -1.937  0.00  0.00    -0.293 OA
ATOM      7  C6  <0> d           0.002  -0.004   0.002  0.00  0.00    -0.006 C 
ATOM      8  H1  <0> d          -0.527   1.884   0.908  0.00  0.00     0.034 H 
ATOM      9  H2  <0> d          -0.544   1.894  -0.873  0.00  0.00     0.034 H 
ATOM     10  H3  <0> d           1.408   3.132  -0.117  0.00  0.00     0.038 H 
ATOM     11  H4  <0> d           1.897   1.797   0.946  0.00  0.00     0.038 H 
ATOM     12  H5  <0> d           3.086   1.959  -1.473  0.00  0.00     0.076 H 
ATOM     13  H6  <0> d           2.480  -0.090  -2.512  0.00  0.00     0.088 H 
ATOM     14  H7  <0> d           0.566  -0.372   0.859  0.00  0.00     0.044 H 
ATOM     15  H8  <0> d          -1.017  -0.389   0.035  0.00  0.00     0.044 H 
ENDROOT
TORSDOF 0
