REMARK  2 active torsions:
REMARK  status: ('A' for Active; 'I' for Inactive)
REMARK    1  A    between atoms: C4_4  and  O2_11 
REMARK    2  A    between atoms: C5_6  and  O1_10 
ROOT
ATOM      1  C1  <0> d          -0.013   1.086   0.008  0.00  0.00    -0.065 C 
ATOM      2  C2  <0> d          -0.701   1.566   1.300  0.00  0.00    -0.063 C 
ATOM      3  C3  <0> d          -1.141   3.002   1.219  0.00  0.00    -0.039 C 
ATOM      4  C4  <0> d          -2.615   3.035   0.765  0.00  0.00     0.060 C 
ATOM      5  H1  <0> d          -3.158   2.238   1.272  0.00  0.00     0.086 H 
ATOM      6  C5  <0> d          -2.756   2.862  -0.673  0.00  0.00     0.060 C 
ATOM      7  H2  <0> d          -2.205   3.655  -1.179  0.00  0.00     0.086 H 
ATOM      8  C6  <0> d          -2.224   1.497  -1.156  0.00  0.00    -0.039 C 
ATOM      9  C7  <0> d          -0.725   1.580  -1.265  0.00  0.00    -0.063 C 
ATOM     10  H3  <0> d           0.002  -0.004   0.002  0.00  0.00     0.033 H 
ATOM     11  H4  <0> d           1.014   1.451   0.000  0.00  0.00     0.033 H 
ATOM     12  H5  <0> d          -1.572   0.939   1.490  0.00  0.00     0.033 H 
ATOM     13  H6  <0> d          -0.004   1.459   2.131  0.00  0.00     0.033 H 
ATOM     14  H7  <0> d          -0.523   3.535   0.496  0.00  0.00     0.036 H 
ATOM     15  H8  <0> d          -1.048   3.473   2.197  0.00  0.00     0.036 H 
ATOM     16  H9  <0> d          -2.650   1.262  -2.131  0.00  0.00     0.036 H 
ATOM     17  H10 <0> d          -2.496   0.721  -0.440  0.00  0.00     0.036 H 
ATOM     18  H11 <0> d          -0.442   2.617  -1.448  0.00  0.00     0.033 H 
ATOM     19  H12 <0> d          -0.401   0.972  -2.110  0.00  0.00     0.033 H 
ENDROOT
BRANCH   4  20
ATOM     20  O2  <0> d          -3.185   4.292   1.138  0.00  0.00    -0.393 OA
ATOM     21  H14 <0> d          -3.131   4.483   2.084  0.00  0.00     0.210 HD
ENDBRANCH   4  20
BRANCH   6  22
ATOM     22  O1  <0> d          -4.139   2.967  -1.018  0.00  0.00    -0.393 OA
ATOM     23  H13 <0> d          -4.313   2.907  -1.968  0.00  0.00     0.210 HD
ENDBRANCH   6  22
TORSDOF 2
