REMARK  2 active torsions:
REMARK  status: ('A' for Active; 'I' for Inactive)
REMARK    1  A    between atoms: C1_1  and  C2_2 
REMARK    2  A    between atoms: N1_11  and  C10_12 
ROOT
ATOM      1  C2  <0> d           3.386   2.597   0.407  0.00  0.00    -0.001 C 
ATOM      2  H1  <0> d           3.539   2.628   1.486  0.00  0.00     0.064 H 
ATOM      3  C3  <0> d           2.617   1.320  -0.002  0.00  0.00    -0.025 C 
ATOM      4  C4  <0> d           1.173   1.781   0.000  0.00  0.00    -0.035 A 
ATOM      5  C5  <0> d          -0.013   1.076   0.008  0.00  0.00    -0.075 A 
ATOM      6  C6  <0> d          -1.220   1.750   0.017  0.00  0.00    -0.082 A 
ATOM      7  C7  <0> d          -1.237   3.133   0.030  0.00  0.00    -0.081 A 
ATOM      8  C8  <0> d          -0.054   3.843   0.019  0.00  0.00    -0.062 A 
ATOM      9  C9  <0> d           1.167   3.170   0.002  0.00  0.00     0.017 A 
ATOM     10  N1  <0> d           2.472   3.677  -0.024  0.00  0.00    -0.283 NA
ATOM     11  H5  <0> d           2.770   0.526   0.729  0.00  0.00     0.042 H 
ATOM     12  H6  <0> d           2.915   0.992  -0.998  0.00  0.00     0.042 H 
ATOM     13  H7  <0> d           0.002  -0.004   0.002  0.00  0.00     0.084 H 
ATOM     14  H8  <0> d          -2.148   1.198   0.019  0.00  0.00     0.083 H 
ATOM     15  H9  <0> d          -2.180   3.659   0.044  0.00  0.00     0.083 H 
ATOM     16  H10 <0> d          -0.075   4.923   0.025  0.00  0.00     0.086 H 
ENDROOT
BRANCH   1  17
ATOM     17  C1  <0> d           4.721   2.688  -0.335  0.00  0.00    -0.061 C 
ATOM     18  H2  <0> d           5.201   3.639  -0.104  0.00  0.00     0.029 H 
ATOM     19  H3  <0> d           5.368   1.869  -0.021  0.00  0.00     0.029 H 
ATOM     20  H4  <0> d           4.545   2.621  -1.409  0.00  0.00     0.029 H 
ENDBRANCH   1  17
BRANCH  10  21
ATOM     21  C10 <0> d           2.598   4.853   0.848  0.00  0.00    -0.028 C 
ATOM     22  H11 <0> d           2.349   4.574   1.872  0.00  0.00     0.048 H 
ATOM     23  H12 <0> d           3.621   5.225   0.811  0.00  0.00     0.048 H 
ATOM     24  H13 <0> d           1.915   5.632   0.508  0.00  0.00     0.048 H 
ENDBRANCH  10  21
TORSDOF 2
