REMARK  1 active torsions:
REMARK  status: ('A' for Active; 'I' for Inactive)
REMARK    1  A    between atoms: C2_2  and  N1_9 
ROOT
ATOM      1  C1  <0> d           2.381   1.419  -0.013  0.00  0.00    -0.020 A 
ATOM      2  C2  <0> d           2.402   0.030  -0.021  0.00  0.00     0.031 A 
ATOM      3  C3  <0> d           1.209  -0.680  -0.013  0.00  0.00    -0.020 A 
ATOM      4  C4  <0> d           0.002  -0.004   0.002  0.00  0.00     0.121 A 
ATOM      5  C5  <0> d          -0.017   1.381   0.010  0.00  0.00    -0.008 A 
ATOM      6  C6  <0> d           1.172   2.091   0.002  0.00  0.00     0.121 A 
ATOM      7  F1  <0> d           1.151   3.442   0.010  0.00  0.00    -0.206 F 
ATOM      8  F2  <0> d          -1.159  -0.695   0.009  0.00  0.00    -0.206 F 
ATOM      9  H1  <0> d           3.307   1.974  -0.019  0.00  0.00     0.091 H 
ATOM     10  H2  <0> d           1.223  -1.760  -0.019  0.00  0.00     0.091 H 
ATOM     11  H3  <0> d          -0.960   1.907   0.017  0.00  0.00     0.092 H 
ENDROOT
BRANCH   2  12
ATOM     12  N1  <0> d           3.621  -0.650  -0.037  0.00  0.00    -0.399 N 
ATOM     13  H4  <0> d           3.635  -1.620  -0.042  0.00  0.00     0.156 HD
ATOM     14  H5  <0> d           4.454  -0.153  -0.042  0.00  0.00     0.156 HD
ENDBRANCH   2  12
TORSDOF 1
