REMARK  1 active torsions:
REMARK  status: ('A' for Active; 'I' for Inactive)
REMARK    1  A    between atoms: C1_1  and  C2_2 
ROOT
ATOM      1  C2  <0> d           0.002  -0.004   0.002  0.00  0.00     0.061 A 
ATOM      2  C3  <0> d           0.008  -0.820  -1.140  0.00  0.00    -0.012 A 
ATOM      3  C4  <0> d           0.028  -2.118  -0.729  0.00  0.00     0.182 A 
ATOM      4  O1  <0> d           0.034  -2.120   0.619  0.00  0.00    -0.202 OA
ATOM      5  N1  <0> d           0.023  -0.773   1.054  0.00  0.00    -0.132 NA
ATOM      6  C5  <0> d           0.040  -3.273  -1.575  0.00  0.00     0.127 C 
ATOM      7  N2  <0> d           0.050  -4.189  -2.247  0.00  0.00    -0.189 NA
ATOM      8  H4  <0> d          -0.002  -0.478  -2.165  0.00  0.00     0.092 H 
ENDROOT
BRANCH   1   9
ATOM      9  C1  <0> d          -0.018   1.503   0.010  0.00  0.00    -0.033 C 
ATOM     10  H1  <0> d           1.004   1.880   0.003  0.00  0.00     0.035 H 
ATOM     11  H2  <0> d          -0.545   1.864  -0.873  0.00  0.00     0.035 H 
ATOM     12  H3  <0> d          -0.529   1.854   0.907  0.00  0.00     0.035 H 
ENDBRANCH   1   9
TORSDOF 1
