REMARK  6 active torsions:
REMARK  status: ('A' for Active; 'I' for Inactive)
REMARK    1  A    between atoms: C1_1  and  C2_2 
REMARK    2  A    between atoms: C2_2  and  C3_3 
REMARK    3  A    between atoms: C3_3  and  O1_4 
REMARK    4  A    between atoms: O1_4  and  C4_5 
REMARK    5  A    between atoms: C4_5  and  C5_7 
REMARK    6  A    between atoms: C5_7  and  N1_8 
ROOT
ATOM      1  C3  <0> d           0.718  -0.497  -1.257  0.00  0.00     0.029 C 
ATOM      2  H6  <0> d           0.191  -0.136  -2.140  0.00  0.00     0.075 H 
ATOM      3  H7  <0> d           1.741  -0.120  -1.264  0.00  0.00     0.075 H 
ENDROOT
BRANCH   1   4
ATOM      4  C2  <0> d           0.002  -0.004   0.002  0.00  0.00    -0.048 C 
ATOM      5  H4  <0> d           0.529  -0.365   0.885  0.00  0.00     0.035 H 
ATOM      6  H5  <0> d          -1.020  -0.381   0.010  0.00  0.00     0.035 H 
BRANCH   4   7
ATOM      7  C1  <0> d          -0.019   1.526   0.010  0.00  0.00    -0.075 C 
ATOM      8  H1  <0> d           1.004   1.903   0.003  0.00  0.00     0.027 H 
ATOM      9  H2  <0> d          -0.546   1.887  -0.873  0.00  0.00     0.027 H 
ATOM     10  H3  <0> d          -0.529   1.877   0.907  0.00  0.00     0.027 H 
ENDBRANCH   4   7
ENDBRANCH   1   4
BRANCH   1  11
ATOM     11  O1  <0> d           0.738  -1.926  -1.265  0.00  0.00    -0.320 OA
BRANCH  11  12
ATOM     12  C4  <0> d           1.334  -2.522  -2.309  0.00  0.00     0.286 C 
ATOM     13  O2  <0> d           1.823  -1.852  -3.188  0.00  0.00    -0.263 OA
BRANCH  12  14
ATOM     14  C5  <0> d           1.393  -4.026  -2.386  0.00  0.00     0.188 C 
ATOM     15  H8  <0> d           1.930  -4.413  -1.521  0.00  0.00     0.094 H 
ATOM     16  H9  <0> d           0.381  -4.429  -2.396  0.00  0.00     0.094 H 
BRANCH  14  17
ATOM     17  N1  <0> d           2.091  -4.426  -3.615  0.00  0.00     0.087 N 
ATOM     18  H10 <0> d           3.010  -4.011  -3.660  0.00  0.00     0.313 HD
ATOM     19  H11 <0> d           2.144  -5.431  -3.690  0.00  0.00     0.313 HD
ENDBRANCH  14  17
ENDBRANCH  12  14
ENDBRANCH  11  12
ENDBRANCH   1  11
TORSDOF 6
