REMARK  0 active torsions:
REMARK  status: ('A' for Active; 'I' for Inactive)
ROOT
ATOM      1  C1  <0> d          -0.017   1.390   0.010  0.00  0.00    -0.038 A 
ATOM      2  C2  <0> d           1.169   2.068   0.002  0.00  0.00     0.004 A 
ATOM      3  N1  <0> d           2.331   1.434  -0.013  0.00  0.00    -0.272 NA
ATOM      4  C3  <0> d           2.417   0.121  -0.020  0.00  0.00     0.015 A 
ATOM      5  C4  <0> d           1.256  -0.654  -0.013  0.00  0.00     0.029 A 
ATOM      6  C5  <0> d           0.002  -0.004   0.002  0.00  0.00     0.064 A 
ATOM      7  N2  <0> d          -0.950  -0.982   0.005  0.00  0.00    -0.278 N 
ATOM      8  H1  <0> d          -1.909  -0.834   0.015  0.00  0.00     0.189 HD
ATOM      9  N3  <0> d          -0.322  -2.233  -0.007  0.00  0.00    -0.186 NA
ATOM     10  C6  <0> d           0.972  -2.085  -0.018  0.00  0.00     0.035 A 
ATOM     11  H2  <0> d          -0.954   1.926   0.026  0.00  0.00     0.089 H 
ATOM     12  H3  <0> d           1.159   3.148   0.007  0.00  0.00     0.114 H 
ATOM     13  H4  <0> d           3.385  -0.358  -0.033  0.00  0.00     0.116 H 
ATOM     14  H5  <0> d           1.704  -2.879  -0.030  0.00  0.00     0.118 H 
ENDROOT
TORSDOF 0
