REMARK  3 active torsions:
REMARK  status: ('A' for Active; 'I' for Inactive)
REMARK    1  A    between atoms: C1_1  and  C2_2 
REMARK    2  A    between atoms: C2_2  and  C3_4 
REMARK    3  A    between atoms: C2_2  and  O1_11 
ROOT
ATOM      1  C3  <0> d          -0.135   3.794   0.024  0.00  0.00     0.100 A 
ATOM      2  C4  <0> d           1.106   3.180   0.009  0.00  0.00     0.143 A 
ATOM      3  C5  <0> d           1.173   1.794   0.001  0.00  0.00    -0.042 A 
ATOM      4  C6  <0> d          -0.013   1.076   0.008  0.00  0.00    -0.063 A 
ATOM      5  C7  <0> d          -1.214   1.759   0.017  0.00  0.00     0.003 A 
ATOM      6  N1  <0> d          -1.241   3.077   0.030  0.00  0.00    -0.260 NA
ATOM      7  F1  <0> d           2.236   3.921   0.002  0.00  0.00    -0.204 F 
ATOM      8  H5  <0> d           2.127   1.286  -0.011  0.00  0.00     0.088 H 
ATOM      9  H6  <0> d           0.002  -0.004   0.002  0.00  0.00     0.085 H 
ATOM     10  H7  <0> d          -2.142   1.206   0.018  0.00  0.00     0.114 H 
ENDROOT
BRANCH   1  11
ATOM     11  C2  <0> d          -0.222   5.299   0.033  0.00  0.00     0.077 C 
ATOM     12  H1  <0> d           0.746   5.720  -0.239  0.00  0.00     0.092 H 
BRANCH  11  13
ATOM     13  C1  <0> d          -0.611   5.778   1.433  0.00  0.00    -0.047 C 
ATOM     14  H2  <0> d          -1.578   5.357   1.706  0.00  0.00     0.031 H 
ATOM     15  H3  <0> d           0.142   5.454   2.151  0.00  0.00     0.031 H 
ATOM     16  H4  <0> d          -0.674   6.867   1.440  0.00  0.00     0.031 H 
ENDBRANCH  11  13
BRANCH  11  17
ATOM     17  O1  <0> d          -1.209   5.725  -0.908  0.00  0.00    -0.390 OA
ATOM     18  H8  <0> d          -1.319   6.684  -0.955  0.00  0.00     0.210 HD
ENDBRANCH  11  17
ENDBRANCH   1  11
TORSDOF 3
