REMARK  1 active torsions:
REMARK  status: ('A' for Active; 'I' for Inactive)
REMARK    1  A    between atoms: C3_3  and  C6_7 
ROOT
ATOM      1  C1  <0> d          -0.017   1.379   0.010  0.00  0.00    -0.065 A 
ATOM      2  C2  <0> d           1.180   2.073   0.002  0.00  0.00    -0.064 A 
ATOM      3  C3  <0> d           2.373   1.338  -0.013  0.00  0.00     0.058 A 
ATOM      4  C4  <0> d           2.306  -0.057  -0.020  0.00  0.00     0.018 A 
ATOM      5  N1  <0> d           1.141  -0.670  -0.013  0.00  0.00    -0.272 NA
ATOM      6  C5  <0> d           0.002  -0.004   0.002  0.00  0.00     0.002 A 
ATOM      7  H1  <0> d          -0.956   1.912   0.026  0.00  0.00     0.085 H 
ATOM      8  H2  <0> d           1.195   3.153   0.007  0.00  0.00     0.085 H 
ATOM      9  H3  <0> d           3.217  -0.637  -0.032  0.00  0.00     0.116 H 
ATOM     10  H4  <0> d          -0.931  -0.548   0.008  0.00  0.00     0.114 H 
ENDROOT
BRANCH   3  11
ATOM     11  C6  <0> d           3.679   2.026  -0.023  0.00  0.00     0.210 C 
ATOM     12  O1  <0> d           3.725   3.248  -0.017  0.00  0.00    -0.644 OA
ATOM     13  O2  <0> d           4.713   1.375  -0.036  0.00  0.00    -0.644 OA
ENDBRANCH   3  11
TORSDOF 1
