REMARK  0 active torsions:
REMARK  status: ('A' for Active; 'I' for Inactive)
ROOT
ATOM      1  C1  <0> d           0.002  -0.004   0.002  0.00  0.00    -0.080 A 
ATOM      2  C2  <0> d          -0.017   1.380   0.010  0.00  0.00    -0.076 A 
ATOM      3  C3  <0> d           1.164   2.095   0.002  0.00  0.00    -0.041 A 
ATOM      4  C4  <0> d           2.386   1.421  -0.013  0.00  0.00     0.054 A 
ATOM      5  C5  <0> d           2.397   0.015  -0.021  0.00  0.00     0.130 A 
ATOM      6  C6  <0> d           1.205  -0.684  -0.013  0.00  0.00    -0.045 A 
ATOM      7  F1  <0> d           3.571  -0.653  -0.036  0.00  0.00    -0.205 F 
ATOM      8  C7  <0> d           3.505   2.374  -0.019  0.00  0.00     0.163 A 
ATOM      9  O1  <0> d           4.684   2.089  -0.032  0.00  0.00    -0.292 OA
ATOM     10  C8  <0> d           2.933   3.771  -0.005  0.00  0.00    -0.001 A 
ATOM     11  C9  <0> d           1.409   3.585   0.008  0.00  0.00    -0.034 A 
ATOM     12  H1  <0> d          -0.927  -0.555   0.008  0.00  0.00     0.083 H 
ATOM     13  H2  <0> d          -0.961   1.904   0.017  0.00  0.00     0.084 H 
ATOM     14  H3  <0> d           1.214  -1.764  -0.019  0.00  0.00     0.088 H 
ATOM     15  H4  <0> d           3.241   4.266  -0.817  0.00  0.00     0.045 H 
ATOM     16  H5  <0> d           3.256   4.305   0.889  0.00  0.00     0.045 H 
ATOM     17  H6  <0> d           0.968   4.040  -0.879  0.00  0.00     0.040 H 
ATOM     18  H7  <0> d           0.985   4.030   0.908  0.00  0.00     0.040 H 
ENDROOT
TORSDOF 0
