REMARK  8 active torsions:
REMARK  status: ('A' for Active; 'I' for Inactive)
REMARK    1  A    between atoms: C1_1  and  C2_2 
REMARK    2  A    between atoms: C2_2  and  C3_3 
REMARK    3  A    between atoms: C3_3  and  C4_5 
REMARK    4  A    between atoms: C3_3  and  C5_6 
REMARK    5  A    between atoms: C5_6  and  C6_8 
REMARK    6  A    between atoms: C5_6  and  C7_9 
REMARK    7  A    between atoms: C7_9  and  C8_11 
REMARK    8  A    between atoms: C7_9  and  O1_12 
ROOT
ATOM      1  C5  <0> d          -0.790   1.786   3.657  0.00  0.00    -0.030 C 
ATOM      2  H2  <0> d          -1.848   1.652   3.880  0.00  0.00     0.043 H 
ENDROOT
BRANCH   1   3
ATOM      3  C3  <0> d          -0.462   1.119   2.320  0.00  0.00    -0.052 C 
ATOM      4  H1  <0> d           0.571   1.336   2.048  0.00  0.00     0.040 H 
BRANCH   3   5
ATOM      5  C2  <0> d          -1.399   1.659   1.237  0.00  0.00    -0.065 C 
ATOM      6  H7  <0> d          -1.341   2.747   1.216  0.00  0.00     0.033 H 
ATOM      7  H8  <0> d          -2.422   1.354   1.457  0.00  0.00     0.033 H 
BRANCH   5   8
ATOM      8  C1  <0> d          -0.981   1.100  -0.124  0.00  0.00    -0.076 C 
ATOM      9  H4  <0> d          -1.039   0.011  -0.104  0.00  0.00     0.027 H 
ATOM     10  H5  <0> d           0.042   1.405  -0.344  0.00  0.00     0.027 H 
ATOM     11  H6  <0> d          -1.648   1.485  -0.895  0.00  0.00     0.027 H 
ENDBRANCH   5   8
ENDBRANCH   3   5
BRANCH   3  12
ATOM     12  C4  <0> d          -0.648  -0.395   2.446  0.00  0.00    -0.072 C 
ATOM     13  H9  <0> d          -0.415  -0.870   1.493  0.00  0.00     0.028 H 
ATOM     14  H10 <0> d           0.019  -0.780   3.217  0.00  0.00     0.028 H 
ATOM     15  H11 <0> d          -1.681  -0.613   2.717  0.00  0.00     0.028 H 
ENDBRANCH   3  12
ENDBRANCH   1   3
BRANCH   1  16
ATOM     16  C6  <0> d           0.050   1.146   4.765  0.00  0.00    -0.070 C 
ATOM     17  H12 <0> d          -0.184   1.622   5.718  0.00  0.00     0.028 H 
ATOM     18  H13 <0> d          -0.178   0.082   4.825  0.00  0.00     0.028 H 
ATOM     19  H14 <0> d           1.108   1.280   4.542  0.00  0.00     0.028 H 
ENDBRANCH   1  16
BRANCH   1  20
ATOM     20  C7  <0> d          -0.471   3.280   3.573  0.00  0.00     0.035 C 
ATOM     21  H3  <0> d          -1.001   3.718   2.728  0.00  0.00     0.082 H 
BRANCH  20  22
ATOM     22  C8  <0> d          -0.913   3.969   4.865  0.00  0.00    -0.052 C 
ATOM     23  H15 <0> d          -1.966   3.754   5.050  0.00  0.00     0.030 H 
ATOM     24  H16 <0> d          -0.316   3.598   5.698  0.00  0.00     0.030 H 
ATOM     25  H17 <0> d          -0.774   5.046   4.769  0.00  0.00     0.030 H 
ENDBRANCH  20  22
BRANCH  20  26
ATOM     26  O1  <0> d           0.936   3.457   3.396  0.00  0.00    -0.396 OA
ATOM     27  H18 <0> d           1.211   4.382   3.335  0.00  0.00     0.210 HD
ENDBRANCH  20  26
ENDBRANCH   1  20
TORSDOF 8
