REMARK  0 active torsions:
REMARK  status: ('A' for Active; 'I' for Inactive)
ROOT
ATOM      1  C1  <0> d          -1.219   1.751   0.017  0.00  0.00    -0.082 A 
ATOM      2  C2  <0> d          -0.013   1.076   0.008  0.00  0.00    -0.082 A 
ATOM      3  C3  <0> d           1.173   1.783   0.000  0.00  0.00    -0.075 A 
ATOM      4  C4  <0> d           1.159   3.168   0.008  0.00  0.00    -0.034 A 
ATOM      5  C5  <0> d          -0.047   3.844   0.023  0.00  0.00    -0.051 A 
ATOM      6  C6  <0> d          -1.235   3.132   0.031  0.00  0.00    -0.076 A 
ATOM      7  C7  <0> d           0.203   5.336   0.027  0.00  0.00    -0.039 C 
ATOM      8  C8  <0> d           1.678   5.498   0.454  0.00  0.00    -0.042 C 
ATOM      9  C9  <0> d           2.302   4.161   0.001  0.00  0.00     0.056 C 
ATOM     10  H1  <0> d           2.803   4.214  -0.977  0.00  0.00     0.070 H 
ATOM     11  C10 <0> d           3.349   3.740   0.946  0.00  0.00     0.068 C 
ATOM     12  N1  <0> d           4.158   3.416   1.675  0.00  0.00    -0.197 NA
ATOM     13  H2  <0> d          -2.147   1.200   0.018  0.00  0.00     0.083 H 
ATOM     14  H3  <0> d           0.002  -0.004   0.002  0.00  0.00     0.083 H 
ATOM     15  H4  <0> d           2.115   1.255  -0.011  0.00  0.00     0.084 H 
ATOM     16  H5  <0> d          -2.178   3.659   0.043  0.00  0.00     0.084 H 
ATOM     17  H6  <0> d           0.027   5.741  -0.980  0.00  0.00     0.040 H 
ATOM     18  H7  <0> d          -0.480   5.820   0.741  0.00  0.00     0.040 H 
ATOM     19  H8  <0> d           2.114   6.369  -0.058  0.00  0.00     0.035 H 
ATOM     20  H9  <0> d           1.730   5.648   1.542  0.00  0.00     0.035 H 
ENDROOT
TORSDOF 0
