REMARK  1 active torsions:
REMARK  status: ('A' for Active; 'I' for Inactive)
REMARK    1  A    between atoms: C1_1  and  C2_2 
ROOT
ATOM      1  C2  <0> d           1.153   3.438   0.009  0.00  0.00    -0.020 A 
ATOM      2  C3  <0> d           1.170   2.056   0.002  0.00  0.00    -0.035 A 
ATOM      3  C4  <0> d          -0.016   1.347   0.009  0.00  0.00     0.137 A 
ATOM      4  C5  <0> d          -1.236   2.031   0.019  0.00  0.00     0.086 A 
ATOM      5  C6  <0> d          -1.245   3.428   0.032  0.00  0.00    -0.022 A 
ATOM      6  C7  <0> d          -0.052   4.123   0.025  0.00  0.00     0.123 A 
ATOM      7  F1  <0> d          -0.059   5.474   0.032  0.00  0.00    -0.206 F 
ATOM      8  C8  <0> d          -2.470   1.304   0.021  0.00  0.00     0.102 C 
ATOM      9  N1  <0> d          -3.448   0.727   0.022  0.00  0.00    -0.191 NA
ATOM     10  F2  <0> d           0.002  -0.004   0.002  0.00  0.00    -0.204 F 
ATOM     11  H4  <0> d           2.113   1.529  -0.009  0.00  0.00     0.089 H 
ATOM     12  H5  <0> d          -2.183   3.963   0.044  0.00  0.00     0.090 H 
ENDROOT
BRANCH   1  13
ATOM     13  C1  <0> d           2.451   4.204   0.002  0.00  0.00    -0.048 C 
ATOM     14  H1  <0> d           3.294   3.498  -0.010  0.00  0.00     0.033 H 
ATOM     15  H2  <0> d           2.511   4.832   0.903  0.00  0.00     0.033 H 
ATOM     16  H3  <0> d           2.495   4.842  -0.893  0.00  0.00     0.033 H 
ENDBRANCH   1  13
TORSDOF 1
