REMARK  1 active torsions:
REMARK  status: ('A' for Active; 'I' for Inactive)
REMARK    1  A    between atoms: C4_5  and  C5_6 
ROOT
ATOM      1  C1  <0> d          -0.017   1.392   0.010  0.00  0.00    -0.062 A 
ATOM      2  C2  <0> d           1.186   2.008   0.002  0.00  0.00    -0.044 A 
ATOM      3  S1  <0> d           2.319   0.633  -0.017  0.00  0.00    -0.113 SA
ATOM      4  C3  <0> d           1.213  -0.631  -0.013  0.00  0.00    -0.031 A 
ATOM      5  C4  <0> d           0.002  -0.004   0.002  0.00  0.00     0.022 A 
ATOM      6  H1  <0> d          -0.942   1.949   0.026  0.00  0.00     0.085 H 
ATOM      7  H2  <0> d           1.405   3.066   0.005  0.00  0.00     0.095 H 
ATOM      8  H3  <0> d           1.414  -1.692  -0.021  0.00  0.00     0.096 H 
ENDROOT
BRANCH   5   9
ATOM      9  C5  <0> d          -1.255  -0.781   0.010  0.00  0.00     0.207 A 
ATOM     10  N1  <0> d          -1.373  -2.111   0.004  0.00  0.00    -0.106 NA
ATOM     11  N2  <0> d          -2.632  -2.388   0.015  0.00  0.00    -0.021 NA
ATOM     12  N3  <0> d          -3.308  -1.293   0.028  0.00  0.00    -0.021 NA
ATOM     13  N4  <0> d          -2.497  -0.291   0.031  0.00  0.00    -0.106 NA
ENDBRANCH   5   9
TORSDOF 1
