REMARK  4 active torsions:
REMARK  status: ('A' for Active; 'I' for Inactive)
REMARK    1  A    between atoms: C2_2  and  C3_3 
REMARK    2  A    between atoms: C3_3  and  C4_4 
REMARK    3  A    between atoms: C3_3  and  C7_7 
REMARK    4  A    between atoms: C3_3  and  O1_10 
ROOT
ATOM      1  C1  <0> d           1.042   4.196   0.015  0.00  0.00    -0.151 C 
ATOM      2  C2  <0> d           1.150   3.027   0.007  0.00  0.00    -0.078 C 
ATOM      3  H1  <0> d           0.945   5.242   0.021  0.00  0.00     0.166 H 
ENDROOT
BRANCH   2   4
ATOM      4  C3  <0> d           1.286   1.562  -0.002  0.00  0.00     0.127 C 
BRANCH   4   5
ATOM      5  C4  <0> d           2.064   1.114   1.238  0.00  0.00    -0.013 A 
ATOM      6  C6  <0> d           1.469   1.454   2.606  0.00  0.00    -0.058 A 
ATOM      7  C5  <0> d           1.446   0.010   2.099  0.00  0.00    -0.058 A 
ATOM      8  H5  <0> d           2.163   1.694   3.411  0.00  0.00     0.033 H 
ATOM      9  H6  <0> d           0.524   1.998   2.623  0.00  0.00     0.033 H 
ATOM     10  H3  <0> d           0.485  -0.397   1.782  0.00  0.00     0.033 H 
ATOM     11  H4  <0> d           2.125  -0.700   2.570  0.00  0.00     0.033 H 
ATOM     12  H2  <0> d           3.149   1.130   1.143  0.00  0.00     0.046 H 
ENDBRANCH   4   5
BRANCH   4  13
ATOM     13  C7  <0> d           2.040   1.127  -1.261  0.00  0.00    -0.013 A 
ATOM     14  C9  <0> d           1.484   1.586  -2.610  0.00  0.00    -0.058 A 
ATOM     15  C8  <0> d           2.767   2.212  -2.058  0.00  0.00    -0.058 A 
ATOM     16  H10 <0> d           1.580   0.902  -3.453  0.00  0.00     0.033 H 
ATOM     17  H11 <0> d           0.581   2.197  -2.601  0.00  0.00     0.033 H 
ATOM     18  H8  <0> d           2.709   3.235  -1.686  0.00  0.00     0.033 H 
ATOM     19  H9  <0> d           3.707   1.938  -2.538  0.00  0.00     0.033 H 
ATOM     20  H7  <0> d           2.501   0.141  -1.216  0.00  0.00     0.046 H 
ENDBRANCH   4  13
BRANCH   4  21
ATOM     21  O1  <0> d          -0.011   0.963   0.007  0.00  0.00    -0.377 OA
ATOM     22  H12 <0> d           0.002  -0.004   0.002  0.00  0.00     0.211 HD
ENDBRANCH   4  21
ENDBRANCH   2   4
TORSDOF 4
