REMARK  5 active torsions:
REMARK  status: ('A' for Active; 'I' for Inactive)
REMARK    1  A    between atoms: C1_1  and  C2_2 
REMARK       I    between atoms: C2_2  and  N1_4 
REMARK    2  A    between atoms: N1_4  and  C3_5 
REMARK    3  A    between atoms: C3_5  and  C4_7 
REMARK    4  A    between atoms: C3_5  and  C5_9 
REMARK    5  A    between atoms: C4_7  and  O2_8 
ROOT
ATOM      1  C3  <0> d          -1.329   1.940   0.019  0.00  0.00     0.116 C 
ATOM      2  H1  <0> d          -1.400   2.570  -0.867  0.00  0.00     0.093 H 
ENDROOT
BRANCH   1   3
ATOM      3  N1  <0> d          -2.430   0.973   0.019  0.00  0.00    -0.345 N 
ATOM      4  C2  <0> d          -3.637   1.325  -0.467  0.00  0.00     0.214 C 
ATOM      5  O1  <0> d          -3.812   2.443  -0.904  0.00  0.00    -0.274 OA
ATOM      6  H5  <0> d          -2.290   0.079   0.368  0.00  0.00     0.163 HD
BRANCH   4   7
ATOM      7  C1  <0> d          -4.769   0.330  -0.467  0.00  0.00    -0.003 C 
ATOM      8  H2  <0> d          -4.425  -0.611  -0.039  0.00  0.00     0.040 H 
ATOM      9  H3  <0> d          -5.595   0.720   0.129  0.00  0.00     0.040 H 
ATOM     10  H4  <0> d          -5.106   0.163  -1.490  0.00  0.00     0.040 H 
ENDBRANCH   4   7
ENDBRANCH   1   3
BRANCH   1  11
ATOM     11  C4  <0> d          -1.417   2.811   1.273  0.00  0.00     0.045 C 
ATOM     12  H6  <0> d          -0.652   3.587   1.230  0.00  0.00     0.077 H 
ATOM     13  H7  <0> d          -2.402   3.274   1.326  0.00  0.00     0.077 H 
BRANCH  11  14
ATOM     14  O2  <0> d          -1.208   2.001   2.432  0.00  0.00    -0.398 OA
ATOM     15  H8  <0> d          -1.249   2.489   3.266  0.00  0.00     0.209 HD
ENDBRANCH  11  14
ENDBRANCH   1  11
BRANCH   1  16
ATOM     16  C5  <0> d          -0.014   1.204   0.009  0.00  0.00     0.198 C 
ATOM     17  O3  <0> d           0.002  -0.004   0.002  0.00  0.00    -0.646 OA
ATOM     18  O4  <0> d           1.139   1.891   0.001  0.00  0.00    -0.646 OA
ENDBRANCH   1  16
TORSDOF 5
