REMARK  2 active torsions:
REMARK  status: ('A' for Active; 'I' for Inactive)
REMARK    1  A    between atoms: C1_1  and  C2_2 
REMARK    2  A    between atoms: C4_4  and  O3_9 
ROOT
ATOM      1  C2  <0> d           0.002  -0.004   0.002  0.00  0.00     0.016 A 
ATOM      2  C3  <0> d          -1.164  -0.711   0.004  0.00  0.00    -0.038 A 
ATOM      3  C4  <0> d          -1.109  -2.119  -0.004  0.00  0.00     0.088 A 
ATOM      4  C5  <0> d           0.091  -2.745  -0.013  0.00  0.00     0.054 A 
ATOM      5  O1  <0> d           1.235  -2.043  -0.015  0.00  0.00    -0.285 OA
ATOM      6  C6  <0> d           1.224  -0.700  -0.013  0.00  0.00     0.293 A 
ATOM      7  O2  <0> d           2.276  -0.083  -0.020  0.00  0.00    -0.259 OA
ATOM      8  H4  <0> d          -2.115  -0.200   0.011  0.00  0.00     0.088 H 
ATOM      9  H5  <0> d           0.129  -3.824  -0.019  0.00  0.00     0.128 H 
ENDROOT
BRANCH   1  10
ATOM     10  C1  <0> d          -0.018   1.503   0.010  0.00  0.00    -0.045 C 
ATOM     11  H1  <0> d           1.004   1.880   0.003  0.00  0.00     0.033 H 
ATOM     12  H2  <0> d          -0.545   1.864  -0.873  0.00  0.00     0.033 H 
ATOM     13  H3  <0> d          -0.529   1.854   0.907  0.00  0.00     0.033 H 
ENDBRANCH   1  10
BRANCH   3  14
ATOM     14  O3  <0> d          -2.258  -2.846  -0.002  0.00  0.00    -0.359 OA
ATOM     15  H6  <0> d          -2.118  -3.803  -0.008  0.00  0.00     0.217 HD
ENDBRANCH   3  14
TORSDOF 2
