REMARK  5 active torsions:
REMARK  status: ('A' for Active; 'I' for Inactive)
REMARK    1  A    between atoms: C1_1  and  C2_2 
REMARK    2  A    between atoms: C2_2  and  C3_3 
REMARK    3  A    between atoms: C2_2  and  C4_4 
REMARK    4  A    between atoms: C4_4  and  C5_5 
REMARK    5  A    between atoms: C5_5  and  C6_7 
ROOT
ATOM      1  C5  <0> d          -0.520   0.748   2.448  0.00  0.00     0.131 C 
ATOM      2  O1  <0> d          -0.185  -0.403   2.305  0.00  0.00    -0.298 OA
ENDROOT
BRANCH   1   3
ATOM      3  C4  <0> d          -0.671   1.323   3.833  0.00  0.00    -0.007 C 
ATOM      4  H8  <0> d          -0.045   2.094   3.944  0.00  0.00     0.044 H 
ATOM      5  H9  <0> d          -1.697   1.663   3.976  0.00  0.00     0.044 H 
BRANCH   3   6
ATOM      6  C2  <0> d          -0.342   0.246   4.870  0.00  0.00    -0.055 C 
ATOM      7  H4  <0> d          -0.965  -0.631   4.693  0.00  0.00     0.039 H 
BRANCH   6   8
ATOM      8  C1  <0> d           1.133  -0.142   4.751  0.00  0.00    -0.073 C 
ATOM      9  H1  <0> d           1.367  -0.909   5.489  0.00  0.00     0.028 H 
ATOM     10  H2  <0> d           1.327  -0.530   3.751  0.00  0.00     0.028 H 
ATOM     11  H3  <0> d           1.755   0.735   4.928  0.00  0.00     0.028 H 
ENDBRANCH   6   8
BRANCH   6  12
ATOM     12  C3  <0> d          -0.615   0.790   6.274  0.00  0.00    -0.073 C 
ATOM     13  H5  <0> d          -1.666   1.067   6.358  0.00  0.00     0.028 H 
ATOM     14  H6  <0> d          -0.381   0.024   7.012  0.00  0.00     0.028 H 
ATOM     15  H7  <0> d           0.008   1.667   6.450  0.00  0.00     0.028 H 
ENDBRANCH   6  12
ENDBRANCH   3   6
ENDBRANCH   1   3
BRANCH   1  16
ATOM     16  C6  <0> d          -0.789   1.611   1.242  0.00  0.00     0.004 C 
ATOM     17  C10 <0> d          -2.268   1.485   0.789  0.00  0.00    -0.055 C 
ATOM     18  C9  <0> d          -2.243   1.875  -0.703  0.00  0.00    -0.064 C 
ATOM     19  H17 <0> d          -2.899   2.172   1.353  0.00  0.00     0.034 H 
ATOM     20  H18 <0> d          -2.620   0.460   0.909  0.00  0.00     0.034 H 
ATOM     21  C8  <0> d          -0.809   1.622  -1.200  0.00  0.00    -0.064 C 
ATOM     22  H15 <0> d          -2.497   2.929  -0.818  0.00  0.00     0.033 H 
ATOM     23  H16 <0> d          -2.946   1.258  -1.263  0.00  0.00     0.033 H 
ATOM     24  C7  <0> d          -0.013   1.086   0.008  0.00  0.00    -0.055 C 
ATOM     25  H13 <0> d          -0.367   2.552  -1.555  0.00  0.00     0.033 H 
ATOM     26  H14 <0> d          -0.816   0.882  -2.000  0.00  0.00     0.033 H 
ATOM     27  H11 <0> d           0.002  -0.004   0.002  0.00  0.00     0.034 H 
ATOM     28  H12 <0> d           1.003   1.480   0.000  0.00  0.00     0.034 H 
ATOM     29  H10 <0> d          -0.549   2.559   1.450  0.00  0.00     0.051 H 
ENDBRANCH   1  16
TORSDOF 5
