REMARK  2 active torsions:
REMARK  status: ('A' for Active; 'I' for Inactive)
REMARK    1  A    between atoms: C4_5  and  C6_7 
REMARK    2  A    between atoms: C6_7  and  N2_8 
ROOT
ATOM      1  C6  <0> d           1.692   3.192   0.003  0.00  0.00     0.038 C 
ATOM      2  H5  <0> d           2.644   3.288  -0.519  0.00  0.00     0.074 H 
ATOM      3  H6  <0> d           0.939   3.797  -0.500  0.00  0.00     0.074 H 
ENDROOT
BRANCH   1   4
ATOM      4  C4  <0> d           1.850   3.666   1.425  0.00  0.00     0.052 A 
ATOM      5  N1  <0> d           0.843   3.544   2.268  0.00  0.00    -0.264 NA
ATOM      6  C3  <0> d           0.935   3.945   3.521  0.00  0.00     0.003 A 
ATOM      7  C2  <0> d           2.102   4.511   3.998  0.00  0.00    -0.066 A 
ATOM      8  H3  <0> d           0.089   3.829   4.182  0.00  0.00     0.114 H 
ATOM      9  C1  <0> d           3.182   4.655   3.141  0.00  0.00    -0.080 A 
ATOM     10  H2  <0> d           2.171   4.838   5.025  0.00  0.00     0.085 H 
ATOM     11  C5  <0> d           3.050   4.217   1.832  0.00  0.00    -0.058 A 
ATOM     12  H1  <0> d           4.107   5.094   3.486  0.00  0.00     0.083 H 
ATOM     13  H4  <0> d           3.873   4.309   1.139  0.00  0.00     0.086 H 
ENDBRANCH   1   4
BRANCH   1  14
ATOM     14  N2  <0> d           1.273   1.788  -0.001  0.00  0.00    -0.361 N 
ATOM     15  C10 <0> d           2.107   0.710  -0.014  0.00  0.00    -0.020 A 
ATOM     16  C9  <0> d           1.352  -0.407  -0.013  0.00  0.00    -0.067 A 
ATOM     17  H10 <0> d           3.187   0.744  -0.025  0.00  0.00     0.111 H 
ATOM     18  C8  <0> d           0.002  -0.004   0.002  0.00  0.00    -0.067 A 
ATOM     19  H9  <0> d           1.715  -1.425  -0.022  0.00  0.00     0.085 H 
ATOM     20  C7  <0> d          -0.016   1.344   0.009  0.00  0.00    -0.020 A 
ATOM     21  H8  <0> d          -0.860  -0.655   0.007  0.00  0.00     0.085 H 
ATOM     22  H7  <0> d          -0.900   1.966   0.017  0.00  0.00     0.111 H 
ENDBRANCH   1  14
TORSDOF 2
