REMARK  0 active torsions:
REMARK  status: ('A' for Active; 'I' for Inactive)
ROOT
ATOM      1  C1  <0> d          -0.013   1.086   0.008  0.00  0.00    -0.062 C 
ATOM      2  C2  <0> d          -0.802   1.617   1.230  0.00  0.00    -0.052 C 
ATOM      3  C3  <0> d          -1.258   3.029   0.801  0.00  0.00     0.043 A 
ATOM      4  H1  <0> d          -0.719   3.845   1.282  0.00  0.00     0.057 H 
ATOM      5  C4  <0> d          -1.269   3.037  -0.744  0.00  0.00     0.024 A 
ATOM      6  H2  <0> d          -0.737   3.858  -1.225  0.00  0.00     0.073 H 
ATOM      7  C5  <0> d          -0.825   1.630  -1.193  0.00  0.00    -0.045 C 
ATOM      8  N1  <0> d          -2.732   3.177  -0.639  0.00  0.00    -0.355 N 
ATOM      9  C6  <0> d          -2.764   3.174   0.719  0.00  0.00     0.224 A 
ATOM     10  O1  <0> d          -3.650   3.255   1.543  0.00  0.00    -0.273 OA
ATOM     11  H3  <0> d           0.002  -0.004   0.002  0.00  0.00     0.033 H 
ATOM     12  H4  <0> d           1.002   1.484   0.001  0.00  0.00     0.033 H 
ATOM     13  H5  <0> d          -1.666   0.984   1.430  0.00  0.00     0.034 H 
ATOM     14  H6  <0> d          -0.157   1.672   2.106  0.00  0.00     0.034 H 
ATOM     15  H7  <0> d          -0.197   1.694  -2.081  0.00  0.00     0.036 H 
ATOM     16  H8  <0> d          -1.694   0.999  -1.383  0.00  0.00     0.036 H 
ATOM     17  H9  <0> d          -3.431   3.247  -1.308  0.00  0.00     0.162 HD
ENDROOT
TORSDOF 0
