REMARK  1 active torsions:
REMARK  status: ('A' for Active; 'I' for Inactive)
REMARK    1  A    between atoms: C7_9  and  O2_10 
ROOT
ATOM      1  C1  <0> d          -0.017   1.389   0.010  0.00  0.00    -0.050 A 
ATOM      2  C2  <0> d           1.150   2.096   0.002  0.00  0.00    -0.066 A 
ATOM      3  C3  <0> d           2.374   1.421  -0.013  0.00  0.00     0.020 A 
ATOM      4  C4  <0> d           3.771   1.860  -0.023  0.00  0.00     0.041 A 
ATOM      5  N1  <0> d           4.513   0.796  -0.036  0.00  0.00    -0.140 NA
ATOM      6  O1  <0> d           3.695  -0.357  -0.035  0.00  0.00    -0.213 OA
ATOM      7  C5  <0> d           2.399   0.016  -0.021  0.00  0.00     0.115 A 
ATOM      8  C6  <0> d           1.204  -0.690  -0.014  0.00  0.00    -0.015 A 
ATOM      9  C7  <0> d           0.002  -0.004   0.002  0.00  0.00     0.068 A 
ATOM     10  H1  <0> d          -0.961   1.912   0.026  0.00  0.00     0.087 H 
ATOM     11  H2  <0> d           1.129   3.176   0.008  0.00  0.00     0.085 H 
ATOM     12  H3  <0> d           4.120   2.882  -0.021  0.00  0.00     0.119 H 
ATOM     13  H4  <0> d           1.212  -1.770  -0.020  0.00  0.00     0.092 H 
ENDROOT
BRANCH   9  14
ATOM     14  O2  <0> d          -1.168  -0.694   0.009  0.00  0.00    -0.361 OA
ATOM     15  H5  <0> d          -1.515  -0.889  -0.872  0.00  0.00     0.217 HD
ENDBRANCH   9  14
TORSDOF 1
