REMARK  5 active torsions:
REMARK  status: ('A' for Active; 'I' for Inactive)
REMARK    1  A    between atoms: C1_1  and  C2_2 
REMARK    2  A    between atoms: C2_2  and  C3_3 
REMARK    3  A    between atoms: C3_3  and  C4_4 
REMARK    4  A    between atoms: C4_4  and  C5_6 
REMARK    5  A    between atoms: C4_4  and  N1_8 
REMARK       I    between atoms: N1_8  and  C6_9 
REMARK       I    between atoms: C6_9  and  N2_11 
ROOT
ATOM      1  C4  <0> d          -2.449   1.120   0.020  0.00  0.00     0.098 C 
ATOM      2  H1  <0> d          -2.333   0.214  -0.575  0.00  0.00     0.089 H 
ENDROOT
BRANCH   1   3
ATOM      3  C3  <0> d          -3.559   1.986  -0.580  0.00  0.00    -0.037 C 
ATOM      4  H7  <0> d          -4.512   1.463  -0.498  0.00  0.00     0.036 H 
ATOM      5  H8  <0> d          -3.615   2.930  -0.039  0.00  0.00     0.036 H 
BRANCH   3   6
ATOM      6  C2  <0> d          -3.253   2.259  -2.054  0.00  0.00    -0.066 C 
ATOM      7  H5  <0> d          -2.300   2.781  -2.136  0.00  0.00     0.032 H 
ATOM      8  H6  <0> d          -3.197   1.314  -2.594  0.00  0.00     0.032 H 
BRANCH   6   9
ATOM      9  C1  <0> d          -4.363   3.124  -2.654  0.00  0.00    -0.076 C 
ATOM     10  H2  <0> d          -5.316   2.601  -2.571  0.00  0.00     0.027 H 
ATOM     11  H3  <0> d          -4.419   4.069  -2.113  0.00  0.00     0.027 H 
ATOM     12  H4  <0> d          -4.145   3.319  -3.704  0.00  0.00     0.027 H 
ENDBRANCH   6   9
ENDBRANCH   3   6
ENDBRANCH   1   3
BRANCH   1  13
ATOM     13  C5  <0> d          -2.811   0.749   1.435  0.00  0.00     0.196 C 
ATOM     14  O1  <0> d          -2.091   1.077   2.348  0.00  0.00    -0.646 OA
ATOM     15  O3  <0> d          -3.933   0.054   1.681  0.00  0.00    -0.646 OA
ENDBRANCH   1  13
BRANCH   1  16
ATOM     16  N1  <0> d          -1.191   1.870   0.018  0.00  0.00    -0.329 N 
ATOM     17  C6  <0> d          -0.014   1.212   0.009  0.00  0.00     0.314 C 
ATOM     18  O2  <0> d           0.002  -0.004   0.002  0.00  0.00    -0.248 OA
ATOM     19  N2  <0> d           1.143   1.901   0.001  0.00  0.00    -0.352 N 
ATOM     20  H10 <0> d           1.990   1.428  -0.009  0.00  0.00     0.160 HD
ATOM     21  H11 <0> d           1.130   2.871   0.007  0.00  0.00     0.160 HD
ATOM     22  H9  <0> d          -1.204   2.840   0.023  0.00  0.00     0.165 HD
ENDBRANCH   1  16
TORSDOF 5
