REMARK  5 active torsions:
REMARK  status: ('A' for Active; 'I' for Inactive)
REMARK    1  A    between atoms: C1_1  and  O1_2 
REMARK    2  A    between atoms: O1_2  and  C2_3 
REMARK    3  A    between atoms: C2_3  and  C3_4 
REMARK    4  A    between atoms: C3_4  and  C4_5 
REMARK    5  A    between atoms: C7_8  and  N1_11 
ROOT
ATOM      1  C4  <0> d           1.208  -0.681  -0.013  0.00  0.00    -0.056 A 
ATOM      2  C5  <0> d           0.002  -0.004   0.002  0.00  0.00    -0.075 A 
ATOM      3  C6  <0> d          -0.017   1.377   0.010  0.00  0.00    -0.057 A 
ATOM      4  C7  <0> d           1.178   2.086   0.002  0.00  0.00     0.025 A 
ATOM      5  C8  <0> d           2.387   1.403  -0.012  0.00  0.00    -0.057 A 
ATOM      6  C9  <0> d           2.399   0.022  -0.020  0.00  0.00    -0.075 A 
ATOM      7  H8  <0> d          -0.926  -0.556   0.008  0.00  0.00     0.084 H 
ATOM      8  H9  <0> d          -0.959   1.905   0.017  0.00  0.00     0.086 H 
ATOM      9  H10 <0> d           3.318   1.952  -0.018  0.00  0.00     0.086 H 
ATOM     10  H11 <0> d           3.339  -0.509  -0.032  0.00  0.00     0.084 H 
ENDROOT
BRANCH   1  11
ATOM     11  C3  <0> d           1.224  -2.188  -0.021  0.00  0.00    -0.021 C 
ATOM     12  H6  <0> d           0.335  -2.567   0.504  0.00  0.00     0.043 H 
ATOM     13  H7  <0> d           2.131  -2.547   0.487  0.00  0.00     0.043 H 
BRANCH  11  14
ATOM     14  C2  <0> d           1.216  -2.690  -1.467  0.00  0.00     0.023 C 
ATOM     15  H4  <0> d           2.105  -2.311  -1.992  0.00  0.00     0.074 H 
ATOM     16  H5  <0> d           0.309  -2.330  -1.975  0.00  0.00     0.074 H 
BRANCH  14  17
ATOM     17  O1  <0> d           1.232  -4.119  -1.474  0.00  0.00    -0.396 OA
BRANCH  17  18
ATOM     18  C1  <0> d           1.226  -4.693  -2.783  0.00  0.00     0.004 C 
ATOM     19  H1  <0> d           1.239  -5.790  -2.702  0.00  0.00     0.066 H 
ATOM     20  H2  <0> d           2.115  -4.356  -3.336  0.00  0.00     0.066 H 
ATOM     21  H3  <0> d           0.319  -4.375  -3.318  0.00  0.00     0.066 H 
ENDBRANCH  17  18
ENDBRANCH  14  17
ENDBRANCH  11  14
ENDBRANCH   1  11
BRANCH   4  22
ATOM     22  N1  <0> d           1.162   3.483   0.010  0.00  0.00    -0.399 N 
ATOM     23  H12 <0> d           2.109   4.043   0.004  0.00  0.00     0.156 HD
ATOM     24  H13 <0> d           0.204   4.022   0.022  0.00  0.00     0.156 HD
ENDBRANCH   4  22
TORSDOF 5
