REMARK  6 active torsions:
REMARK  status: ('A' for Active; 'I' for Inactive)
REMARK    1  A    between atoms: C1_1  and  C2_2 
REMARK    2  A    between atoms: C3_3  and  N3_11 
REMARK    3  A    between atoms: C4_4  and  C7_10 
REMARK    4  A    between atoms: N1_5  and  C5_7 
REMARK    5  A    between atoms: C5_7  and  O1_8 
REMARK    6  A    between atoms: O1_8  and  C6_9 
ROOT
ATOM      1  C2  <0> d           2.100   0.651  -0.015  0.00  0.00     0.079 A 
ATOM      2  C3  <0> d           1.272   1.782  -0.001  0.00  0.00     0.076 A 
ATOM      3  C4  <0> d          -0.016   1.355   0.009  0.00  0.00     0.057 A 
ATOM      4  N1  <0> d           0.002  -0.004   0.002  0.00  0.00    -0.248 N 
ATOM      5  N2  <0> d           1.341  -0.415  -0.013  0.00  0.00    -0.173 NA
ENDROOT
BRANCH   4   6
ATOM      6  C5  <0> d          -1.170  -0.883   0.008  0.00  0.00     0.098 C 
ATOM      7  H4  <0> d          -0.922  -1.815   0.515  0.00  0.00     0.110 H 
ATOM      8  H5  <0> d          -1.990  -0.391   0.532  0.00  0.00     0.110 H 
BRANCH   6   9
ATOM      9  O1  <0> d          -1.564  -1.161  -1.337  0.00  0.00    -0.375 OA
BRANCH   9  10
ATOM     10  C6  <0> d          -2.705  -2.015  -1.444  0.00  0.00     0.006 C 
ATOM     11  H6  <0> d          -2.939  -2.178  -2.496  0.00  0.00     0.066 H 
ATOM     12  H7  <0> d          -2.489  -2.971  -0.968  0.00  0.00     0.066 H 
ATOM     13  H8  <0> d          -3.556  -1.547  -0.950  0.00  0.00     0.066 H 
ENDBRANCH   9  10
ENDBRANCH   6   9
ENDBRANCH   4   6
BRANCH   3  14
ATOM     14  C7  <0> d          -1.244   2.229   0.020  0.00  0.00    -0.034 C 
ATOM     15  H9  <0> d          -1.535   2.434   1.051  0.00  0.00     0.035 H 
ATOM     16  H10 <0> d          -1.026   3.168  -0.489  0.00  0.00     0.035 H 
ATOM     17  H11 <0> d          -2.059   1.718  -0.492  0.00  0.00     0.035 H 
ENDBRANCH   3  14
BRANCH   2  18
ATOM     18  N3  <0> d           1.701   3.123   0.002  0.00  0.00    -0.396 N 
ATOM     19  H12 <0> d           1.048   3.841   0.012  0.00  0.00     0.156 HD
ATOM     20  H13 <0> d           2.649   3.329  -0.006  0.00  0.00     0.156 HD
ENDBRANCH   2  18
BRANCH   1  21
ATOM     21  C1  <0> d           3.607   0.661  -0.030  0.00  0.00    -0.032 C 
ATOM     22  H1  <0> d           3.960   0.669  -1.061  0.00  0.00     0.035 H 
ATOM     23  H2  <0> d           3.969   1.550   0.485  0.00  0.00     0.035 H 
ATOM     24  H3  <0> d           3.981  -0.230   0.476  0.00  0.00     0.035 H 
ENDBRANCH   1  21
TORSDOF 6
