REMARK  0 active torsions:
REMARK  status: ('A' for Active; 'I' for Inactive)
ROOT
ATOM      1  C1  <0> d           0.595   3.565   0.015  0.00  0.00    -0.058 A 
ATOM      2  C2  <0> d           1.077   2.245   0.004  0.00  0.00    -0.038 A 
ATOM      3  C3  <0> d          -0.017   1.428   0.010  0.00  0.00     0.154 A 
ATOM      4  O1  <0> d          -1.119   2.205   0.019  0.00  0.00    -0.312 OA
ATOM      5  C4  <0> d          -0.754   3.495   0.028  0.00  0.00     0.020 A 
ATOM      6  C5  <0> d           0.002  -0.004   0.002  0.00  0.00     0.125 C 
ATOM      7  N1  <0> d           0.018  -1.140  -0.004  0.00  0.00    -0.189 NA
ATOM      8  H1  <0> d           1.191   4.465   0.015  0.00  0.00     0.086 H 
ATOM      9  H2  <0> d           2.111   1.937  -0.007  0.00  0.00     0.088 H 
ATOM     10  H3  <0> d          -1.427   4.340   0.040  0.00  0.00     0.123 H 
ENDROOT
TORSDOF 0
