REMARK  1 active torsions:
REMARK  status: ('A' for Active; 'I' for Inactive)
REMARK    1  A    between atoms: C5_8  and  O1_11 
ROOT
ATOM      1  C1  <0> d          -0.016   1.342   0.009  0.00  0.00     0.020 A 
ATOM      2  C2  <0> d           1.254   1.784  -0.000  0.00  0.00    -0.001 A 
ATOM      3  N1  <0> d           2.067   0.674  -0.011  0.00  0.00    -0.332 N 
ATOM      4  C3  <0> d           1.241  -0.412  -0.017  0.00  0.00     0.168 A 
ATOM      5  N2  <0> d           0.002  -0.004   0.002  0.00  0.00    -0.235 NA
ATOM      6  S1  <0> d           1.830  -2.079  -0.056  0.00  0.00    -0.089 SA
ATOM      7  C4  <0> d           3.606  -1.841   0.284  0.00  0.00     0.009 C 
ATOM      8  C5  <0> d           4.084  -0.651  -0.558  0.00  0.00     0.060 C 
ATOM      9  H1  <0> d           3.746  -0.780  -1.587  0.00  0.00     0.086 H 
ATOM     10  C6  <0> d           3.527   0.656  -0.006  0.00  0.00     0.026 C 
ATOM     11  H2  <0> d          -0.901   1.961   0.025  0.00  0.00     0.117 H 
ATOM     12  H3  <0> d           1.575   2.815  -0.000  0.00  0.00     0.113 H 
ATOM     13  H4  <0> d           3.755  -1.629   1.342  0.00  0.00     0.053 H 
ATOM     14  H5  <0> d           4.160  -2.738   0.004  0.00  0.00     0.053 H 
ATOM     15  H6  <0> d           3.893   1.482  -0.615  0.00  0.00     0.068 H 
ATOM     16  H7  <0> d           3.880   0.787   1.016  0.00  0.00     0.068 H 
ENDROOT
BRANCH   8  17
ATOM     17  O1  <0> d           5.512  -0.600  -0.535  0.00  0.00    -0.393 OA
ATOM     18  H8  <0> d           5.939  -1.392  -0.888  0.00  0.00     0.210 HD
ENDBRANCH   8  17
TORSDOF 1
