REMARK  3 active torsions:
REMARK  status: ('A' for Active; 'I' for Inactive)
REMARK    1  A    between atoms: C1_1  and  C2_2 
REMARK    2  A    between atoms: C2_2  and  C3_3 
REMARK    3  A    between atoms: C2_2  and  C4_4 
ROOT
ATOM      1  C4  <0> d          -0.750   3.109   1.275  0.00  0.00    -0.045 C 
ATOM      2  H1  <0> d           0.273   3.487   1.268  0.00  0.00     0.041 H 
ATOM      3  C5  <0> d          -1.489   3.616   0.036  0.00  0.00    -0.061 C 
ATOM      4  C6  <0> d          -1.438   5.144  -0.010  0.00  0.00    -0.059 C 
ATOM      5  C7  <0> d          -2.182   5.715   1.202  0.00  0.00    -0.010 C 
ATOM      6  C8  <0> d          -1.595   5.109   2.457  0.00  0.00     0.127 C 
ATOM      7  O1  <0> d          -1.236   5.809   3.373  0.00  0.00    -0.298 OA
ATOM      8  C9  <0> d          -1.468   3.603   2.535  0.00  0.00    -0.006 C 
ATOM      9  H9  <0> d          -1.017   3.211  -0.859  0.00  0.00     0.033 H 
ATOM     10  H10 <0> d          -2.529   3.290   0.076  0.00  0.00     0.033 H 
ATOM     11  H11 <0> d          -0.399   5.474   0.014  0.00  0.00     0.033 H 
ATOM     12  H12 <0> d          -1.911   5.497  -0.926  0.00  0.00     0.033 H 
ATOM     13  H13 <0> d          -2.077   6.709   1.220  0.00  0.00     0.044 H 
ATOM     14  H14 <0> d          -3.240   5.462   1.134  0.00  0.00     0.044 H 
ATOM     15  H15 <0> d          -2.375   3.185   2.587  0.00  0.00     0.044 H 
ATOM     16  H16 <0> d          -0.890   3.330   3.417  0.00  0.00     0.044 H 
ENDROOT
BRANCH   1  17
ATOM     17  C2  <0> d          -0.729   1.579   1.267  0.00  0.00    -0.057 C 
ATOM     18  H5  <0> d          -1.751   1.202   1.275  0.00  0.00     0.039 H 
BRANCH  17  19
ATOM     19  C1  <0> d          -0.013   1.086   0.008  0.00  0.00    -0.073 C 
ATOM     20  H2  <0> d           0.002  -0.004   0.002  0.00  0.00     0.028 H 
ATOM     21  H3  <0> d           1.010   1.463   0.000  0.00  0.00     0.028 H 
ATOM     22  H4  <0> d          -0.540   1.447  -0.875  0.00  0.00     0.028 H 
ENDBRANCH  17  19
BRANCH  17  23
ATOM     23  C3  <0> d           0.011   1.072   2.506  0.00  0.00    -0.073 C 
ATOM     24  H6  <0> d           1.034   1.450   2.499  0.00  0.00     0.028 H 
ATOM     25  H7  <0> d          -0.499   1.424   3.403  0.00  0.00     0.028 H 
ATOM     26  H8  <0> d           0.026  -0.018   2.500  0.00  0.00     0.028 H 
ENDBRANCH  17  23
ENDBRANCH   1  17
TORSDOF 3
