REMARK  1 active torsions:
REMARK  status: ('A' for Active; 'I' for Inactive)
REMARK    1  A    between atoms: C4_5  and  N3_7 
ROOT
ATOM      1  C1  <0> d           0.002  -0.004   0.002  0.00  0.00     0.043 A 
ATOM      2  C2  <0> d          -0.017   1.395   0.010  0.00  0.00     0.155 A 
ATOM      3  N1  <0> d           1.123   2.077   0.003  0.00  0.00    -0.221 NA
ATOM      4  C3  <0> d           2.281   1.430  -0.012  0.00  0.00     0.183 A 
ATOM      5  C4  <0> d           2.296   0.021  -0.020  0.00  0.00     0.161 A 
ATOM      6  N2  <0> d           1.151  -0.652  -0.012  0.00  0.00    -0.238 NA
ATOM      7  C5  <0> d           3.513   2.161  -0.020  0.00  0.00     0.123 C 
ATOM      8  N4  <0> d           4.489   2.741  -0.027  0.00  0.00    -0.190 NA
ATOM      9  C6  <0> d          -1.267   2.093   0.019  0.00  0.00     0.121 C 
ATOM     10  N5  <0> d          -2.259   2.646   0.027  0.00  0.00    -0.190 NA
ATOM     11  H1  <0> d          -0.927  -0.555   0.008  0.00  0.00     0.119 H 
ENDROOT
BRANCH   5  12
ATOM     12  N3  <0> d           3.498  -0.658  -0.034  0.00  0.00    -0.382 N 
ATOM     13  H2  <0> d           3.506  -1.628  -0.039  0.00  0.00     0.157 HD
ATOM     14  H3  <0> d           4.333  -0.165  -0.040  0.00  0.00     0.157 HD
ENDBRANCH   5  12
TORSDOF 1
