REMARK  2 active torsions:
REMARK  status: ('A' for Active; 'I' for Inactive)
REMARK    1  A    between atoms: C1_1  and  C2_2 
REMARK    2  A    between atoms: N2_9  and  C8_11 
ROOT
ATOM      1  C2  <0> d           0.002  -0.004   0.002  0.00  0.00     0.065 A 
ATOM      2  C3  <0> d           0.008  -0.858  -1.180  0.00  0.00     0.037 A 
ATOM      3  C4  <0> d          -0.002  -0.618  -2.559  0.00  0.00    -0.066 A 
ATOM      4  C5  <0> d           0.008  -1.697  -3.404  0.00  0.00    -0.065 A 
ATOM      5  C6  <0> d           0.028  -2.981  -2.877  0.00  0.00     0.004 A 
ATOM      6  N1  <0> d           0.037  -3.193  -1.579  0.00  0.00    -0.241 NA
ATOM      7  C7  <0> d           0.029  -2.187  -0.712  0.00  0.00     0.157 A 
ATOM      8  N2  <0> d           0.034  -2.120   0.654  0.00  0.00    -0.256 N 
ATOM      9  N3  <0> d           0.023  -0.778   1.049  0.00  0.00    -0.175 NA
ATOM     10  H4  <0> d          -0.018   0.390  -2.947  0.00  0.00     0.085 H 
ATOM     11  H5  <0> d           0.001  -1.550  -4.473  0.00  0.00     0.085 H 
ATOM     12  H6  <0> d           0.036  -3.827  -3.549  0.00  0.00     0.114 H 
ENDROOT
BRANCH   1  13
ATOM     13  C1  <0> d          -0.018   1.503   0.010  0.00  0.00    -0.033 C 
ATOM     14  H1  <0> d           1.004   1.880   0.003  0.00  0.00     0.035 H 
ATOM     15  H2  <0> d          -0.545   1.864  -0.873  0.00  0.00     0.035 H 
ATOM     16  H3  <0> d          -0.529   1.854   0.907  0.00  0.00     0.035 H 
ENDBRANCH   1  13
BRANCH   8  17
ATOM     17  C8  <0> d           0.053  -3.271   1.561  0.00  0.00     0.004 C 
ATOM     18  H7  <0> d           1.086  -3.542   1.781  0.00  0.00     0.059 H 
ATOM     19  H8  <0> d          -0.460  -3.012   2.487  0.00  0.00     0.059 H 
ATOM     20  H9  <0> d          -0.451  -4.114   1.089  0.00  0.00     0.059 H 
ENDBRANCH   8  17
TORSDOF 2
