REMARK  1 active torsions:
REMARK  status: ('A' for Active; 'I' for Inactive)
REMARK    1  A    between atoms: C3_3  and  C6_8 
ROOT
ATOM      1  C1  <0> d          -0.017   1.381   0.010  0.00  0.00    -0.077 A 
ATOM      2  C2  <0> d           1.193   2.059   0.002  0.00  0.00    -0.048 A 
ATOM      3  C3  <0> d           2.379   1.329  -0.013  0.00  0.00     0.134 A 
ATOM      4  N1  <0> d           2.354   0.000  -0.021  0.00  0.00    -0.230 NA
ATOM      5  C4  <0> d           1.222  -0.668  -0.014  0.00  0.00     0.127 A 
ATOM      6  C5  <0> d           0.002  -0.004   0.002  0.00  0.00    -0.044 A 
ATOM      7 Cl1  <0> d           1.251  -2.404  -0.024  0.00  0.00    -0.062 Cl
ATOM      8  H1  <0> d          -0.952   1.920   0.026  0.00  0.00     0.083 H 
ATOM      9  H2  <0> d           1.215   3.139   0.007  0.00  0.00     0.087 H 
ATOM     10  H3  <0> d          -0.923  -0.562   0.008  0.00  0.00     0.088 H 
ENDROOT
BRANCH   3  11
ATOM     11  C6  <0> d           3.677   2.038  -0.022  0.00  0.00     0.229 C 
ATOM     12  O1  <0> d           3.706   3.260  -0.016  0.00  0.00    -0.643 OA
ATOM     13  O2  <0> d           4.721   1.402  -0.035  0.00  0.00    -0.643 OA
ENDBRANCH   3  11
TORSDOF 1
