REMARK  1 active torsions:
REMARK  status: ('A' for Active; 'I' for Inactive)
REMARK    1  A    between atoms: C4_5  and  C5_6 
ROOT
ATOM      1  C1  <0> d          -1.077   1.911   0.017  0.00  0.00    -0.065 A 
ATOM      2  C2  <0> d          -0.013   1.076   0.008  0.00  0.00    -0.044 A 
ATOM      3  S1  <0> d           1.361   2.215   0.001  0.00  0.00    -0.113 SA
ATOM      4  C3  <0> d           0.431   3.739   0.018  0.00  0.00    -0.034 A 
ATOM      5  C4  <0> d          -0.857   3.284   0.028  0.00  0.00    -0.016 A 
ATOM      6  H2  <0> d          -2.083   1.517   0.018  0.00  0.00     0.085 H 
ATOM      7  H3  <0> d           0.002  -0.004   0.002  0.00  0.00     0.095 H 
ATOM      8  H4  <0> d           0.792   4.756   0.020  0.00  0.00     0.096 H 
ENDROOT
BRANCH   5   9
ATOM      9  C5  <0> d          -1.998   4.236   0.044  0.00  0.00     0.011 A 
ATOM     10  C7  <0> d          -3.364   3.896   0.056  0.00  0.00     0.034 A 
ATOM     11  N2  <0> d          -4.059   5.003   0.069  0.00  0.00    -0.187 NA
ATOM     12  H6  <0> d          -3.768   2.895   0.055  0.00  0.00     0.118 H 
ATOM     13  N1  <0> d          -3.170   6.086   0.065  0.00  0.00    -0.289 N 
ATOM     14  C6  <0> d          -1.911   5.596   0.055  0.00  0.00     0.008 A 
ATOM     15  H1  <0> d          -3.424   7.053   0.069  0.00  0.00     0.188 HD
ATOM     16  H5  <0> d          -1.001   6.178   0.054  0.00  0.00     0.115 H 
ENDBRANCH   5   9
TORSDOF 1
