REMARK  2 active torsions:
REMARK  status: ('A' for Active; 'I' for Inactive)
REMARK    1  A    between atoms: C1_1  and  C2_2 
REMARK    2  A    between atoms: C2_2  and  C4_4 
ROOT
ATOM      1  C4  <0> d          -0.000  -0.750  -1.307  0.00  0.00    -0.027 C 
ATOM      2  H1  <0> d           0.016  -1.823  -1.114  0.00  0.00     0.047 H 
ATOM      3  C5  <0> d          -1.261  -0.393  -2.096  0.00  0.00    -0.058 C 
ATOM      4  C6  <0> d          -1.316  -1.214  -3.386  0.00  0.00    -0.058 C 
ATOM      5  C7  <0> d          -0.128  -0.839  -4.278  0.00  0.00    -0.010 C 
ATOM      6  C8  <0> d           1.146  -1.014  -3.481  0.00  0.00     0.127 C 
ATOM      7  O1  <0> d           2.067  -1.662  -3.919  0.00  0.00    -0.298 OA
ATOM      8  C9  <0> d           1.238  -0.359  -2.121  0.00  0.00    -0.003 C 
ATOM      9  H7  <0> d          -2.141  -0.611  -1.490  0.00  0.00     0.034 H 
ATOM     10  H8  <0> d          -1.246   0.668  -2.342  0.00  0.00     0.034 H 
ATOM     11  H9  <0> d          -1.268  -2.275  -3.144  0.00  0.00     0.033 H 
ATOM     12  H10 <0> d          -2.247  -1.002  -3.912  0.00  0.00     0.033 H 
ATOM     13  H11 <0> d          -0.106  -1.491  -5.151  0.00  0.00     0.044 H 
ATOM     14  H12 <0> d          -0.221   0.200  -4.595  0.00  0.00     0.044 H 
ATOM     15  H13 <0> d           1.271   0.725  -2.238  0.00  0.00     0.045 H 
ATOM     16  H14 <0> d           2.136  -0.702  -1.609  0.00  0.00     0.045 H 
ENDROOT
BRANCH   1  17
ATOM     17  C2  <0> d           0.002  -0.004   0.002  0.00  0.00    -0.089 C 
ATOM     18  C3  <0> d           0.022  -0.665   1.133  0.00  0.00    -0.119 C 
ATOM     19  H5  <0> d           0.023  -0.130   2.071  0.00  0.00     0.067 H 
ATOM     20  H6  <0> d           0.036  -1.745   1.127  0.00  0.00     0.067 H 
BRANCH  17  21
ATOM     21  C1  <0> d          -0.018   1.503   0.010  0.00  0.00    -0.055 C 
ATOM     22  H2  <0> d           1.004   1.880   0.003  0.00  0.00     0.033 H 
ATOM     23  H3  <0> d          -0.545   1.864  -0.873  0.00  0.00     0.033 H 
ATOM     24  H4  <0> d          -0.529   1.854   0.907  0.00  0.00     0.033 H 
ENDBRANCH  17  21
ENDBRANCH   1  17
TORSDOF 2
