REMARK  3 active torsions:
REMARK  status: ('A' for Active; 'I' for Inactive)
REMARK    1  A    between atoms: C3_3  and  C8_9 
REMARK    2  A    between atoms: C5_5  and  C7_7 
REMARK    3  A    between atoms: C8_9  and  O2_10 
ROOT
ATOM      1  C1  <0> d           0.945   5.134  -1.188  0.00  0.00    -0.081 A 
ATOM      2  C2  <0> d           1.077   3.756  -1.187  0.00  0.00    -0.075 A 
ATOM      3  C3  <0> d           1.147   3.062   0.008  0.00  0.00    -0.034 A 
ATOM      4  C4  <0> d           1.095   3.741   1.208  0.00  0.00    -0.058 A 
ATOM      5  C5  <0> d           0.966   5.131   1.214  0.00  0.00     0.041 A 
ATOM      6  C6  <0> d           0.891   5.825   0.005  0.00  0.00    -0.066 A 
ATOM      7  H1  <0> d           0.887   5.669  -2.124  0.00  0.00     0.083 H 
ATOM      8  H2  <0> d           1.123   3.220  -2.124  0.00  0.00     0.084 H 
ATOM      9  H3  <0> d           1.153   3.198   2.139  0.00  0.00     0.086 H 
ATOM     10  H4  <0> d           0.791   6.901   0.003  0.00  0.00     0.085 H 
ENDROOT
BRANCH   3  11
ATOM     11  C8  <0> d           1.286   1.562  -0.002  0.00  0.00     0.040 C 
ATOM     12  H5  <0> d           1.840   1.243   0.881  0.00  0.00     0.081 H 
ATOM     13  H6  <0> d           1.823   1.252  -0.899  0.00  0.00     0.081 H 
BRANCH  11  14
ATOM     14  O2  <0> d          -0.011   0.963   0.007  0.00  0.00    -0.396 OA
ATOM     15  H7  <0> d           0.002  -0.004   0.002  0.00  0.00     0.209 HD
ENDBRANCH  11  14
ENDBRANCH   3  11
BRANCH   5  16
ATOM     16  C7  <0> d           0.910   5.865   2.495  0.00  0.00     0.209 C 
ATOM     17  O1  <0> d           0.976   5.259   3.546  0.00  0.00    -0.644 OA
ATOM     18  O3  <0> d           0.786   7.206   2.498  0.00  0.00    -0.644 OA
ENDBRANCH   5  16
TORSDOF 3
