REMARK  2 active torsions:
REMARK  status: ('A' for Active; 'I' for Inactive)
REMARK    1  A    between atoms: C2_2  and  N4_9 
REMARK    2  A    between atoms: C4_6  and  N3_7 
ROOT
ATOM      1  C1  <0> d           1.227  -0.664  -0.014  0.00  0.00    -0.007 A 
ATOM      2  C2  <0> d           0.002  -0.004   0.002  0.00  0.00     0.108 A 
ATOM      3  N1  <0> d          -0.016   1.327   0.009  0.00  0.00    -0.195 NA
ATOM      4  C3  <0> d           1.111   2.020   0.002  0.00  0.00     0.280 A 
ATOM      5  N2  <0> d           2.293   1.427  -0.013  0.00  0.00    -0.309 N 
ATOM      6  C4  <0> d           2.390   0.100  -0.021  0.00  0.00     0.083 A 
ATOM      7  O1  <0> d           1.052   3.373   0.009  0.00  0.00    -0.149 OA
ATOM      8  H1  <0> d           1.274  -1.743  -0.020  0.00  0.00     0.093 H 
ATOM      9  H4  <0> d           3.124   1.984  -0.019  0.00  0.00     0.170 HD
ENDROOT
BRANCH   2  10
ATOM     10  N4  <0> d          -1.183  -0.723   0.010  0.00  0.00    -0.287 NA
ATOM     11  H6  <0> d          -1.162  -1.692   0.004  0.00  0.00     0.125 HD
ATOM     12  H5  <0> d          -1.704  -0.497   0.833  0.00  0.00     0.125 HD
ENDBRANCH   2  10
BRANCH   6  13
ATOM     13  N3  <0> d           3.633  -0.513  -0.036  0.00  0.00    -0.288 NA
ATOM     14  H2  <0> d           3.732  -1.088   0.776  0.00  0.00     0.125 HD
ATOM     15  H3  <0> d           4.440   0.025  -0.041  0.00  0.00     0.125 HD
ENDBRANCH   6  13
TORSDOF 2
