REMARK  4 active torsions:
REMARK  status: ('A' for Active; 'I' for Inactive)
REMARK    1  A    between atoms: C1_1  and  C2_2 
REMARK    2  A    between atoms: C3_3  and  C4_4 
REMARK    3  A    between atoms: C4_4  and  C5_5 
REMARK    4  A    between atoms: C5_5  and  C6_6 
ROOT
ATOM      1  C4  <0> d          -1.559   3.343   2.703  0.00  0.00    -0.041 C 
ATOM      2  H6  <0> d          -2.474   3.863   2.420  0.00  0.00     0.039 H 
ATOM      3  H7  <0> d          -1.805   2.492   3.338  0.00  0.00     0.039 H 
ENDROOT
BRANCH   1   4
ATOM      4  C3  <0> d          -0.853   2.857   1.463  0.00  0.00    -0.106 C 
ATOM      5  C2  <0> d          -0.718   1.572   1.248  0.00  0.00    -0.110 C 
ATOM      6  H4  <0> d          -1.112   0.861   1.959  0.00  0.00     0.075 H 
ATOM      7  H5  <0> d          -0.459   3.568   0.752  0.00  0.00     0.076 H 
BRANCH   5   8
ATOM      8  C1  <0> d          -0.013   1.086   0.008  0.00  0.00    -0.060 C 
ATOM      9  H1  <0> d           0.002  -0.004   0.002  0.00  0.00     0.032 H 
ATOM     10  H2  <0> d           1.010   1.463   0.000  0.00  0.00     0.032 H 
ATOM     11  H3  <0> d          -0.540   1.447  -0.875  0.00  0.00     0.032 H 
ENDBRANCH   5   8
ENDBRANCH   1   4
BRANCH   1  12
ATOM     12  C5  <0> d          -0.643   4.301   3.468  0.00  0.00     0.018 C 
ATOM     13  H8  <0> d           0.272   3.781   3.751  0.00  0.00     0.049 H 
ATOM     14  H9  <0> d          -0.397   5.152   2.833  0.00  0.00     0.049 H 
BRANCH  12  15
ATOM     15  C6  <0> d          -1.349   4.787   4.708  0.00  0.00     0.172 C 
ATOM     16  O1  <0> d          -2.469   4.406   4.955  0.00  0.00    -0.648 OA
ATOM     17  O2  <0> d          -0.733   5.644   5.538  0.00  0.00    -0.648 OA
ENDBRANCH  12  15
ENDBRANCH   1  12
TORSDOF 4
