REMARK  3 active torsions:
REMARK  status: ('A' for Active; 'I' for Inactive)
REMARK    1  A    between atoms: C1_1  and  C2_2 
REMARK       I    between atoms: C2_2  and  N1_4 
REMARK    2  A    between atoms: N1_4  and  C3_5 
REMARK    3  A    between atoms: C3_5  and  C4_6 
ROOT
ATOM      1  C3  <0> d           2.367   4.004   0.001  0.00  0.00     0.020 C 
ATOM      2  H5  <0> d           2.188   4.945   0.521  0.00  0.00     0.071 H 
ATOM      3  H6  <0> d           3.163   3.456   0.505  0.00  0.00     0.071 H 
ENDROOT
BRANCH   1   4
ATOM      4  N1  <0> d           2.763   4.278  -1.383  0.00  0.00    -0.357 N 
ATOM      5  C2  <0> d           3.870   5.005  -1.635  0.00  0.00     0.213 C 
ATOM      6  O1  <0> d           4.538   5.432  -0.717  0.00  0.00    -0.274 OA
ATOM      7  H4  <0> d           2.229   3.937  -2.117  0.00  0.00     0.162 HD
BRANCH   5   8
ATOM      8  C1  <0> d           4.277   5.287  -3.058  0.00  0.00    -0.003 C 
ATOM      9  H1  <0> d           3.562   4.827  -3.739  0.00  0.00     0.040 H 
ATOM     10  H2  <0> d           4.295   6.364  -3.224  0.00  0.00     0.040 H 
ATOM     11  H3  <0> d           5.270   4.875  -3.240  0.00  0.00     0.040 H 
ENDBRANCH   5   8
ENDBRANCH   1   4
BRANCH   1  12
ATOM     12  C4  <0> d           1.106   3.179   0.008  0.00  0.00    -0.023 A 
ATOM     13  C8  <0> d          -0.132   3.793   0.023  0.00  0.00     0.009 A 
ATOM     14  N2  <0> d          -1.240   3.078   0.030  0.00  0.00    -0.273 NA
ATOM     15  H10 <0> d          -0.193   4.871   0.029  0.00  0.00     0.115 H 
ATOM     16  C7  <0> d          -1.214   1.759   0.017  0.00  0.00     0.002 A 
ATOM     17  C6  <0> d          -0.013   1.076   0.008  0.00  0.00    -0.065 A 
ATOM     18  H9  <0> d          -2.142   1.207   0.019  0.00  0.00     0.114 H 
ATOM     19  C5  <0> d           1.173   1.794   0.001  0.00  0.00    -0.072 A 
ATOM     20  H8  <0> d           0.002  -0.004   0.002  0.00  0.00     0.085 H 
ATOM     21  H7  <0> d           2.127   1.287  -0.011  0.00  0.00     0.084 H 
ENDBRANCH   1  12
TORSDOF 3
