REMARK  2 active torsions:
REMARK  status: ('A' for Active; 'I' for Inactive)
REMARK    1  A    between atoms: C1_1  and  C2_2 
REMARK    2  A    between atoms: C2_2  and  C8_11 
ROOT
ATOM      1  C2  <0> d           0.002  -0.004   0.002  0.00  0.00    -0.033 C 
ATOM      2  C3  <0> d           0.758  -0.626  -1.200  0.00  0.00    -0.040 C 
ATOM      3  H1  <0> d           0.575  -0.274  -2.215  0.00  0.00     0.041 H 
ATOM      4  C4  <0> d           1.987  -0.092  -0.403  0.00  0.00    -0.050 C 
ATOM      5  C5  <0> d           1.168  -0.631   0.807  0.00  0.00     0.011 C 
ATOM      6  H2  <0> d           1.397  -0.275   1.812  0.00  0.00     0.052 H 
ATOM      7  C6  <0> d           0.960  -2.145   0.598  0.00  0.00     0.132 C 
ATOM      8  O1  <0> d           1.022  -3.056   1.389  0.00  0.00    -0.298 OA
ATOM      9  C7  <0> d           0.636  -2.162  -0.916  0.00  0.00    -0.005 C 
ATOM     10  H6  <0> d           2.916  -0.629  -0.594  0.00  0.00     0.034 H 
ATOM     11  H7  <0> d           2.101   0.992  -0.423  0.00  0.00     0.034 H 
ATOM     12  H8  <0> d          -0.371  -2.527  -1.121  0.00  0.00     0.044 H 
ATOM     13  H9  <0> d           1.383  -2.731  -1.470  0.00  0.00     0.044 H 
ENDROOT
BRANCH   1  14
ATOM     14  C1  <0> d          -0.019   1.526   0.010  0.00  0.00    -0.068 C 
ATOM     15  H3  <0> d           0.826   1.904  -0.566  0.00  0.00     0.028 H 
ATOM     16  H4  <0> d          -0.949   1.879  -0.434  0.00  0.00     0.028 H 
ATOM     17  H5  <0> d           0.053   1.885   1.037  0.00  0.00     0.028 H 
ENDBRANCH   1  14
BRANCH   1  18
ATOM     18  C8  <0> d          -1.365  -0.631   0.281  0.00  0.00    -0.068 C 
ATOM     19  H10 <0> d          -2.027  -0.452  -0.567  0.00  0.00     0.028 H 
ATOM     20  H11 <0> d          -1.249  -1.705   0.430  0.00  0.00     0.028 H 
ATOM     21  H12 <0> d          -1.794  -0.184   1.177  0.00  0.00     0.028 H 
ENDBRANCH   1  18
TORSDOF 2
