REMARK  3 active torsions:
REMARK  status: ('A' for Active; 'I' for Inactive)
REMARK    1  A    between atoms: C3_3  and  N3_9 
REMARK    2  A    between atoms: C4_4  and  N2_8 
REMARK    3  A    between atoms: C5_5  and  N1_7 
ROOT
ATOM      1  C1  <0> d          -3.659   3.006   0.036  0.00  0.00    -0.079 A 
ATOM      2  C2  <0> d          -3.643   1.624   0.028  0.00  0.00    -0.055 A 
ATOM      3  C3  <0> d          -2.434   0.941   0.019  0.00  0.00     0.054 A 
ATOM      4  C4  <0> d          -1.236   1.651   0.017  0.00  0.00     0.079 A 
ATOM      5  C5  <0> d          -1.258   3.043   0.030  0.00  0.00     0.054 A 
ATOM      6  C6  <0> d          -2.472   3.716   0.034  0.00  0.00    -0.055 A 
ATOM      7  H1  <0> d          -4.601   3.533   0.043  0.00  0.00     0.083 H 
ATOM      8  H2  <0> d          -4.572   1.074   0.029  0.00  0.00     0.087 H 
ATOM      9  H3  <0> d          -2.490   4.796   0.041  0.00  0.00     0.087 H 
ENDROOT
BRANCH   3  10
ATOM     10  N3  <0> d          -2.419  -0.459   0.011  0.00  0.00    -0.397 N 
ATOM     11  H8  <0> d          -1.574  -0.935   0.004  0.00  0.00     0.156 HD
ATOM     12  H9  <0> d          -3.254  -0.953   0.012  0.00  0.00     0.156 HD
ENDBRANCH   3  10
BRANCH   4  13
ATOM     13  N2  <0> d          -0.011   0.966   0.007  0.00  0.00    -0.395 N 
ATOM     14  H6  <0> d           0.002  -0.004   0.002  0.00  0.00     0.156 HD
ATOM     15  H7  <0> d           0.822   1.462   0.002  0.00  0.00     0.156 HD
ENDBRANCH   4  13
BRANCH   5  16
ATOM     16  N1  <0> d          -0.057   3.763   0.034  0.00  0.00    -0.397 N 
ATOM     17  H4  <0> d           0.791   3.292   0.028  0.00  0.00     0.156 HD
ATOM     18  H5  <0> d          -0.073   4.733   0.044  0.00  0.00     0.156 HD
ENDBRANCH   5  16
TORSDOF 3
