REMARK  2 active torsions:
REMARK  status: ('A' for Active; 'I' for Inactive)
REMARK    1  A    between atoms: C1_1  and  C2_2 
REMARK       I    between atoms: C2_2  and  N1_4 
REMARK    2  A    between atoms: N1_4  and  C3_5 
ROOT
ATOM      1  C2  <0> d           0.002  -0.004   0.002  0.00  0.00     0.232 C 
ATOM      2  O1  <0> d           1.060  -0.596  -0.011  0.00  0.00    -0.273 OA
ATOM      3  N1  <0> d          -1.156  -0.694   0.009  0.00  0.00    -0.153 N 
ATOM      4  H4  <0> d          -2.002  -0.220   0.020  0.00  0.00     0.187 HD
ENDROOT
BRANCH   3   5
ATOM      5  C3  <0> d          -1.137  -2.080   0.002  0.00  0.00     0.768 A 
ATOM      6  N5  <0> d          -2.193  -2.891   0.007  0.00  0.00     0.067 NA
ATOM      7  N4  <0> d          -1.753  -4.103  -0.005  0.00  0.00    -0.006 NA
ATOM      8  N3  <0> d          -0.466  -4.085  -0.011  0.00  0.00    -0.006 NA
ATOM      9  N2  <0> d          -0.059  -2.862  -0.007  0.00  0.00     0.067 NA
ENDBRANCH   3   5
BRANCH   1  10
ATOM     10  C1  <0> d          -0.018   1.503   0.010  0.00  0.00    -0.002 C 
ATOM     11  H1  <0> d           1.004   1.880   0.003  0.00  0.00     0.040 H 
ATOM     12  H2  <0> d          -0.545   1.864  -0.873  0.00  0.00     0.040 H 
ATOM     13  H3  <0> d          -0.529   1.854   0.907  0.00  0.00     0.040 H 
ENDBRANCH   1  10
TORSDOF 2
