REMARK  9 active torsions:
REMARK  status: ('A' for Active; 'I' for Inactive)
REMARK    1  A    between atoms: C1_1  and  C2_2 
REMARK    2  A    between atoms: C2_2  and  C3_4 
REMARK    3  A    between atoms: C2_2  and  O1_11 
REMARK    4  A    between atoms: C3_4  and  C4_5 
REMARK    5  A    between atoms: C3_4  and  C5_6 
REMARK    6  A    between atoms: C3_4  and  C6_7 
REMARK    7  A    between atoms: C6_7  and  C7_8 
REMARK    8  A    between atoms: C7_8  and  C8_9 
REMARK    9  A    between atoms: C7_8  and  C9_10 
ROOT
ATOM      1  C3  <0> d          -1.373  -0.228  -0.109  0.00  0.00    -0.022 C 
ENDROOT
BRANCH   1   2
ATOM      2  C2  <0> d          -0.029   0.454  -0.374  0.00  0.00     0.038 C 
ATOM      3  H1  <0> d           0.756  -0.064   0.177  0.00  0.00     0.083 H 
BRANCH   2   4
ATOM      4  C1  <0> d          -0.098   1.912   0.086  0.00  0.00    -0.052 C 
ATOM      5  H2  <0> d           0.859   2.398  -0.102  0.00  0.00     0.030 H 
ATOM      6  H3  <0> d          -0.883   2.430  -0.465  0.00  0.00     0.030 H 
ATOM      7  H4  <0> d          -0.319   1.946   1.153  0.00  0.00     0.030 H 
ENDBRANCH   2   4
BRANCH   2   8
ATOM      8  O1  <0> d           0.261   0.409  -1.772  0.00  0.00    -0.395 OA
ATOM      9  H20 <0> d           1.100   0.825  -2.014  0.00  0.00     0.210 HD
ENDBRANCH   2   8
ENDBRANCH   1   2
BRANCH   1  10
ATOM     10  C4  <0> d          -2.475   0.499  -0.882  0.00  0.00    -0.067 C 
ATOM     11  H5  <0> d          -2.253   0.465  -1.949  0.00  0.00     0.028 H 
ATOM     12  H6  <0> d          -3.432   0.013  -0.694  0.00  0.00     0.028 H 
ATOM     13  H7  <0> d          -2.524   1.537  -0.555  0.00  0.00     0.028 H 
ENDBRANCH   1  10
BRANCH   1  14
ATOM     14  C5  <0> d          -1.304  -1.686  -0.569  0.00  0.00    -0.067 C 
ATOM     15  H8  <0> d          -0.675  -2.254   0.117  0.00  0.00     0.028 H 
ATOM     16  H9  <0> d          -2.307  -2.111  -0.580  0.00  0.00     0.028 H 
ATOM     17  H10 <0> d          -0.879  -1.731  -1.572  0.00  0.00     0.028 H 
ENDBRANCH   1  14
BRANCH   1  18
ATOM     18  C6  <0> d          -1.683  -0.180   1.388  0.00  0.00    -0.054 C 
ATOM     19  H11 <0> d          -0.851  -0.610   1.946  0.00  0.00     0.034 H 
ATOM     20  H12 <0> d          -1.830   0.855   1.695  0.00  0.00     0.034 H 
BRANCH  18  21
ATOM     21  C7  <0> d          -2.955  -0.982   1.671  0.00  0.00    -0.060 C 
ATOM     22  H13 <0> d          -3.670  -0.825   0.864  0.00  0.00     0.038 H 
BRANCH  21  23
ATOM     23  C8  <0> d          -2.610  -2.469   1.765  0.00  0.00    -0.073 C 
ATOM     24  H14 <0> d          -2.317  -2.837   0.782  0.00  0.00     0.028 H 
ATOM     25  H15 <0> d          -1.785  -2.607   2.465  0.00  0.00     0.028 H 
ATOM     26  H16 <0> d          -3.481  -3.023   2.116  0.00  0.00     0.028 H 
ENDBRANCH  21  23
BRANCH  21  27
ATOM     27  C9  <0> d          -3.568  -0.516   2.993  0.00  0.00    -0.073 C 
ATOM     28  H17 <0> d          -3.814   0.544   2.926  0.00  0.00     0.028 H 
ATOM     29  H18 <0> d          -4.474  -1.087   3.195  0.00  0.00     0.028 H 
ATOM     30  H19 <0> d          -2.852  -0.673   3.801  0.00  0.00     0.028 H 
ENDBRANCH  21  27
ENDBRANCH  18  21
ENDBRANCH   1  18
TORSDOF 9
