REMARK  5 active torsions:
REMARK  status: ('A' for Active; 'I' for Inactive)
REMARK    1  A    between atoms: C1_1  and  C2_2 
REMARK    2  A    between atoms: C2_2  and  C3_3 
REMARK    3  A    between atoms: C3_3  and  N1_4 
REMARK    4  A    between atoms: N1_4  and  C4_5 
REMARK    5  A    between atoms: C8_9  and  C10_11 
ROOT
ATOM      1  C4  <0> d          -0.050   3.842   0.023  0.00  0.00     0.028 A 
ATOM      2  C5  <0> d           1.161   3.163   0.008  0.00  0.00    -0.058 A 
ATOM      3  C6  <0> d           1.177   1.782   0.000  0.00  0.00    -0.080 A 
ATOM      4  C7  <0> d          -0.013   1.076   0.008  0.00  0.00    -0.077 A 
ATOM      5  C8  <0> d          -1.220   1.749   0.017  0.00  0.00    -0.060 A 
ATOM      6  C9  <0> d          -1.242   3.130   0.031  0.00  0.00    -0.052 A 
ATOM      7  H9  <0> d           2.090   3.714   0.002  0.00  0.00     0.086 H 
ATOM      8  H10 <0> d           2.118   1.253  -0.012  0.00  0.00     0.083 H 
ATOM      9  H11 <0> d           0.002  -0.004   0.002  0.00  0.00     0.084 H 
ATOM     10  H12 <0> d          -2.186   3.656   0.043  0.00  0.00     0.087 H 
ENDROOT
BRANCH   1  11
ATOM     11  N1  <0> d          -0.069   5.239   0.031  0.00  0.00    -0.390 N 
ATOM     12  H8  <0> d          -0.915   5.713   0.042  0.00  0.00     0.159 HD
BRANCH  11  13
ATOM     13  C3  <0> d           1.190   5.989   0.024  0.00  0.00    -0.008 C 
ATOM     14  H6  <0> d           1.773   5.728   0.907  0.00  0.00     0.063 H 
ATOM     15  H7  <0> d           1.756   5.738  -0.873  0.00  0.00     0.063 H 
BRANCH  13  16
ATOM     16  C2  <0> d           0.890   7.489   0.035  0.00  0.00    -0.054 C 
ATOM     17  H4  <0> d           0.306   7.750  -0.848  0.00  0.00     0.034 H 
ATOM     18  H5  <0> d           0.323   7.739   0.932  0.00  0.00     0.034 H 
BRANCH  16  19
ATOM     19  C1  <0> d           2.204   8.272   0.027  0.00  0.00    -0.075 C 
ATOM     20  H1  <0> d           2.788   8.011   0.910  0.00  0.00     0.027 H 
ATOM     21  H2  <0> d           2.771   8.022  -0.869  0.00  0.00     0.027 H 
ATOM     22  H3  <0> d           1.990   9.341   0.035  0.00  0.00     0.027 H 
ENDBRANCH  16  19
ENDBRANCH  13  16
ENDBRANCH  11  13
ENDBRANCH   1  11
BRANCH   5  23
ATOM     23  C10 <0> d          -2.513   0.976   0.019  0.00  0.00    -0.051 C 
ATOM     24  H13 <0> d          -2.820   0.783   1.047  0.00  0.00     0.033 H 
ATOM     25  H14 <0> d          -3.284   1.556  -0.488  0.00  0.00     0.033 H 
ATOM     26  H15 <0> d          -2.371   0.028  -0.500  0.00  0.00     0.033 H 
ENDBRANCH   5  23
TORSDOF 5
