REMARK  6 active torsions:
REMARK  status: ('A' for Active; 'I' for Inactive)
REMARK    1  A    between atoms: C1_1  and  C2_2 
REMARK    2  A    between atoms: C2_2  and  C3_3 
REMARK    3  A    between atoms: C3_3  and  C4_4 
REMARK    4  A    between atoms: C3_3  and  C5_5 
REMARK    5  A    between atoms: C3_3  and  C6_6 
REMARK    6  A    between atoms: C6_6  and  C7_8 
ROOT
ATOM      1  C3  <0> d           1.280   1.975   0.000  0.00  0.00     0.012 C 
ENDROOT
BRANCH   1   2
ATOM      2  C2  <0> d           2.457   0.996  -0.016  0.00  0.00    -0.056 C 
ATOM      3  H4  <0> d           2.416   0.364   0.871  0.00  0.00     0.034 H 
ATOM      4  H5  <0> d           2.399   0.374  -0.909  0.00  0.00     0.034 H 
BRANCH   2   5
ATOM      5  C1  <0> d           3.771   1.779  -0.024  0.00  0.00    -0.075 C 
ATOM      6  H1  <0> d           4.609   1.082  -0.036  0.00  0.00     0.027 H 
ATOM      7  H2  <0> d           3.812   2.411  -0.911  0.00  0.00     0.027 H 
ATOM      8  H3  <0> d           3.829   2.402   0.868  0.00  0.00     0.027 H 
ENDBRANCH   2   5
ENDBRANCH   1   2
BRANCH   1   9
ATOM      9  C4  <0> d           1.338   2.862  -1.245  0.00  0.00    -0.063 C 
ATOM     10  H6  <0> d           0.500   3.559  -1.233  0.00  0.00     0.029 H 
ATOM     11  H7  <0> d           2.274   3.420  -1.251  0.00  0.00     0.029 H 
ATOM     12  H8  <0> d           1.280   2.239  -2.138  0.00  0.00     0.029 H 
ENDBRANCH   1   9
BRANCH   1  13
ATOM     13  C5  <0> d           1.361   2.849   1.254  0.00  0.00    -0.063 C 
ATOM     14  H9  <0> d           1.321   2.216   2.141  0.00  0.00     0.029 H 
ATOM     15  H10 <0> d           2.298   3.406   1.248  0.00  0.00     0.029 H 
ATOM     16  H11 <0> d           0.523   3.546   1.265  0.00  0.00     0.029 H 
ENDBRANCH   1  13
BRANCH   1  17
ATOM     17  C6  <0> d          -0.014   1.203   0.009  0.00  0.00     0.131 C 
ATOM     18  O1  <0> d           0.002  -0.004   0.002  0.00  0.00    -0.298 OA
BRANCH  17  19
ATOM     19  C7  <0> d          -1.329   1.939   0.019  0.00  0.00    -0.020 C 
ATOM     20  H12 <0> d          -2.081   1.279   0.019  0.00  0.00     0.037 H 
ATOM     21  H13 <0> d          -1.391   2.560   0.913  0.00  0.00     0.037 H 
ATOM     22  H14 <0> d          -1.400   2.570  -0.867  0.00  0.00     0.037 H 
ENDBRANCH  17  19
ENDBRANCH   1  17
TORSDOF 6
