REMARK  5 active torsions:
REMARK  status: ('A' for Active; 'I' for Inactive)
REMARK    1  A    between atoms: C1_1  and  O1_2 
REMARK    2  A    between atoms: O1_2  and  C2_3 
REMARK    3  A    between atoms: C2_3  and  C3_5 
REMARK    4  A    between atoms: C3_5  and  C4_6 
REMARK    5  A    between atoms: C4_6  and  N1_7 
ROOT
ATOM      1  C4  <0> d          -0.019   1.526   0.010  0.00  0.00     0.025 C 
ATOM      2  H6  <0> d           1.004   1.903   0.003  0.00  0.00     0.068 H 
ATOM      3  H7  <0> d          -0.546   1.887  -0.873  0.00  0.00     0.068 H 
ENDROOT
BRANCH   1   4
ATOM      4  C3  <0> d           0.002  -0.004   0.002  0.00  0.00     0.032 C 
ATOM      5  H4  <0> d           0.529  -0.365   0.885  0.00  0.00     0.050 H 
ATOM      6  H5  <0> d          -1.020  -0.381   0.010  0.00  0.00     0.050 H 
BRANCH   4   7
ATOM      7  C2  <0> d           0.707  -0.490  -1.238  0.00  0.00     0.260 C 
ATOM      8  O2  <0> d           1.148   0.305  -2.033  0.00  0.00    -0.265 OA
BRANCH   7   9
ATOM      9  O1  <0> d           0.846  -1.807  -1.459  0.00  0.00    -0.326 OA
BRANCH   9  10
ATOM     10  C1  <0> d           1.536  -2.203  -2.673  0.00  0.00     0.013 C 
ATOM     11  H1  <0> d           0.999  -1.815  -3.539  0.00  0.00     0.067 H 
ATOM     12  H2  <0> d           2.549  -1.799  -2.664  0.00  0.00     0.067 H 
ATOM     13  H3  <0> d           1.579  -3.290  -2.729  0.00  0.00     0.067 H 
ENDBRANCH   9  10
ENDBRANCH   7   9
ENDBRANCH   4   7
ENDBRANCH   1   4
BRANCH   1  14
ATOM     14  N1  <0> d          -0.704   1.998   1.216  0.00  0.00    -0.281 N 
ATOM     15  N2  <0> d          -1.998   1.645   1.619  0.00  0.00    -0.185 NA
ATOM     16  C7  <0> d          -2.259   2.263   2.743  0.00  0.00     0.023 A 
ATOM     17  C6  <0> d          -1.144   3.036   3.085  0.00  0.00    -0.048 A 
ATOM     18  H10 <0> d          -3.178   2.193   3.306  0.00  0.00     0.117 H 
ATOM     19  C5  <0> d          -0.203   2.855   2.130  0.00  0.00    -0.000 A 
ATOM     20  H9  <0> d          -1.051   3.666   3.958  0.00  0.00     0.087 H 
ATOM     21  H8  <0> d           0.774   3.313   2.104  0.00  0.00     0.114 H 
ENDBRANCH   1  14
TORSDOF 5
