REMARK  2 active torsions:
REMARK  status: ('A' for Active; 'I' for Inactive)
REMARK    1  A    between atoms: C3_3  and  C7_9 
REMARK    2  A    between atoms: C7_9  and  O2_10 
ROOT
ATOM      1  C1  <0> d          -1.301   2.996  -1.105  0.00  0.00    -0.058 C 
ATOM      2  C2  <0> d          -0.060   3.879  -0.961  0.00  0.00    -0.059 C 
ATOM      3  C3  <0> d           1.202   3.030  -1.128  0.00  0.00    -0.027 C 
ATOM      4  H1  <0> d           1.171   2.515  -2.099  0.00  0.00     0.043 H 
ATOM      5  C4  <0> d           1.274   1.997   0.001  0.00  0.00    -0.004 C 
ATOM      6  C5  <0> d          -0.014   1.203   0.009  0.00  0.00     0.127 C 
ATOM      7  O1  <0> d           0.002  -0.004   0.002  0.00  0.00    -0.298 OA
ATOM      8  C6  <0> d          -1.323   1.961   0.019  0.00  0.00    -0.010 C 
ATOM      9  H2  <0> d          -1.274   2.482  -2.077  0.00  0.00     0.033 H 
ATOM     10  H3  <0> d          -2.204   3.622  -1.046  0.00  0.00     0.033 H 
ATOM     11  H4  <0> d          -0.076   4.663  -1.732  0.00  0.00     0.033 H 
ATOM     12  H5  <0> d          -0.055   4.345   0.035  0.00  0.00     0.033 H 
ATOM     13  H6  <0> d           2.127   1.325  -0.172  0.00  0.00     0.045 H 
ATOM     14  H7  <0> d           1.402   2.513   0.963  0.00  0.00     0.045 H 
ATOM     15  H8  <0> d          -1.451   2.472   0.985  0.00  0.00     0.044 H 
ATOM     16  H9  <0> d          -2.159   1.264  -0.141  0.00  0.00     0.044 H 
ENDROOT
BRANCH   3  17
ATOM     17  C7  <0> d           2.436   3.934  -1.072  0.00  0.00     0.020 C 
ATOM     18  H10 <0> d           2.341   4.731  -1.824  0.00  0.00     0.074 H 
ATOM     19  H11 <0> d           2.516   4.383  -0.071  0.00  0.00     0.074 H 
BRANCH  17  20
ATOM     20  O2  <0> d           3.606   3.160  -1.342  0.00  0.00    -0.400 OA
ATOM     21  H12 <0> d           4.595   3.641  -1.345  0.00  0.00     0.209 HD
ENDBRANCH  17  20
ENDBRANCH   3  17
TORSDOF 2
