REMARK  2 active torsions:
REMARK  status: ('A' for Active; 'I' for Inactive)
REMARK    1  A    between atoms: C2_2  and  O4_14 
REMARK    2  A    between atoms: C5_9  and  O3_13 
ROOT
ATOM      1  C1  <0> d          -0.018   1.451   0.010  0.00  0.00     0.046 C 
ATOM      2  C2  <0> d           1.472   1.922  -0.002  0.00  0.00     0.083 C 
ATOM      3  H1  <0> d           1.621   2.776   0.659  0.00  0.00     0.090 H 
ATOM      4  C3  <0> d           2.150   0.680   0.544  0.00  0.00     0.092 C 
ATOM      5  H2  <0> d           1.948   0.584   1.611  0.00  0.00     0.091 H 
ATOM      6  C4  <0> d           1.317  -0.395  -0.257  0.00  0.00     0.092 C 
ATOM      7  H3  <0> d           1.519  -0.299  -1.324  0.00  0.00     0.091 H 
ATOM      8  O1  <0> d           0.002  -0.004   0.002  0.00  0.00    -0.378 OA
ATOM      9  C5  <0> d           1.995  -1.637   0.289  0.00  0.00     0.083 C 
ATOM     10  H4  <0> d           1.658  -1.859   1.302  0.00  0.00     0.090 H 
ATOM     11  C6  <0> d           3.484  -1.166   0.278  0.00  0.00     0.046 C 
ATOM     12  O2  <0> d           3.458   0.278   0.268  0.00  0.00    -0.378 OA
ATOM     13  H5  <0> d          -0.516   1.812   0.910  0.00  0.00     0.078 H 
ATOM     14  H6  <0> d          -0.533   1.821  -0.876  0.00  0.00     0.078 H 
ATOM     15  H7  <0> d           3.999  -1.536   1.164  0.00  0.00     0.078 H 
ATOM     16  H8  <0> d           3.983  -1.527  -0.622  0.00  0.00     0.078 H 
ENDROOT
BRANCH   2  17
ATOM     17  O4  <0> d           1.913   2.214  -1.329  0.00  0.00    -0.391 OA
ATOM     18  H10 <0> d           1.421   2.927  -1.759  0.00  0.00     0.210 HD
ENDBRANCH   2  17
BRANCH   9  19
ATOM     19  O3  <0> d           1.798  -2.758  -0.576  0.00  0.00    -0.391 OA
ATOM     20  H9  <0> d           2.215  -3.573  -0.265  0.00  0.00     0.210 HD
ENDBRANCH   9  19
TORSDOF 2
