REMARK  0 active torsions:
REMARK  status: ('A' for Active; 'I' for Inactive)
ROOT
ATOM      1  C1  <0> d          -0.723  -2.285  -0.004  0.00  0.00    -0.078 A 
ATOM      2  C2  <0> d           0.629  -2.683  -0.019  0.00  0.00    -0.067 A 
ATOM      3  C3  <0> d           1.613  -1.766  -0.023  0.00  0.00    -0.009 A 
ATOM      4  N1  <0> d           1.319  -0.423  -0.013  0.00  0.00    -0.256 N 
ATOM      5  C4  <0> d           0.002  -0.004   0.002  0.00  0.00     0.158 A 
ATOM      6  C5  <0> d          -1.038  -0.967   0.006  0.00  0.00    -0.036 A 
ATOM      7  N2  <0> d          -0.016   1.308   0.009  0.00  0.00    -0.152 NA
ATOM      8  N3  <0> d           1.312   1.757  -0.001  0.00  0.00    -0.226 N 
ATOM      9  H1  <0> d           1.528   2.836   0.003  0.00  0.00     0.194 HD
ATOM     10  C6  <0> d           2.110   0.669  -0.015  0.00  0.00     0.348 A 
ATOM     11  O1  <0> d           3.328   0.673  -0.025  0.00  0.00    -0.245 OA
ATOM     12  H2  <0> d          -1.506  -3.029  -0.001  0.00  0.00     0.083 H 
ATOM     13  H3  <0> d           0.878  -3.734  -0.027  0.00  0.00     0.085 H 
ATOM     14  H4  <0> d           2.644  -2.088  -0.035  0.00  0.00     0.112 H 
ATOM     15  H5  <0> d          -2.072  -0.654   0.018  0.00  0.00     0.089 H 
ENDROOT
TORSDOF 0
