REMARK  5 active torsions:
REMARK  status: ('A' for Active; 'I' for Inactive)
REMARK    1  A    between atoms: C1_1  and  N1_2 
REMARK    2  A    between atoms: N1_2  and  C2_3 
REMARK    3  A    between atoms: N1_2  and  C3_4 
REMARK    4  A    between atoms: C5_7  and  N5_11 
REMARK    5  A    between atoms: C6_9  and  N4_10 
ROOT
ATOM      1  C3  <0> d          -0.046   1.112   2.376  0.00  0.00     0.074 A 
ATOM      2  C4  <0> d           1.272   1.457   2.625  0.00  0.00     0.045 A 
ATOM      3  N2  <0> d           1.859   1.016   3.730  0.00  0.00    -0.074 NA
ATOM      4  C5  <0> d           1.203   0.256   4.592  0.00  0.00     0.722 A 
ATOM      5  N3  <0> d          -0.058  -0.097   4.393  0.00  0.00    -0.044 NA
ATOM      6  C6  <0> d          -0.713   0.310   3.312  0.00  0.00     0.163 A 
ATOM      7  H7  <0> d           1.816   2.077   1.927  0.00  0.00     0.118 H 
ENDROOT
BRANCH   1   8
ATOM      8  N1  <0> d          -0.700   1.560   1.217  0.00  0.00    -0.287 NA
BRANCH   8   9
ATOM      9  C1  <0> d          -0.013   1.086   0.008  0.00  0.00    -0.029 C 
ATOM     10  H1  <0> d           0.002  -0.004   0.002  0.00  0.00     0.048 H 
ATOM     11  H2  <0> d           1.010   1.463   0.000  0.00  0.00     0.048 H 
ATOM     12  H3  <0> d          -0.540   1.447  -0.875  0.00  0.00     0.048 H 
ENDBRANCH   8   9
BRANCH   8  13
ATOM     13  C2  <0> d          -0.822   3.023   1.213  0.00  0.00    -0.029 C 
ATOM     14  H4  <0> d          -1.332   3.344   0.305  0.00  0.00     0.048 H 
ATOM     15  H5  <0> d          -1.396   3.342   2.083  0.00  0.00     0.048 H 
ATOM     16  H6  <0> d           0.171   3.471   1.249  0.00  0.00     0.048 H 
ENDBRANCH   8  13
ENDBRANCH   1   8
BRANCH   6  17
ATOM     17  N4  <0> d          -2.037  -0.057   3.110  0.00  0.00    -0.382 N 
ATOM     18  H8  <0> d          -2.507   0.241   2.315  0.00  0.00     0.157 HD
ATOM     19  H9  <0> d          -2.491  -0.612   3.762  0.00  0.00     0.157 HD
ENDBRANCH   6  17
BRANCH   4  20
ATOM     20  N5  <0> d           1.854  -0.182   5.736  0.00  0.00    -0.231 N 
ATOM     21  H10 <0> d           2.777   0.069   5.895  0.00  0.00     0.174 HD
ATOM     22  H11 <0> d           1.385  -0.740   6.377  0.00  0.00     0.174 HD
ENDBRANCH   4  20
TORSDOF 5
