REMARK  2 active torsions:
REMARK  status: ('A' for Active; 'I' for Inactive)
REMARK    1  A    between atoms: C1_1  and  C2_2 
REMARK    2  A    between atoms: C5_5  and  C8_8 
ROOT
ATOM      1  C8  <0> d          -0.013   1.086   0.008  0.00  0.00     0.038 C 
ATOM      2  C9  <0> d          -0.725   1.573  -1.185  0.00  0.00     0.063 C 
ATOM      3  N1  <0> d          -1.274   1.950  -2.105  0.00  0.00    -0.197 NA
ATOM      4  H8  <0> d           0.002  -0.004   0.002  0.00  0.00     0.062 H 
ATOM      5  H9  <0> d           1.010   1.463   0.000  0.00  0.00     0.062 H 
ENDROOT
BRANCH   1   6
ATOM      6  C5  <0> d          -0.718   1.572   1.248  0.00  0.00    -0.045 A 
ATOM      7  C4  <0> d          -1.719   0.808   1.818  0.00  0.00    -0.075 A 
ATOM      8  C3  <0> d          -2.366   1.254   2.955  0.00  0.00    -0.077 A 
ATOM      9  H5  <0> d          -1.996  -0.137   1.374  0.00  0.00     0.084 H 
ATOM     10  C2  <0> d          -2.012   2.463   3.523  0.00  0.00    -0.062 A 
ATOM     11  H4  <0> d          -3.149   0.657   3.400  0.00  0.00     0.084 H 
ATOM     12  C7  <0> d          -1.010   3.227   2.953  0.00  0.00    -0.077 A 
ATOM     13  C6  <0> d          -0.360   2.779   1.819  0.00  0.00    -0.075 A 
ATOM     14  H7  <0> d          -0.733   4.172   3.397  0.00  0.00     0.084 H 
ATOM     15  H6  <0> d           0.425   3.373   1.376  0.00  0.00     0.084 H 
BRANCH  10  16
ATOM     16  C1  <0> d          -2.717   2.949   4.763  0.00  0.00    -0.051 C 
ATOM     17  H1  <0> d          -2.190   2.587   5.646  0.00  0.00     0.033 H 
ATOM     18  H2  <0> d          -2.731   4.039   4.769  0.00  0.00     0.033 H 
ATOM     19  H3  <0> d          -3.740   2.572   4.770  0.00  0.00     0.033 H 
ENDBRANCH  10  16
ENDBRANCH   1   6
TORSDOF 2
