REMARK  5 active torsions:
REMARK  status: ('A' for Active; 'I' for Inactive)
REMARK    1  A    between atoms: C1_1  and  C2_2 
REMARK    2  A    between atoms: C2_2  and  C3_4 
REMARK    3  A    between atoms: C2_2  and  C4_8 
REMARK    4  A    between atoms: C3_4  and  S1_5 
REMARK    5  A    between atoms: S1_5  and  O2_7 
ROOT
ATOM      1  C2  <0> d           1.235   3.094   0.007  0.00  0.00     0.039 C 
ATOM      2  H1  <0> d           0.719   3.471  -0.889  0.00  0.00     0.057 H 
ENDROOT
BRANCH   1   3
ATOM      3  C1  <0> d           0.546   3.625   1.266  0.00  0.00    -0.063 C 
ATOM      4  H2  <0> d          -0.504   3.299   1.274  0.00  0.00     0.028 H 
ATOM      5  H3  <0> d           0.589   4.724   1.271  0.00  0.00     0.028 H 
ATOM      6  H4  <0> d           1.058   3.234   2.157  0.00  0.00     0.028 H 
ENDBRANCH   1   3
BRANCH   1   7
ATOM      7  C3  <0> d           2.696   3.548  -0.005  0.00  0.00     0.040 C 
ATOM      8  H5  <0> d           3.185   3.233   0.929  0.00  0.00     0.057 H 
ATOM      9  H6  <0> d           3.215   3.093  -0.862  0.00  0.00     0.057 H 
BRANCH   7  10
ATOM     10  S1  <0> d           2.767   5.355  -0.145  0.00  0.00     0.151 S 
ATOM     11  O1  <0> d           2.293   5.942   1.059  0.00  0.00    -0.229 OA
BRANCH  10  12
ATOM     12  O2  <0> d           4.257   5.666  -0.145  0.00  0.00    -0.306 OA
ATOM     13  H7  <0> d           4.601   6.708  -0.220  0.00  0.00     0.230 HD
ENDBRANCH  10  12
ENDBRANCH   7  10
ENDBRANCH   1   7
BRANCH   1  14
ATOM     14  C4  <0> d           1.177   1.588  -0.001  0.00  0.00     0.177 C 
ATOM     15  O3  <0> d           2.199   0.944  -0.014  0.00  0.00    -0.648 OA
ATOM     16  O4  <0> d          -0.011   0.963   0.007  0.00  0.00    -0.648 OA
ENDBRANCH   1  14
TORSDOF 5
