REMARK  3 active torsions:
REMARK  status: ('A' for Active; 'I' for Inactive)
REMARK    1  A    between atoms: C1_1  and  C2_2 
REMARK    2  A    between atoms: C3_5  and  C5_8 
REMARK    3  A    between atoms: C5_8  and  C6_10 
ROOT
ATOM      1  C5  <0> d           0.040  -3.316  -1.544  0.00  0.00     0.068 C 
ATOM      2  H2  <0> d          -0.403  -3.081  -2.512  0.00  0.00     0.072 H 
ATOM      3  C7  <0> d           1.427  -3.768  -1.736  0.00  0.00     0.070 C 
ATOM      4  N3  <0> d           2.498  -4.116  -1.883  0.00  0.00    -0.197 NA
ENDROOT
BRANCH   1   5
ATOM      5  C3  <0> d           0.027  -2.086  -0.674  0.00  0.00     0.045 A 
ATOM      6  N1  <0> d           0.008  -0.785  -1.100  0.00  0.00    -0.346 N 
ATOM      7  C2  <0> d           0.002  -0.004   0.002  0.00  0.00     0.100 A 
ATOM      8  H1  <0> d          -0.000  -0.481  -2.021  0.00  0.00     0.167 HD
ATOM      9  N2  <0> d           0.023  -0.770   1.058  0.00  0.00    -0.246 NA
ATOM     10  C4  <0> d           0.033  -2.055   0.673  0.00  0.00     0.027 A 
ATOM     11  H6  <0> d           0.047  -2.914   1.327  0.00  0.00     0.117 H 
BRANCH   7  12
ATOM     12  C1  <0> d          -0.018   1.503   0.010  0.00  0.00    -0.021 C 
ATOM     13  H3  <0> d           1.004   1.880   0.003  0.00  0.00     0.037 H 
ATOM     14  H4  <0> d          -0.545   1.864  -0.873  0.00  0.00     0.037 H 
ATOM     15  H5  <0> d          -0.529   1.854   0.907  0.00  0.00     0.037 H 
ENDBRANCH   7  12
ENDBRANCH   1   5
BRANCH   1  16
ATOM     16  C6  <0> d          -0.770  -4.426  -0.870  0.00  0.00    -0.056 C 
ATOM     17  H7  <0> d          -1.797  -4.091  -0.728  0.00  0.00     0.029 H 
ATOM     18  H8  <0> d          -0.761  -5.316  -1.500  0.00  0.00     0.029 H 
ATOM     19  H9  <0> d          -0.327  -4.661   0.098  0.00  0.00     0.029 H 
ENDBRANCH   1  16
TORSDOF 3
