REMARK  4 active torsions:
REMARK  status: ('A' for Active; 'I' for Inactive)
REMARK    1  A    between atoms: C1_1  and  C2_2 
REMARK       I    between atoms: C2_2  and  N1_4 
REMARK    2  A    between atoms: N1_4  and  C3_5 
REMARK    3  A    between atoms: N1_4  and  C4_6 
REMARK    4  A    between atoms: C4_6  and  C5_7 
ROOT
ATOM      1  C5  <0> d          -0.090   1.560  -0.022  0.00  0.00     0.029 C 
ATOM      2  C6  <0> d          -0.111   0.089  -0.063  0.00  0.00     0.060 C 
ATOM      3  N2  <0> d          -0.127  -1.046  -0.095  0.00  0.00    -0.197 NA
ATOM      4  H9  <0> d           0.942   1.909   0.002  0.00  0.00     0.057 H 
ATOM      5  H10 <0> d          -0.586   1.956  -0.909  0.00  0.00     0.057 H 
ENDROOT
BRANCH   1   6
ATOM      6  C4  <0> d          -0.823   2.046   1.230  0.00  0.00     0.008 C 
ATOM      7  H7  <0> d          -1.855   1.698   1.206  0.00  0.00     0.065 H 
ATOM      8  H8  <0> d          -0.327   1.651   2.117  0.00  0.00     0.065 H 
BRANCH   6   9
ATOM      9  N1  <0> d          -0.802   3.510   1.271  0.00  0.00    -0.356 N 
ATOM     10  C2  <0> d          -1.795   4.215   0.692  0.00  0.00     0.215 C 
ATOM     11  O1  <0> d          -2.660   3.640   0.065  0.00  0.00    -0.274 OA
BRANCH  10  12
ATOM     12  C1  <0> d          -1.831   5.715   0.824  0.00  0.00    -0.003 C 
ATOM     13  H1  <0> d          -0.932   6.056   1.338  0.00  0.00     0.040 H 
ATOM     14  H2  <0> d          -1.876   6.166  -0.167  0.00  0.00     0.040 H 
ATOM     15  H3  <0> d          -2.710   6.009   1.398  0.00  0.00     0.040 H 
ENDBRANCH  10  12
BRANCH   9  16
ATOM     16  C3  <0> d           0.297   4.209   1.941  0.00  0.00    -0.016 C 
ATOM     17  H4  <0> d           1.053   4.486   1.206  0.00  0.00     0.056 H 
ATOM     18  H5  <0> d          -0.085   5.108   2.425  0.00  0.00     0.056 H 
ATOM     19  H6  <0> d           0.741   3.554   2.690  0.00  0.00     0.056 H 
ENDBRANCH   9  16
ENDBRANCH   6   9
ENDBRANCH   1   6
TORSDOF 4
