REMARK  0 active torsions:
REMARK  status: ('A' for Active; 'I' for Inactive)
ROOT
ATOM      1  C1  <0> d          -0.017   1.416   0.010  0.00  0.00     0.195 A 
ATOM      2  C2  <0> d           1.206   2.097   0.002  0.00  0.00     0.185 A 
ATOM      3  N1  <0> d           0.900   3.426   0.011  0.00  0.00    -0.240 N 
ATOM      4  H1  <0> d           1.529   4.165   0.009  0.00  0.00     0.192 HD
ATOM      5  N2  <0> d          -0.499   3.516   0.025  0.00  0.00    -0.066 NA
ATOM      6  N3  <0> d          -1.000   2.330   0.019  0.00  0.00    -0.122 NA
ATOM      7  N4  <0> d           2.353   1.405  -0.013  0.00  0.00    -0.184 NA
ATOM      8  C3  <0> d           2.354   0.093  -0.019  0.00  0.00     0.282 A 
ATOM      9  N5  <0> d           1.200  -0.629  -0.012  0.00  0.00    -0.283 N 
ATOM     10  C4  <0> d           0.002  -0.004   0.002  0.00  0.00     0.283 A 
ATOM     11  O1  <0> d          -1.036  -0.643   0.008  0.00  0.00    -0.265 OA
ATOM     12  O2  <0> d           3.535  -0.560  -0.034  0.00  0.00    -0.149 OA
ATOM     13  H2  <0> d           1.238  -1.598  -0.018  0.00  0.00     0.172 HD
ENDROOT
TORSDOF 0
