REMARK  2 active torsions:
REMARK  status: ('A' for Active; 'I' for Inactive)
REMARK    1  A    between atoms: C1_1  and  O1_2 
REMARK    2  A    between atoms: O1_2  and  C2_3 
ROOT
ATOM      1  C2  <0> d          -1.094  -2.119  -0.001  0.00  0.00     0.086 A 
ATOM      2  C3  <0> d          -1.189  -0.752   0.009  0.00  0.00    -0.037 A 
ATOM      3  C4  <0> d           0.002  -0.004   0.002  0.00  0.00    -0.005 A 
ATOM      4  C5  <0> d          -0.017   1.401   0.010  0.00  0.00    -0.071 A 
ATOM      5  C6  <0> d           1.157   2.089   0.002  0.00  0.00    -0.082 A 
ATOM      6  C7  <0> d           2.379   1.419  -0.012  0.00  0.00    -0.081 A 
ATOM      7  C8  <0> d           2.435   0.060  -0.020  0.00  0.00    -0.054 A 
ATOM      8  C9  <0> d           1.244  -0.688  -0.013  0.00  0.00     0.067 A 
ATOM      9  N1  <0> d           1.269  -2.024  -0.022  0.00  0.00    -0.258 NA
ATOM     10  C10 <0> d           0.164  -2.728  -0.017  0.00  0.00     0.035 A 
ATOM     11  H4  <0> d          -2.152  -0.262   0.021  0.00  0.00     0.089 H 
ATOM     12  H5  <0> d          -0.958   1.931   0.017  0.00  0.00     0.084 H 
ATOM     13  H6  <0> d           1.141   3.169   0.008  0.00  0.00     0.083 H 
ATOM     14  H7  <0> d           3.297   1.988  -0.018  0.00  0.00     0.083 H 
ATOM     15  H8  <0> d           3.390  -0.444  -0.032  0.00  0.00     0.087 H 
ATOM     16  H9  <0> d           0.227  -3.806  -0.024  0.00  0.00     0.119 H 
ENDROOT
BRANCH   1  17
ATOM     17  O1  <0> d          -2.220  -2.880   0.005  0.00  0.00    -0.354 OA
BRANCH  17  18
ATOM     18  C1  <0> d          -2.044  -4.298  -0.006  0.00  0.00     0.010 C 
ATOM     19  H1  <0> d          -3.019  -4.785   0.001  0.00  0.00     0.066 H 
ATOM     20  H2  <0> d          -1.498  -4.590  -0.903  0.00  0.00     0.066 H 
ATOM     21  H3  <0> d          -1.481  -4.601   0.877  0.00  0.00     0.066 H 
ENDBRANCH  17  18
ENDBRANCH   1  17
TORSDOF 2
