REMARK  6 active torsions:
REMARK  status: ('A' for Active; 'I' for Inactive)
REMARK    1  A    between atoms: C1_1  and  C2_2 
REMARK    2  A    between atoms: C2_2  and  C3_3 
REMARK    3  A    between atoms: C3_3  and  C4_4 
REMARK    4  A    between atoms: C4_4  and  C5_6 
REMARK    5  A    between atoms: C4_4  and  N1_7 
REMARK       I    between atoms: N1_7  and  C6_8 
REMARK    6  A    between atoms: C6_8  and  C7_10 
ROOT
ATOM      1  C4  <0> d          -1.290   1.681   0.017  0.00  0.00     0.008 C 
ATOM      2  H1  <0> d          -1.198   2.596  -0.568  0.00  0.00     0.071 H 
ENDROOT
BRANCH   1   3
ATOM      3  C3  <0> d          -2.376   0.792  -0.592  0.00  0.00    -0.047 C 
ATOM      4  H7  <0> d          -2.406  -0.160  -0.062  0.00  0.00     0.035 H 
ATOM      5  H8  <0> d          -3.343   1.288  -0.504  0.00  0.00     0.035 H 
BRANCH   3   6
ATOM      6  C2  <0> d          -2.062   0.544  -2.069  0.00  0.00    -0.067 C 
ATOM      7  H5  <0> d          -2.032   1.496  -2.599  0.00  0.00     0.032 H 
ATOM      8  H6  <0> d          -1.096   0.048  -2.157  0.00  0.00     0.032 H 
BRANCH   6   9
ATOM      9  C1  <0> d          -3.149  -0.345  -2.678  0.00  0.00    -0.076 C 
ATOM     10  H2  <0> d          -4.115   0.151  -2.590  0.00  0.00     0.027 H 
ATOM     11  H3  <0> d          -2.925  -0.522  -3.730  0.00  0.00     0.027 H 
ATOM     12  H4  <0> d          -3.179  -1.297  -2.148  0.00  0.00     0.027 H 
ENDBRANCH   6   9
ENDBRANCH   3   6
ENDBRANCH   1   3
BRANCH   1  13
ATOM     13  C5  <0> d          -1.667   2.032   1.458  0.00  0.00    -0.057 C 
ATOM     14  H9  <0> d          -2.618   2.564   1.465  0.00  0.00     0.030 H 
ATOM     15  H10 <0> d          -1.758   1.117   2.043  0.00  0.00     0.030 H 
ATOM     16  H11 <0> d          -0.893   2.665   1.892  0.00  0.00     0.030 H 
ENDBRANCH   1  13
BRANCH   1  17
ATOM     17  N1  <0> d          -0.011   0.966   0.007  0.00  0.00    -0.357 N 
ATOM     18  C6  <0> d           1.147   1.655  -0.000  0.00  0.00     0.213 C 
ATOM     19  O1  <0> d           1.130   2.868   0.007  0.00  0.00    -0.274 OA
ATOM     20  H12 <0> d           0.002  -0.004   0.002  0.00  0.00     0.162 HD
BRANCH  18  21
ATOM     21  C7  <0> d           2.462   0.920  -0.017  0.00  0.00    -0.003 C 
ATOM     22  H13 <0> d           2.520   0.299  -0.910  0.00  0.00     0.040 H 
ATOM     23  H14 <0> d           3.281   1.639  -0.021  0.00  0.00     0.040 H 
ATOM     24  H15 <0> d           2.537   0.289   0.869  0.00  0.00     0.040 H 
ENDBRANCH  18  21
ENDBRANCH   1  17
TORSDOF 6
