REMARK  2 active torsions:
REMARK  status: ('A' for Active; 'I' for Inactive)
REMARK    1  A    between atoms: C4_4  and  N1_7 
REMARK    2  A    between atoms: C7_8  and  N3_12 
ROOT
ATOM      1  C1  <0> d          -0.017   1.379   0.010  0.00  0.00    -0.083 A 
ATOM      2  C2  <0> d           1.170   2.089   0.002  0.00  0.00    -0.081 A 
ATOM      3  C3  <0> d           2.377   1.419  -0.013  0.00  0.00    -0.055 A 
ATOM      4  C4  <0> d           2.399   0.031  -0.021  0.00  0.00     0.060 A 
ATOM      5  C5  <0> d           1.207  -0.680  -0.013  0.00  0.00    -0.055 A 
ATOM      6  C6  <0> d           0.002  -0.004   0.002  0.00  0.00    -0.081 A 
ATOM      7  H1  <0> d          -0.960   1.905   0.026  0.00  0.00     0.083 H 
ATOM      8  H2  <0> d           1.152   3.169   0.008  0.00  0.00     0.083 H 
ATOM      9  H3  <0> d           3.304   1.974  -0.019  0.00  0.00     0.087 H 
ATOM     10  H4  <0> d           1.221  -1.760  -0.019  0.00  0.00     0.087 H 
ATOM     11  H5  <0> d          -0.926  -0.556   0.008  0.00  0.00     0.083 H 
ENDROOT
BRANCH   4  12
ATOM     12  N1  <0> d           3.623  -0.652  -0.037  0.00  0.00    -0.218 N 
ATOM     13  N2  <0> d           4.789  -0.241  -0.696  0.00  0.00    -0.178 NA
ATOM     14  C9  <0> d           5.723  -1.132  -0.478  0.00  0.00     0.026 A 
ATOM     15  C8  <0> d           5.188  -2.149   0.318  0.00  0.00    -0.021 A 
ATOM     16  H7  <0> d           6.734  -1.091  -0.855  0.00  0.00     0.117 H 
ATOM     17  C7  <0> d           3.890  -1.835   0.581  0.00  0.00     0.124 A 
ATOM     18  H6  <0> d           5.712  -3.028   0.663  0.00  0.00     0.091 H 
BRANCH  17  19
ATOM     19  N3  <0> d           2.999  -2.586   1.341  0.00  0.00    -0.384 N 
ATOM     20  H8  <0> d           2.089  -2.275   1.471  0.00  0.00     0.157 HD
ATOM     21  H9  <0> d           3.287  -3.421   1.742  0.00  0.00     0.157 HD
ENDBRANCH  17  19
ENDBRANCH   4  12
TORSDOF 2
