REMARK  3 active torsions:
REMARK  status: ('A' for Active; 'I' for Inactive)
REMARK    1  A    between atoms: C1_1  and  C2_2 
REMARK    2  A    between atoms: C3_3  and  S1_4 
REMARK    3  A    between atoms: S1_4  and  C4_5 
ROOT
ATOM      1  C4  <0> d           2.400   0.031  -0.021  0.00  0.00     0.013 A 
ATOM      2  C5  <0> d           1.206  -0.680  -0.014  0.00  0.00    -0.066 A 
ATOM      3  C6  <0> d           0.002  -0.004   0.002  0.00  0.00    -0.082 A 
ATOM      4  C7  <0> d          -0.017   1.379   0.010  0.00  0.00    -0.083 A 
ATOM      5  C8  <0> d           1.170   2.090   0.002  0.00  0.00    -0.082 A 
ATOM      6  C9  <0> d           2.377   1.421  -0.013  0.00  0.00    -0.066 A 
ATOM      7  H4  <0> d           1.220  -1.760  -0.019  0.00  0.00     0.085 H 
ATOM      8  H5  <0> d          -0.926  -0.556   0.008  0.00  0.00     0.083 H 
ATOM      9  H6  <0> d          -0.960   1.905   0.017  0.00  0.00     0.083 H 
ATOM     10  H7  <0> d           1.151   3.170   0.008  0.00  0.00     0.083 H 
ATOM     11  H8  <0> d           3.303   1.977  -0.019  0.00  0.00     0.085 H 
ENDROOT
BRANCH   1  12
ATOM     12  S1  <0> d           3.939  -0.827  -0.042  0.00  0.00    -0.039 SA
BRANCH  12  13
ATOM     13  C3  <0> d           5.155   0.471  -0.046  0.00  0.00    -0.029 C 
ATOM     14  C2  <0> d           5.958   1.328  -0.049  0.00  0.00    -0.099 C 
BRANCH  14  15
ATOM     15  C1  <0> d           6.965   2.402  -0.052  0.00  0.00    -0.020 C 
ATOM     16  H1  <0> d           7.786   2.138   0.630  0.00  0.00     0.044 H 
ATOM     17  H2  <0> d           6.499   3.342   0.280  0.00  0.00     0.044 H 
ATOM     18  H3  <0> d           7.361   2.530  -1.071  0.00  0.00     0.044 H 
ENDBRANCH  14  15
ENDBRANCH  12  13
ENDBRANCH   1  12
TORSDOF 3
