REMARK  3 active torsions:
REMARK  status: ('A' for Active; 'I' for Inactive)
REMARK    1  A    between atoms: C1_1  and  C2_2 
REMARK    2  A    between atoms: C4_4  and  C7_8 
REMARK    3  A    between atoms: C5_5  and  C6_7 
ROOT
ATOM      1  C2  <0> d           1.127   1.794   0.001  0.00  0.00    -0.020 A 
ATOM      2  C3  <0> d          -0.013   1.076   0.008  0.00  0.00    -0.053 A 
ATOM      3  C4  <0> d          -1.252   1.812   0.018  0.00  0.00     0.054 A 
ATOM      4  C5  <0> d          -1.164   3.189   0.030  0.00  0.00    -0.004 A 
ATOM      5  S1  <0> d           0.543   3.477   0.016  0.00  0.00    -0.099 SA
ATOM      6  H4  <0> d           0.002  -0.004   0.002  0.00  0.00     0.086 H 
ENDROOT
BRANCH   1   7
ATOM      7  C1  <0> d           2.549   1.296  -0.016  0.00  0.00    -0.045 C 
ATOM      8  H1  <0> d           2.882   1.182  -1.047  0.00  0.00     0.034 H 
ATOM      9  H2  <0> d           3.191   2.013   0.496  0.00  0.00     0.034 H 
ATOM     10  H3  <0> d           2.602   0.333   0.492  0.00  0.00     0.034 H 
ENDBRANCH   1   7
BRANCH   4  11
ATOM     11  C6  <0> d          -2.283   4.198   0.046  0.00  0.00    -0.044 C 
ATOM     12  H5  <0> d          -1.865   5.205   0.048  0.00  0.00     0.034 H 
ATOM     13  H6  <0> d          -2.905   4.065  -0.839  0.00  0.00     0.034 H 
ATOM     14  H7  <0> d          -2.889   4.055   0.941  0.00  0.00     0.034 H 
ENDBRANCH   4  11
BRANCH   3  15
ATOM     15  C7  <0> d          -2.553   1.125   0.020  0.00  0.00     0.210 C 
ATOM     16  O1  <0> d          -3.582   1.773   0.028  0.00  0.00    -0.644 OA
ATOM     17  O2  <0> d          -2.604  -0.222   0.013  0.00  0.00    -0.644 OA
ENDBRANCH   3  15
TORSDOF 3
