REMARK  2 active torsions:
REMARK  status: ('A' for Active; 'I' for Inactive)
REMARK    1  A    between atoms: C1_1  and  N1_2 
REMARK    2  A    between atoms: C8_10  and  O1_11 
ROOT
ATOM      1  N1  <0> d           2.088   0.635  -0.015  0.00  0.00    -0.344 N 
ATOM      2  C2  <0> d           1.233  -0.424  -0.012  0.00  0.00     0.067 A 
ATOM      3  N2  <0> d           0.002  -0.004   0.002  0.00  0.00    -0.239 NA
ATOM      4  C3  <0> d          -0.016   1.354   0.009  0.00  0.00     0.118 A 
ATOM      5  C4  <0> d           1.321   1.782  -0.001  0.00  0.00     0.066 A 
ATOM      6  C5  <0> d           1.614   3.140   0.004  0.00  0.00    -0.054 A 
ATOM      7  C6  <0> d           0.592   4.065   0.019  0.00  0.00    -0.078 A 
ATOM      8  C7  <0> d          -0.732   3.651   0.030  0.00  0.00    -0.049 A 
ATOM      9  C8  <0> d          -1.045   2.306   0.029  0.00  0.00     0.096 A 
ATOM     10  H4  <0> d           1.533  -1.462  -0.020  0.00  0.00     0.143 H 
ATOM     11  H5  <0> d           2.642   3.470  -0.004  0.00  0.00     0.087 H 
ATOM     12  H6  <0> d           0.824   5.120   0.023  0.00  0.00     0.083 H 
ATOM     13  H7  <0> d          -1.523   4.386   0.042  0.00  0.00     0.087 H 
ENDROOT
BRANCH   1  14
ATOM     14  C1  <0> d           3.552   0.569  -0.028  0.00  0.00    -0.013 C 
ATOM     15  H1  <0> d           3.905   0.557  -1.059  0.00  0.00     0.057 H 
ATOM     16  H2  <0> d           3.959   1.439   0.486  0.00  0.00     0.057 H 
ATOM     17  H3  <0> d           3.879  -0.339   0.478  0.00  0.00     0.057 H 
ENDBRANCH   1  14
BRANCH   9  18
ATOM     18  O1  <0> d          -2.344   1.907   0.046  0.00  0.00    -0.358 OA
ATOM     19  H8  <0> d          -2.707   1.787   0.934  0.00  0.00     0.217 HD
ENDBRANCH   9  18
TORSDOF 2
