REMARK  2 active torsions:
REMARK  status: ('A' for Active; 'I' for Inactive)
REMARK       I    between atoms: N1_5  and  C7_8 
REMARK    1  A    between atoms: C7_8  and  C8_10 
REMARK    2  A    between atoms: C8_10  and  O2_11 
ROOT
ATOM      1  C1  <0> d          -0.013   1.086   0.008  0.00  0.00    -0.064 C 
ATOM      2  C2  <0> d          -0.728   1.578   1.262  0.00  0.00    -0.064 C 
ATOM      3  C3  <0> d          -0.335   2.928   1.693  0.00  0.00    -0.050 C 
ATOM      4  C4  <0> d          -0.706   3.968   0.607  0.00  0.00    -0.002 C 
ATOM      5  N1  <0> d           0.170   3.814  -0.532  0.00  0.00    -0.350 N 
ATOM      6  C5  <0> d          -0.150   2.931  -1.671  0.00  0.00    -0.002 C 
ATOM      7  C6  <0> d          -0.743   1.586  -1.214  0.00  0.00    -0.050 C 
ATOM      8  C7  <0> d           1.328   4.504  -0.556  0.00  0.00     0.243 C 
ATOM      9  O1  <0> d           2.081   4.393  -1.499  0.00  0.00    -0.271 OA
ATOM     10  H1  <0> d           0.002  -0.004   0.002  0.00  0.00     0.033 H 
ATOM     11  H2  <0> d           1.010   1.463   0.000  0.00  0.00     0.033 H 
ATOM     12  H3  <0> d          -1.801   1.574   1.073  0.00  0.00     0.033 H 
ATOM     13  H4  <0> d          -0.520   0.882   2.075  0.00  0.00     0.033 H 
ATOM     14  H5  <0> d           0.741   2.954   1.864  0.00  0.00     0.035 H 
ATOM     15  H6  <0> d          -0.852   3.175   2.620  0.00  0.00     0.035 H 
ATOM     16  H7  <0> d          -0.597   4.973   1.015  0.00  0.00     0.064 H 
ATOM     17  H8  <0> d          -1.739   3.813   0.294  0.00  0.00     0.064 H 
ATOM     18  H9  <0> d           0.761   2.741  -2.239  0.00  0.00     0.064 H 
ATOM     19  H10 <0> d          -0.870   3.434  -2.316  0.00  0.00     0.064 H 
ATOM     20  H11 <0> d          -0.646   0.856  -2.017  0.00  0.00     0.035 H 
ATOM     21  H12 <0> d          -1.798   1.719  -0.974  0.00  0.00     0.035 H 
ENDROOT
BRANCH   8  22
ATOM     22  C8  <0> d           1.685   5.414   0.591  0.00  0.00     0.090 C 
ATOM     23  H13 <0> d           0.921   6.185   0.695  0.00  0.00     0.088 H 
ATOM     24  H14 <0> d           1.743   4.834   1.512  0.00  0.00     0.088 H 
BRANCH  22  25
ATOM     25  O2  <0> d           2.950   6.029   0.335  0.00  0.00    -0.392 OA
ATOM     26  H15 <0> d           3.244   6.630   1.033  0.00  0.00     0.210 HD
ENDBRANCH  22  25
ENDBRANCH   8  22
TORSDOF 2
