REMARK  0 active torsions:
REMARK  status: ('A' for Active; 'I' for Inactive)
ROOT
ATOM      1  C1  <0> d          -1.215   1.750   0.017  0.00  0.00    -0.060 A 
ATOM      2  C2  <0> d          -0.013   1.076   0.008  0.00  0.00    -0.058 A 
ATOM      3  C3  <0> d           1.187   1.792   0.000  0.00  0.00     0.081 A 
ATOM      4  C4  <0> d           1.158   3.194   0.008  0.00  0.00     0.129 A 
ATOM      5  C5  <0> d          -0.059   3.856   0.022  0.00  0.00    -0.025 A 
ATOM      6  C6  <0> d          -1.239   3.135   0.030  0.00  0.00     0.036 A 
ATOM      7 Cl1  <0> d          -2.760   3.972   0.048  0.00  0.00    -0.084 Cl
ATOM      8  O1  <0> d           2.318   3.899   0.001  0.00  0.00    -0.190 OA
ATOM      9  C7  <0> d           2.439   1.097  -0.015  0.00  0.00     0.102 C 
ATOM     10  N1  <0> d           3.433   0.547  -0.028  0.00  0.00    -0.191 NA
ATOM     11  H1  <0> d          -2.142   1.195   0.019  0.00  0.00     0.086 H 
ATOM     12  H2  <0> d           0.002  -0.004   0.002  0.00  0.00     0.086 H 
ATOM     13  H3  <0> d          -0.086   4.935   0.028  0.00  0.00     0.090 H 
ENDROOT
TORSDOF 0
