REMARK  3 active torsions:
REMARK  status: ('A' for Active; 'I' for Inactive)
REMARK    1  A    between atoms: C4_4  and  C7_7 
REMARK    2  A    between atoms: C7_7  and  C8_8 
REMARK    3  A    between atoms: C8_8  and  O1_11 
ROOT
ATOM      1  C7  <0> d           3.711  -0.707  -0.038  0.00  0.00    -0.012 C 
ATOM      2  H6  <0> d           3.588  -1.659  -0.555  0.00  0.00     0.044 H 
ATOM      3  H7  <0> d           4.457  -0.105  -0.556  0.00  0.00     0.044 H 
ENDROOT
BRANCH   1   4
ATOM      4  C4  <0> d           2.396   0.029  -0.020  0.00  0.00    -0.055 A 
ATOM      5  C3  <0> d           2.377   1.411  -0.013  0.00  0.00    -0.077 A 
ATOM      6  C2  <0> d           1.171   2.086   0.002  0.00  0.00    -0.082 A 
ATOM      7  H3  <0> d           3.305   1.963  -0.020  0.00  0.00     0.084 H 
ATOM      8  C1  <0> d          -0.017   1.378   0.010  0.00  0.00    -0.083 A 
ATOM      9  H2  <0> d           1.156   3.165   0.008  0.00  0.00     0.083 H 
ATOM     10  C6  <0> d           0.002  -0.004   0.002  0.00  0.00    -0.082 A 
ATOM     11  H1  <0> d          -0.959   1.905   0.026  0.00  0.00     0.083 H 
ATOM     12  C5  <0> d           1.208  -0.679  -0.012  0.00  0.00    -0.077 A 
ATOM     13  H5  <0> d          -0.926  -0.557   0.008  0.00  0.00     0.083 H 
ATOM     14  H4  <0> d           1.223  -1.759  -0.018  0.00  0.00     0.084 H 
ENDBRANCH   1   4
BRANCH   1  15
ATOM     15  C8  <0> d           4.171  -0.963   1.399  0.00  0.00     0.062 A 
ATOM     16  C10 <0> d           5.496  -1.704   1.595  0.00  0.00    -0.033 A 
ATOM     17  C9  <0> d           4.172  -2.411   1.893  0.00  0.00    -0.033 A 
ATOM     18  H10 <0> d           6.039  -2.009   0.701  0.00  0.00     0.037 H 
ATOM     19  H11 <0> d           6.114  -1.414   2.445  0.00  0.00     0.037 H 
ATOM     20  H8  <0> d           3.919  -2.587   2.939  0.00  0.00     0.037 H 
ATOM     21  H9  <0> d           3.845  -3.182   1.194  0.00  0.00     0.037 H 
BRANCH  15  22
ATOM     22  O1  <0> d           3.839   0.056   2.344  0.00  0.00    -0.390 OA
ATOM     23  H12 <0> d           2.992   0.490   2.173  0.00  0.00     0.210 HD
ENDBRANCH  15  22
ENDBRANCH   1  15
TORSDOF 3
