REMARK  2 active torsions:
REMARK  status: ('A' for Active; 'I' for Inactive)
REMARK    1  A    between atoms: C1_1  and  S1_2 
REMARK    2  A    between atoms: S1_2  and  N1_5 
ROOT
ATOM      1  N1  <0> d           0.025   1.063   2.760  0.00  0.00    -0.244 N 
ATOM      2  C2  <0> d          -0.168  -0.141   3.383  0.00  0.00     0.014 A 
ATOM      3  C3  <0> d           0.771  -0.236   4.344  0.00  0.00     0.019 A 
ATOM      4  N2  <0> d           1.510   0.882   4.315  0.00  0.00    -0.254 NA
ATOM      5  C4  <0> d           1.069   1.665   3.369  0.00  0.00     0.080 A 
ATOM      6  H4  <0> d          -0.925  -0.874   3.147  0.00  0.00     0.115 H 
ATOM      7  H5  <0> d           0.902  -1.067   5.022  0.00  0.00     0.117 H 
ATOM      8  H6  <0> d           1.473   2.634   3.115  0.00  0.00     0.145 H 
ENDROOT
BRANCH   1   9
ATOM      9  S1  <0> d          -0.862   1.671   1.500  0.00  0.00     0.233 S 
ATOM     10  O1  <0> d          -0.735   3.082   1.615  0.00  0.00    -0.206 OA
ATOM     11  O2  <0> d          -2.133   1.046   1.617  0.00  0.00    -0.206 OA
BRANCH   9  12
ATOM     12  C1  <0> d          -0.013   1.086   0.008  0.00  0.00     0.033 C 
ATOM     13  H1  <0> d           0.002  -0.004   0.002  0.00  0.00     0.051 H 
ATOM     14  H2  <0> d           1.010   1.463   0.000  0.00  0.00     0.051 H 
ATOM     15  H3  <0> d          -0.540   1.447  -0.875  0.00  0.00     0.051 H 
ENDBRANCH   9  12
ENDBRANCH   1   9
TORSDOF 2
