REMARK  3 active torsions:
REMARK  status: ('A' for Active; 'I' for Inactive)
REMARK    1  A    between atoms: C1_1  and  C2_2 
REMARK    2  A    between atoms: C7_9  and  C9_11 
REMARK    3  A    between atoms: C7_9  and  C10_12 
ROOT
ATOM      1  C2  <0> d           0.009   0.002   0.003  0.00  0.00    -0.057 C 
ATOM      2  H1  <0> d           0.521  -0.331  -0.900  0.00  0.00     0.039 H 
ATOM      3  C3  <0> d          -1.382  -0.477  -0.050  0.00  0.00    -0.056 C 
ATOM      4  C4  <0> d          -1.406  -2.021  -0.182  0.00  0.00    -0.009 C 
ATOM      5  C5  <0> d          -0.937  -2.640   1.090  0.00  0.00     0.127 C 
ATOM      6  O1  <0> d          -1.752  -2.906   1.940  0.00  0.00    -0.298 OA
ATOM      7  C6  <0> d           0.525  -2.949   1.361  0.00  0.00    -0.003 C 
ATOM      8  C7  <0> d           1.444  -1.809   0.884  0.00  0.00    -0.041 C 
ATOM      9  C8  <0> d           0.802  -0.478   1.210  0.00  0.00    -0.055 C 
ATOM     10  H5  <0> d          -1.900  -0.184   0.863  0.00  0.00     0.034 H 
ATOM     11  H6  <0> d          -1.886  -0.033  -0.908  0.00  0.00     0.034 H 
ATOM     12  H7  <0> d          -2.423  -2.352  -0.392  0.00  0.00     0.044 H 
ATOM     13  H8  <0> d          -0.750  -2.326  -0.997  0.00  0.00     0.044 H 
ATOM     14  H9  <0> d           0.665  -3.095   2.432  0.00  0.00     0.045 H 
ATOM     15  H10 <0> d           0.797  -3.867   0.839  0.00  0.00     0.045 H 
ATOM     16  H11 <0> d           1.577   0.250   1.449  0.00  0.00     0.034 H 
ATOM     17  H12 <0> d           0.133  -0.593   2.063  0.00  0.00     0.034 H 
ENDROOT
BRANCH   8  18
ATOM     18  C9  <0> d           1.652  -1.920  -0.628  0.00  0.00    -0.069 C 
ATOM     19  H13 <0> d           0.683  -1.939  -1.127  0.00  0.00     0.028 H 
ATOM     20  H14 <0> d           2.225  -1.062  -0.980  0.00  0.00     0.028 H 
ATOM     21  H15 <0> d           2.195  -2.837  -0.853  0.00  0.00     0.028 H 
ENDBRANCH   8  18
BRANCH   8  22
ATOM     22  C10 <0> d           2.795  -1.912   1.594  0.00  0.00    -0.069 C 
ATOM     23  H16 <0> d           3.256  -2.872   1.360  0.00  0.00     0.028 H 
ATOM     24  H17 <0> d           3.446  -1.105   1.256  0.00  0.00     0.028 H 
ATOM     25  H18 <0> d           2.647  -1.833   2.671  0.00  0.00     0.028 H 
ENDBRANCH   8  22
BRANCH   1  26
ATOM     26  C1  <0> d          -0.006   1.531   0.012  0.00  0.00    -0.073 C 
ATOM     27  H2  <0> d           1.018   1.905   0.004  0.00  0.00     0.028 H 
ATOM     28  H3  <0> d          -0.532   1.895  -0.871  0.00  0.00     0.028 H 
ATOM     29  H4  <0> d          -0.516   1.884   0.908  0.00  0.00     0.028 H 
ENDBRANCH   1  26
TORSDOF 3
