REMARK  1 active torsions:
REMARK  status: ('A' for Active; 'I' for Inactive)
REMARK    1  A    between atoms: C3_3  and  N2_7 
ROOT
ATOM      1  C1  <0> d          -0.017   1.378   0.010  0.00  0.00    -0.064 A 
ATOM      2  C2  <0> d           1.183   2.071   0.002  0.00  0.00    -0.052 A 
ATOM      3  C3  <0> d           2.368   1.341  -0.013  0.00  0.00     0.075 A 
ATOM      4  C4  <0> d           2.305  -0.046  -0.020  0.00  0.00     0.029 A 
ATOM      5  N1  <0> d           1.143  -0.666  -0.012  0.00  0.00    -0.271 NA
ATOM      6  C5  <0> d           0.002  -0.004   0.002  0.00  0.00     0.002 A 
ATOM      7  H1  <0> d          -0.956   1.911   0.026  0.00  0.00     0.085 H 
ATOM      8  H2  <0> d           1.198   3.151   0.007  0.00  0.00     0.087 H 
ATOM      9  H3  <0> d           3.219  -0.622  -0.032  0.00  0.00     0.118 H 
ATOM     10  H4  <0> d          -0.930  -0.549   0.008  0.00  0.00     0.114 H 
ENDROOT
BRANCH   3  11
ATOM     11  N2  <0> d           3.607   1.997  -0.022  0.00  0.00    -0.244 N 
ATOM     12  N3  <0> d           3.807   3.384  -0.018  0.00  0.00    -0.180 NA
ATOM     13  C8  <0> d           5.095   3.612  -0.026  0.00  0.00     0.023 A 
ATOM     14  C7  <0> d           5.758   2.380  -0.045  0.00  0.00    -0.047 A 
ATOM     15  H7  <0> d           5.566   4.584  -0.022  0.00  0.00     0.117 H 
ATOM     16  C6  <0> d           4.822   1.403  -0.042  0.00  0.00     0.006 A 
ATOM     17  H6  <0> d           6.828   2.235  -0.059  0.00  0.00     0.087 H 
ATOM     18  H5  <0> d           5.011   0.340  -0.054  0.00  0.00     0.114 H 
ENDBRANCH   3  11
TORSDOF 1
