REMARK  3 active torsions:
REMARK  status: ('A' for Active; 'I' for Inactive)
REMARK    1  A    between atoms: C3_3  and  C4_4 
REMARK    2  A    between atoms: C5_7  and  C6_9 
REMARK    3  A    between atoms: C6_9  and  O2_10 
ROOT
ATOM      1  C4  <0> d          -0.402  -0.698  -1.273  0.00  0.00     0.173 A 
ATOM      2  N1  <0> d           0.178  -0.579  -2.433  0.00  0.00    -0.126 NA
ATOM      3  N2  <0> d          -0.433  -1.316  -3.294  0.00  0.00    -0.124 NA
ATOM      4  C5  <0> d          -1.423  -1.931  -2.711  0.00  0.00     0.192 A 
ATOM      5  O1  <0> d          -1.424  -1.559  -1.420  0.00  0.00    -0.275 OA
ENDROOT
BRANCH   1   6
ATOM      6  C3  <0> d           0.002  -0.004   0.002  0.00  0.00     0.012 A 
ATOM      7  C1  <0> d          -0.019   1.526   0.010  0.00  0.00    -0.054 A 
ATOM      8  C2  <0> d           1.317   0.779  -0.006  0.00  0.00    -0.054 A 
ATOM      9  H1  <0> d          -0.307   2.020   0.938  0.00  0.00     0.034 H 
ATOM     10  H2  <0> d          -0.325   2.030  -0.906  0.00  0.00     0.034 H 
ATOM     11  H3  <0> d           1.889   0.792  -0.934  0.00  0.00     0.034 H 
ATOM     12  H4  <0> d           1.906   0.782   0.910  0.00  0.00     0.034 H 
ATOM     13  H5  <0> d          -0.273  -0.516   0.924  0.00  0.00     0.052 H 
ENDBRANCH   1   6
BRANCH   4  14
ATOM     14  C6  <0> d          -2.386  -2.888  -3.365  0.00  0.00     0.079 C 
ATOM     15  H6  <0> d          -3.351  -2.832  -2.861  0.00  0.00     0.086 H 
ATOM     16  H7  <0> d          -2.508  -2.620  -4.414  0.00  0.00     0.086 H 
BRANCH  14  17
ATOM     17  O2  <0> d          -1.875  -4.218  -3.269  0.00  0.00    -0.393 OA
ATOM     18  H8  <0> d          -2.445  -4.889  -3.670  0.00  0.00     0.210 HD
ENDBRANCH  14  17
ENDBRANCH   4  14
TORSDOF 3
