REMARK  6 active torsions:
REMARK  status: ('A' for Active; 'I' for Inactive)
REMARK    1  A    between atoms: C1_1  and  C2_2 
REMARK    2  A    between atoms: C2_2  and  C3_3 
REMARK    3  A    between atoms: C3_3  and  C4_5 
REMARK    4  A    between atoms: C3_3  and  C5_6 
REMARK       I    between atoms: C5_6  and  N1_8 
REMARK    5  A    between atoms: N1_8  and  C6_9 
REMARK    6  A    between atoms: C6_9  and  C7_10 
ROOT
ATOM      1  C3  <0> d          -0.750   3.109   1.275  0.00  0.00     0.020 C 
ATOM      2  H1  <0> d           0.268   3.487   1.178  0.00  0.00     0.054 H 
ENDROOT
BRANCH   1   3
ATOM      3  C2  <0> d          -0.729   1.579   1.267  0.00  0.00    -0.057 C 
ATOM      4  H5  <0> d          -1.751   1.202   1.275  0.00  0.00     0.033 H 
ATOM      5  H6  <0> d          -0.202   1.218   2.150  0.00  0.00     0.033 H 
BRANCH   3   6
ATOM      6  C1  <0> d          -0.013   1.086   0.008  0.00  0.00    -0.076 C 
ATOM      7  H2  <0> d           0.002  -0.004   0.002  0.00  0.00     0.027 H 
ATOM      8  H3  <0> d           1.010   1.463   0.000  0.00  0.00     0.027 H 
ATOM      9  H4  <0> d          -0.540   1.447  -0.875  0.00  0.00     0.027 H 
ENDBRANCH   3   6
ENDBRANCH   1   3
BRANCH   1  10
ATOM     10  C4  <0> d          -1.595   3.614   0.104  0.00  0.00    -0.065 C 
ATOM     11  H7  <0> d          -1.165   3.262  -0.833  0.00  0.00     0.028 H 
ATOM     12  H8  <0> d          -2.613   3.236   0.202  0.00  0.00     0.028 H 
ATOM     13  H9  <0> d          -1.610   4.704   0.110  0.00  0.00     0.028 H 
ENDBRANCH   1  10
BRANCH   1  14
ATOM     14  C5  <0> d          -1.345   3.596   2.571  0.00  0.00     0.221 C 
ATOM     15  O1  <0> d          -1.715   2.798   3.406  0.00  0.00    -0.273 OA
ATOM     16  N1  <0> d          -1.464   4.919   2.803  0.00  0.00    -0.351 N 
ATOM     17  H10 <0> d          -1.168   5.557   2.135  0.00  0.00     0.163 HD
BRANCH  16  18
ATOM     18  C6  <0> d          -2.043   5.392   4.063  0.00  0.00     0.075 C 
ATOM     19  H11 <0> d          -3.061   5.014   4.160  0.00  0.00     0.080 H 
ATOM     20  H12 <0> d          -1.440   5.032   4.897  0.00  0.00     0.080 H 
BRANCH  18  21
ATOM     21  C7  <0> d          -2.063   6.899   4.071  0.00  0.00     0.191 C 
ATOM     22  O2  <0> d          -1.638   7.514   3.122  0.00  0.00    -0.647 OA
ATOM     23  O3  <0> d          -2.553   7.558   5.133  0.00  0.00    -0.647 OA
ENDBRANCH  18  21
ENDBRANCH  16  18
ENDBRANCH   1  14
TORSDOF 6
