REMARK  4 active torsions:
REMARK  status: ('A' for Active; 'I' for Inactive)
REMARK    1  A    between atoms: C1_1  and  C2_2 
REMARK    2  A    between atoms: C5_5  and  C6_7 
REMARK    3  A    between atoms: C6_7  and  C7_9 
REMARK    4  A    between atoms: C6_7  and  O1_10 
ROOT
ATOM      1  C2  <0> d          -1.196   3.116   0.030  0.00  0.00    -0.021 A 
ATOM      2  C3  <0> d          -1.213   1.761   0.017  0.00  0.00    -0.070 A 
ATOM      3  C4  <0> d          -0.013   1.076   0.008  0.00  0.00    -0.067 A 
ATOM      4  C5  <0> d           1.146   1.780   0.001  0.00  0.00     0.011 A 
ATOM      5  S1  <0> d           0.555   3.464   0.015  0.00  0.00    -0.097 SA
ATOM      6  H5  <0> d          -2.150   1.224   0.018  0.00  0.00     0.085 H 
ATOM      7  H6  <0> d           0.002  -0.004   0.002  0.00  0.00     0.085 H 
ENDROOT
BRANCH   4   8
ATOM      8  C6  <0> d           2.565   1.272  -0.016  0.00  0.00     0.063 C 
ATOM      9  H1  <0> d           2.589   0.275  -0.456  0.00  0.00     0.090 H 
BRANCH   8  10
ATOM     10  C7  <0> d           3.101   1.210   1.415  0.00  0.00    -0.048 C 
ATOM     11  H7  <0> d           2.481   0.536   2.007  0.00  0.00     0.031 H 
ATOM     12  H8  <0> d           4.127   0.843   1.403  0.00  0.00     0.031 H 
ATOM     13  H9  <0> d           3.077   2.207   1.856  0.00  0.00     0.031 H 
ENDBRANCH   8  10
BRANCH   8  14
ATOM     14  O1  <0> d           3.377   2.155  -0.792  0.00  0.00    -0.391 OA
ATOM     15  H10 <0> d           3.403   3.062  -0.457  0.00  0.00     0.210 HD
ENDBRANCH   8  14
ENDBRANCH   4   8
BRANCH   1  16
ATOM     16  C1  <0> d          -2.355   4.080   0.046  0.00  0.00    -0.045 C 
ATOM     17  H2  <0> d          -1.977   5.102   0.048  0.00  0.00     0.034 H 
ATOM     18  H3  <0> d          -2.971   3.921  -0.839  0.00  0.00     0.034 H 
ATOM     19  H4  <0> d          -2.955   3.912   0.941  0.00  0.00     0.034 H 
ENDBRANCH   1  16
TORSDOF 4
