REMARK  0 active torsions:
REMARK  status: ('A' for Active; 'I' for Inactive)
ROOT
ATOM      1  C1  <0> d           0.002  -0.004   0.002  0.00  0.00     0.150 C 
ATOM      2  N1  <0> d           0.018  -1.140  -0.004  0.00  0.00    -0.190 NA
ATOM      3  C2  <0> d          -0.018   1.468   0.010  0.00  0.00     0.387 C 
ATOM      4  F1  <0> d           1.295   1.952   0.000  0.00  0.00    -0.177 F 
ATOM      5  F2  <0> d          -0.695   1.931  -1.123  0.00  0.00    -0.177 F 
ATOM      6 Br1  <0> d          -0.938   2.102   1.628  0.00  0.00     0.007 Br
ENDROOT
TORSDOF 0
