REMARK  2 active torsions:
REMARK  status: ('A' for Active; 'I' for Inactive)
REMARK    1  A    between atoms: C1_1  and  C2_2 
REMARK    2  A    between atoms: C2_2  and  C5_5 
ROOT
ATOM      1  C2  <0> d           1.317   0.779  -0.006  0.00  0.00     0.045 A 
ATOM      2  C3  <0> d          -0.019   1.526   0.010  0.00  0.00    -0.048 A 
ATOM      3  C4  <0> d           0.002  -0.004   0.002  0.00  0.00    -0.048 A 
ATOM      4  H4  <0> d          -0.325   2.030  -0.906  0.00  0.00     0.035 H 
ATOM      5  H5  <0> d          -0.307   2.020   0.938  0.00  0.00     0.035 H 
ATOM      6  H6  <0> d          -0.273  -0.516   0.924  0.00  0.00     0.035 H 
ATOM      7  H7  <0> d          -0.290  -0.506  -0.920  0.00  0.00     0.035 H 
ENDROOT
BRANCH   1   8
ATOM      8  C1  <0> d           2.120   0.797  -1.308  0.00  0.00    -0.059 C 
ATOM      9  H1  <0> d           2.362   1.827  -1.571  0.00  0.00     0.029 H 
ATOM     10  H2  <0> d           3.041   0.229  -1.175  0.00  0.00     0.029 H 
ATOM     11  H3  <0> d           1.528   0.348  -2.106  0.00  0.00     0.029 H 
ENDBRANCH   1   8
BRANCH   1  12
ATOM     12  C5  <0> d           2.132   0.783   1.261  0.00  0.00     0.181 C 
ATOM     13  O1  <0> d           1.724   1.362   2.240  0.00  0.00    -0.647 OA
ATOM     14  O2  <0> d           3.312   0.143   1.302  0.00  0.00    -0.647 OA
ENDBRANCH   1  12
TORSDOF 2
