REMARK  1 active torsions:
REMARK  status: ('A' for Active; 'I' for Inactive)
REMARK    1  A    between atoms: C4_5  and  N4_10 
ROOT
ATOM      1  C1  <0> d           3.236   2.523  -0.014  0.00  0.00     0.020 A 
ATOM      2  C2  <0> d           2.434   3.615  -0.002  0.00  0.00     0.003 A 
ATOM      3  N1  <0> d           1.149   3.170   0.008  0.00  0.00    -0.311 N 
ATOM      4  C3  <0> d          -0.067   3.796   0.021  0.00  0.00     0.030 A 
ATOM      5  C4  <0> d          -1.204   3.055   0.028  0.00  0.00     0.137 A 
ATOM      6  N2  <0> d          -1.157   1.718   0.017  0.00  0.00    -0.239 NA
ATOM      7  C5  <0> d          -0.013   1.076   0.008  0.00  0.00     0.049 A 
ATOM      8  C6  <0> d           1.196   1.798   0.000  0.00  0.00     0.151 A 
ATOM      9  N3  <0> d           2.469   1.433  -0.013  0.00  0.00    -0.240 NA
ATOM     10  H1  <0> d           4.316   2.534  -0.024  0.00  0.00     0.117 H 
ATOM     11  H2  <0> d           2.756   4.646   0.000  0.00  0.00     0.114 H 
ATOM     12  H3  <0> d          -0.122   4.875   0.028  0.00  0.00     0.118 H 
ATOM     13  H4  <0> d           0.002  -0.004   0.002  0.00  0.00     0.120 H 
ENDROOT
BRANCH   5  14
ATOM     14  N4  <0> d          -2.444   3.699   0.042  0.00  0.00    -0.383 N 
ATOM     15  H5  <0> d          -2.488   4.668   0.048  0.00  0.00     0.157 HD
ATOM     16  H6  <0> d          -3.262   3.177   0.046  0.00  0.00     0.157 HD
ENDBRANCH   5  14
TORSDOF 1
