REMARK  2 active torsions:
REMARK  status: ('A' for Active; 'I' for Inactive)
REMARK    1  A    between atoms: C1_1  and  C2_2 
REMARK    2  A    between atoms: C6_6  and  C7_8 
ROOT
ATOM      1  C2  <0> d           1.102   3.839   0.012  0.00  0.00     0.032 A 
ATOM      2  C3  <0> d           1.161   2.459   0.004  0.00  0.00    -0.038 A 
ATOM      3  C4  <0> d          -0.021   1.732   0.012  0.00  0.00     0.037 A 
ATOM      4  C5  <0> d          -1.223   2.426   0.021  0.00  0.00    -0.038 A 
ATOM      5  C6  <0> d          -1.202   3.808   0.033  0.00  0.00     0.032 A 
ATOM      6  N1  <0> d          -0.059   4.465   0.026  0.00  0.00    -0.259 NA
ATOM      7 Cl1  <0> d           0.002  -0.004   0.002  0.00  0.00    -0.084 Cl
ATOM      8  H4  <0> d           2.115   1.952  -0.007  0.00  0.00     0.089 H 
ATOM      9  H5  <0> d          -2.163   1.894   0.022  0.00  0.00     0.089 H 
ENDROOT
BRANCH   1  10
ATOM     10  C1  <0> d           2.380   4.638   0.003  0.00  0.00    -0.035 C 
ATOM     11  H1  <0> d           2.678   4.837  -1.026  0.00  0.00     0.035 H 
ATOM     12  H2  <0> d           2.220   5.583   0.523  0.00  0.00     0.035 H 
ATOM     13  H3  <0> d           3.165   4.074   0.507  0.00  0.00     0.035 H 
ENDBRANCH   1  10
BRANCH   5  14
ATOM     14  C7  <0> d          -2.500   4.572   0.049  0.00  0.00    -0.035 C 
ATOM     15  H6  <0> d          -2.823   4.762  -0.975  0.00  0.00     0.035 H 
ATOM     16  H7  <0> d          -3.260   3.987   0.567  0.00  0.00     0.035 H 
ATOM     17  H8  <0> d          -2.357   5.521   0.566  0.00  0.00     0.035 H 
ENDBRANCH   5  14
TORSDOF 2
