REMARK  1 active torsions:
REMARK  status: ('A' for Active; 'I' for Inactive)
REMARK    1  A    between atoms: C6_6  and  N1_7 
ROOT
ATOM      1  C1  <0> d          -0.017   1.389   0.010  0.00  0.00    -0.057 A 
ATOM      2  C2  <0> d           1.153   2.096   0.002  0.00  0.00    -0.067 A 
ATOM      3  C3  <0> d           2.372   1.422  -0.013  0.00  0.00     0.013 A 
ATOM      4  C4  <0> d           2.402   0.018  -0.021  0.00  0.00     0.046 A 
ATOM      5  C5  <0> d           1.205  -0.690  -0.014  0.00  0.00    -0.031 A 
ATOM      6  C6  <0> d           0.002  -0.004   0.002  0.00  0.00     0.027 A 
ATOM      7  N2  <0> d           3.726  -0.368  -0.035  0.00  0.00    -0.364 N 
ATOM      8  H1  <0> d           4.035  -1.287  -0.043  0.00  0.00     0.165 HD
ATOM      9  C7  <0> d           4.536   0.723  -0.036  0.00  0.00    -0.002 A 
ATOM     10  C8  <0> d           3.781   1.857  -0.023  0.00  0.00     0.072 A 
ATOM     11  C9  <0> d           4.261   3.206  -0.020  0.00  0.00     0.102 C 
ATOM     12  N3  <0> d           4.642   4.276  -0.018  0.00  0.00    -0.191 NA
ATOM     13  H2  <0> d          -0.961   1.913   0.026  0.00  0.00     0.086 H 
ATOM     14  H3  <0> d           1.132   3.176   0.008  0.00  0.00     0.085 H 
ATOM     15  H4  <0> d           1.213  -1.770  -0.020  0.00  0.00     0.090 H 
ATOM     16  H7  <0> d           5.616   0.695  -0.046  0.00  0.00     0.113 H 
ENDROOT
BRANCH   6  17
ATOM     17  N1  <0> d          -1.202  -0.715   0.010  0.00  0.00    -0.399 N 
ATOM     18  H5  <0> d          -2.046  -0.238   0.021  0.00  0.00     0.156 HD
ATOM     19  H6  <0> d          -1.193  -1.685   0.005  0.00  0.00     0.156 HD
ENDBRANCH   6  17
TORSDOF 1
