REMARK  0 active torsions:
REMARK  status: ('A' for Active; 'I' for Inactive)
ROOT
ATOM      1  C1  <0> d          -1.234   2.109   0.019  0.00  0.00    -0.043 A 
ATOM      2  C2  <0> d          -1.253   3.503   0.032  0.00  0.00     0.047 A 
ATOM      3  C3  <0> d          -0.055   4.217   0.025  0.00  0.00    -0.043 A 
ATOM      4  C4  <0> d           1.162   3.536   0.010  0.00  0.00     0.047 A 
ATOM      5  C5  <0> d           1.181   2.142   0.002  0.00  0.00    -0.043 A 
ATOM      6  C6  <0> d          -0.017   1.428   0.010  0.00  0.00     0.047 A 
ATOM      7  C7  <0> d           0.002  -0.004   0.002  0.00  0.00     0.099 C 
ATOM      8  N1  <0> d           0.018  -1.140  -0.004  0.00  0.00    -0.191 NA
ATOM      9  C8  <0> d           2.392   4.269   0.003  0.00  0.00     0.099 C 
ATOM     10  N2  <0> d           3.368   4.850  -0.002  0.00  0.00    -0.191 NA
ATOM     11  C9  <0> d          -2.503   4.202   0.047  0.00  0.00     0.099 C 
ATOM     12  N3  <0> d          -3.494   4.757   0.060  0.00  0.00    -0.191 NA
ATOM     13  H1  <0> d          -2.162   1.556   0.021  0.00  0.00     0.088 H 
ATOM     14  H2  <0> d          -0.070   5.297   0.032  0.00  0.00     0.088 H 
ATOM     15  H3  <0> d           2.123   1.614  -0.009  0.00  0.00     0.088 H 
ENDROOT
TORSDOF 0
