REMARK  3 active torsions:
REMARK  status: ('A' for Active; 'I' for Inactive)
REMARK    1  A    between atoms: C1_1  and  O1_2 
REMARK    2  A    between atoms: O1_2  and  C2_3 
REMARK    3  A    between atoms: C6_7  and  O2_9 
ROOT
ATOM      1  C2  <0> d          -0.149   1.182   2.380  0.00  0.00     0.070 A 
ATOM      2  C3  <0> d           0.991   0.392   2.420  0.00  0.00    -0.049 A 
ATOM      3  C4  <0> d           1.537   0.026   3.635  0.00  0.00    -0.057 A 
ATOM      4  C5  <0> d           0.942   0.436   4.814  0.00  0.00     0.067 A 
ATOM      5  C6  <0> d          -0.202   1.221   4.779  0.00  0.00     0.090 A 
ATOM      6  C7  <0> d          -0.747   1.595   3.560  0.00  0.00    -0.017 A 
ATOM      7 Cl1  <0> d           1.627  -0.032   6.340  0.00  0.00    -0.081 Cl
ATOM      8  H4  <0> d           1.455   0.067   1.500  0.00  0.00     0.087 H 
ATOM      9  H5  <0> d           2.427  -0.586   3.664  0.00  0.00     0.086 H 
ATOM     10  H6  <0> d          -1.637   2.205   3.530  0.00  0.00     0.092 H 
ENDROOT
BRANCH   1  11
ATOM     11  O1  <0> d          -0.682   1.547   1.184  0.00  0.00    -0.356 OA
BRANCH  11  12
ATOM     12  C1  <0> d          -0.013   1.086   0.008  0.00  0.00     0.010 C 
ATOM     13  H1  <0> d           0.002  -0.004   0.002  0.00  0.00     0.066 H 
ATOM     14  H2  <0> d           1.010   1.463   0.000  0.00  0.00     0.066 H 
ATOM     15  H3  <0> d          -0.540   1.447  -0.875  0.00  0.00     0.066 H 
ENDBRANCH  11  12
ENDBRANCH   1  11
BRANCH   5  16
ATOM     16  O2  <0> d          -0.786   1.625   5.938  0.00  0.00    -0.359 OA
ATOM     17  H7  <0> d          -1.456   1.013   6.274  0.00  0.00     0.217 HD
ENDBRANCH   5  16
TORSDOF 3
