REMARK  3 active torsions:
REMARK  status: ('A' for Active; 'I' for Inactive)
REMARK    1  A    between atoms: C1_1  and  C2_2 
REMARK    2  A    between atoms: C2_2  and  C3_3 
REMARK    3  A    between atoms: C2_2  and  C4_4 
ROOT
ATOM      1  C4  <0> d          -0.050   3.840   0.023  0.00  0.00    -0.055 A 
ATOM      2  C5  <0> d           1.156   3.165   0.008  0.00  0.00    -0.076 A 
ATOM      3  C6  <0> d           1.175   1.783   0.000  0.00  0.00    -0.082 A 
ATOM      4  C7  <0> d          -0.013   1.076   0.008  0.00  0.00    -0.083 A 
ATOM      5  C8  <0> d          -1.219   1.751   0.017  0.00  0.00    -0.082 A 
ATOM      6  C9  <0> d          -1.238   3.133   0.030  0.00  0.00    -0.076 A 
ATOM      7  H8  <0> d           2.084   3.718   0.002  0.00  0.00     0.084 H 
ATOM      8  H9  <0> d           2.118   1.256  -0.011  0.00  0.00     0.083 H 
ATOM      9  H10 <0> d           0.002  -0.004   0.002  0.00  0.00     0.083 H 
ATOM     10  H11 <0> d          -2.147   1.198   0.019  0.00  0.00     0.083 H 
ATOM     11  H12 <0> d          -2.180   3.660   0.041  0.00  0.00     0.084 H 
ENDROOT
BRANCH   1  12
ATOM     12  C2  <0> d          -0.070   5.347   0.031  0.00  0.00    -0.036 C 
ATOM     13  H4  <0> d           0.952   5.724   0.023  0.00  0.00     0.046 H 
BRANCH  12  14
ATOM     14  C1  <0> d          -0.810   5.854  -1.208  0.00  0.00    -0.069 C 
ATOM     15  H1  <0> d          -1.833   5.477  -1.201  0.00  0.00     0.028 H 
ATOM     16  H2  <0> d          -0.825   6.944  -1.202  0.00  0.00     0.028 H 
ATOM     17  H3  <0> d          -0.300   5.502  -2.105  0.00  0.00     0.028 H 
ENDBRANCH  12  14
BRANCH  12  18
ATOM     18  C3  <0> d          -0.787   5.840   1.290  0.00  0.00    -0.069 C 
ATOM     19  H5  <0> d          -0.801   6.930   1.296  0.00  0.00     0.028 H 
ATOM     20  H6  <0> d          -1.809   5.463   1.298  0.00  0.00     0.028 H 
ATOM     21  H7  <0> d          -0.259   5.479   2.173  0.00  0.00     0.028 H 
ENDBRANCH  12  18
ENDBRANCH   1  12
TORSDOF 3
