REMARK  5 active torsions:
REMARK  status: ('A' for Active; 'I' for Inactive)
REMARK    1  A    between atoms: C1_1  and  C2_2 
REMARK    2  A    between atoms: C5_5  and  N1_9 
REMARK    3  A    between atoms: C7_7  and  C8_8 
REMARK    4  A    between atoms: N1_9  and  C9_10 
REMARK    5  A    between atoms: N1_9  and  C10_11 
ROOT
ATOM      1  C2  <0> d           0.005  -0.004   0.002  0.00  0.00    -0.056 A 
ATOM      2  C3  <0> d           0.023  -0.687  -1.201  0.00  0.00    -0.075 A 
ATOM      3  C4  <0> d           0.041  -2.068  -1.212  0.00  0.00    -0.057 A 
ATOM      4  C5  <0> d           0.041  -2.771  -0.013  0.00  0.00     0.029 A 
ATOM      5  C6  <0> d           0.023  -2.082   1.192  0.00  0.00    -0.051 A 
ATOM      6  C7  <0> d           0.011  -0.700   1.196  0.00  0.00    -0.054 A 
ATOM      7  H4  <0> d           0.022  -0.140  -2.132  0.00  0.00     0.084 H 
ATOM      8  H5  <0> d           0.054  -2.601  -2.151  0.00  0.00     0.086 H 
ATOM      9  H6  <0> d           0.023  -2.625   2.126  0.00  0.00     0.087 H 
ENDROOT
BRANCH   4  10
ATOM     10  N1  <0> d           0.058  -4.167  -0.021  0.00  0.00    -0.390 N 
BRANCH  10  11
ATOM     11  C9  <0> d          -0.050  -4.894  -1.288  0.00  0.00    -0.019 C 
ATOM     12  H10 <0> d           0.946  -5.061  -1.698  0.00  0.00     0.056 H 
ATOM     13  H11 <0> d          -0.538  -5.854  -1.116  0.00  0.00     0.056 H 
ATOM     14  H12 <0> d          -0.639  -4.309  -1.994  0.00  0.00     0.056 H 
ENDBRANCH  10  11
BRANCH  10  15
ATOM     15  C10 <0> d           0.185  -4.905   1.238  0.00  0.00    -0.019 C 
ATOM     16  H13 <0> d           0.162  -4.205   2.074  0.00  0.00     0.056 H 
ATOM     17  H14 <0> d          -0.642  -5.609   1.332  0.00  0.00     0.056 H 
ATOM     18  H15 <0> d           1.128  -5.451   1.247  0.00  0.00     0.056 H 
ENDBRANCH  10  15
ENDBRANCH   4  10
BRANCH   6  19
ATOM     19  C8  <0> d          -0.002   0.049   2.504  0.00  0.00    -0.051 C 
ATOM     20  H7  <0> d          -1.032   0.216   2.817  0.00  0.00     0.033 H 
ATOM     21  H8  <0> d           0.518  -0.536   3.263  0.00  0.00     0.033 H 
ATOM     22  H9  <0> d           0.500   1.008   2.378  0.00  0.00     0.033 H 
ENDBRANCH   6  19
BRANCH   1  23
ATOM     23  C1  <0> d          -0.014   1.503   0.010  0.00  0.00    -0.051 C 
ATOM     24  H1  <0> d           1.009   1.879   0.015  0.00  0.00     0.033 H 
ATOM     25  H2  <0> d          -0.530   1.864  -0.879  0.00  0.00     0.033 H 
ATOM     26  H3  <0> d          -0.534   1.855   0.900  0.00  0.00     0.033 H 
ENDBRANCH   1  23
TORSDOF 5
