REMARK  5 active torsions:
REMARK  status: ('A' for Active; 'I' for Inactive)
REMARK    1  A    between atoms: C1_1  and  C2_2 
REMARK    2  A    between atoms: C2_2  and  O1_3 
REMARK    3  A    between atoms: O1_3  and  C3_4 
REMARK    4  A    between atoms: C3_4  and  C4_6 
REMARK    5  A    between atoms: C5_7  and  C7_11 
ROOT
ATOM      1  C4  <0> d           2.067   0.668  -0.014  0.00  0.00     0.176 A 
ATOM      2  C5  <0> d           1.242   1.755  -0.000  0.00  0.00     0.072 A 
ATOM      3  N1  <0> d          -0.016   1.302   0.009  0.00  0.00    -0.239 NA
ATOM      4  C6  <0> d           0.002  -0.004   0.002  0.00  0.00     0.104 A 
ATOM      5  O3  <0> d           1.270  -0.426  -0.012  0.00  0.00    -0.296 OA
ATOM      6  H6  <0> d          -0.870  -0.642   0.006  0.00  0.00     0.155 H 
ENDROOT
BRANCH   1   7
ATOM      7  C3  <0> d           3.533   0.683  -0.028  0.00  0.00     0.319 C 
ATOM      8  O2  <0> d           4.130   1.742  -0.028  0.00  0.00    -0.257 OA
BRANCH   7   9
ATOM      9  O1  <0> d           4.219  -0.478  -0.039  0.00  0.00    -0.316 OA
BRANCH   9  10
ATOM     10  C2  <0> d           5.668  -0.388  -0.052  0.00  0.00     0.026 C 
ATOM     11  H4  <0> d           5.990   0.152  -0.943  0.00  0.00     0.074 H 
ATOM     12  H5  <0> d           6.007   0.144   0.837  0.00  0.00     0.074 H 
BRANCH  10  13
ATOM     13  C1  <0> d           6.267  -1.795  -0.065  0.00  0.00    -0.056 C 
ATOM     14  H1  <0> d           5.944  -2.335   0.826  0.00  0.00     0.030 H 
ATOM     15  H2  <0> d           5.928  -2.327  -0.954  0.00  0.00     0.030 H 
ATOM     16  H3  <0> d           7.355  -1.727  -0.074  0.00  0.00     0.030 H 
ENDBRANCH  10  13
ENDBRANCH   9  10
ENDBRANCH   7   9
ENDBRANCH   1   7
BRANCH   2  17
ATOM     17  C7  <0> d           1.670   3.200   0.004  0.00  0.00    -0.033 C 
ATOM     18  H7  <0> d           1.783   3.542   1.032  0.00  0.00     0.035 H 
ATOM     19  H8  <0> d           2.621   3.298  -0.519  0.00  0.00     0.035 H 
ATOM     20  H9  <0> d           0.914   3.804  -0.499  0.00  0.00     0.035 H 
ENDBRANCH   2  17
TORSDOF 5
