REMARK  3 active torsions:
REMARK  status: ('A' for Active; 'I' for Inactive)
REMARK    1  A    between atoms: C1_1  and  C2_2 
REMARK    2  A    between atoms: C4_7  and  C6_10 
REMARK    3  A    between atoms: C4_7  and  C7_11 
ROOT
ATOM      1  C2  <0> d           1.291   2.004   0.001  0.00  0.00     0.112 C 
ATOM      2  H1  <0> d           1.770   1.831   0.964  0.00  0.00     0.097 H 
ATOM      3  C3  <0> d           2.116   1.377  -1.088  0.00  0.00     0.247 C 
ATOM      4  O1  <0> d           3.138   1.927  -1.439  0.00  0.00    -0.271 OA
ATOM      5  N1  <0> d           1.764   0.231  -1.684  0.00  0.00    -0.348 N 
ATOM      6  C4  <0> d           0.530  -0.479  -1.353  0.00  0.00     0.047 C 
ATOM      7  C5  <0> d           0.002  -0.004   0.002  0.00  0.00     0.043 C 
ATOM      8  O2  <0> d          -0.017   1.428   0.010  0.00  0.00    -0.374 OA
ATOM      9  H5  <0> d           2.349  -0.142  -2.361  0.00  0.00     0.163 HD
ATOM     10  H6  <0> d           0.655  -0.365   0.796  0.00  0.00     0.078 H 
ATOM     11  H7  <0> d          -1.008  -0.384   0.158  0.00  0.00     0.078 H 
ENDROOT
BRANCH   6  12
ATOM     12  C6  <0> d           0.810  -1.982  -1.291  0.00  0.00    -0.051 C 
ATOM     13  H8  <0> d          -0.111  -2.514  -1.052  0.00  0.00     0.030 H 
ATOM     14  H9  <0> d           1.187  -2.322  -2.256  0.00  0.00     0.030 H 
ATOM     15  H10 <0> d           1.555  -2.181  -0.520  0.00  0.00     0.030 H 
ENDBRANCH   6  12
BRANCH   6  16
ATOM     16  C7  <0> d          -0.519  -0.205  -2.432  0.00  0.00    -0.051 C 
ATOM     17  H11 <0> d          -0.724   0.865  -2.476  0.00  0.00     0.030 H 
ATOM     18  H12 <0> d          -0.144  -0.543  -3.398  0.00  0.00     0.030 H 
ATOM     19  H13 <0> d          -1.437  -0.741  -2.191  0.00  0.00     0.030 H 
ENDBRANCH   6  16
BRANCH   1  20
ATOM     20  C1  <0> d           1.182   3.510  -0.248  0.00  0.00    -0.044 C 
ATOM     21  H2  <0> d           0.589   3.967   0.544  0.00  0.00     0.031 H 
ATOM     22  H3  <0> d           2.179   3.950  -0.256  0.00  0.00     0.031 H 
ATOM     23  H4  <0> d           0.700   3.685  -1.210  0.00  0.00     0.031 H 
ENDBRANCH   1  20
TORSDOF 3
