REMARK  1 active torsions:
REMARK  status: ('A' for Active; 'I' for Inactive)
REMARK    1  A    between atoms: C3_3  and  C6_7 
ROOT
ATOM      1  C1  <0> d           2.388   0.102  -0.020  0.00  0.00    -0.065 A 
ATOM      2  C2  <0> d           1.234  -0.663  -0.013  0.00  0.00    -0.067 A 
ATOM      3  C3  <0> d           0.002  -0.004   0.002  0.00  0.00     0.032 A 
ATOM      4  C4  <0> d          -0.017   1.389   0.010  0.00  0.00     0.015 A 
ATOM      5  N1  <0> d           1.108   2.075   0.003  0.00  0.00    -0.272 NA
ATOM      6  C5  <0> d           2.285   1.481  -0.012  0.00  0.00     0.002 A 
ATOM      7  H1  <0> d           3.358  -0.373  -0.032  0.00  0.00     0.085 H 
ATOM      8  H2  <0> d           1.285  -1.742  -0.019  0.00  0.00     0.085 H 
ATOM      9  H3  <0> d          -0.962   1.911   0.017  0.00  0.00     0.116 H 
ATOM     10  H4  <0> d           3.183   2.081  -0.018  0.00  0.00     0.114 H 
ENDROOT
BRANCH   3  11
ATOM     11  C6  <0> d          -1.266  -0.775   0.009  0.00  0.00     0.190 A 
ATOM     12  N3  <0> d          -1.382  -2.078  -0.002  0.00  0.00    -0.106 NA
ATOM     13  O1  <0> d          -2.554  -2.392   0.011  0.00  0.00    -0.205 OA
ATOM     14  C7  <0> d          -3.321  -1.297   0.025  0.00  0.00     0.130 A 
ATOM     15  N2  <0> d          -2.517  -0.263   0.024  0.00  0.00    -0.212 NA
ATOM     16  H5  <0> d          -4.400  -1.271   0.035  0.00  0.00     0.159 H 
ENDBRANCH   3  11
TORSDOF 1
