REMARK  4 active torsions:
REMARK  status: ('A' for Active; 'I' for Inactive)
REMARK    1  A    between atoms: C1_1  and  N1_2 
REMARK    2  A    between atoms: N1_2  and  C2_3 
REMARK    3  A    between atoms: N1_2  and  C3_4 
REMARK    4  A    between atoms: C8_9  and  N2_10 
ROOT
ATOM      1  C3  <0> d           1.180   2.112   0.002  0.00  0.00     0.036 A 
ATOM      2  C4  <0> d           1.154   3.498   0.010  0.00  0.00    -0.060 A 
ATOM      3  C5  <0> d          -0.056   4.167   0.025  0.00  0.00    -0.081 A 
ATOM      4  C6  <0> d          -1.242   3.457   0.033  0.00  0.00    -0.081 A 
ATOM      5  C7  <0> d          -1.226   2.075   0.019  0.00  0.00    -0.056 A 
ATOM      6  C8  <0> d          -0.017   1.396   0.010  0.00  0.00     0.047 A 
ATOM      7  H7  <0> d           2.079   4.055   0.004  0.00  0.00     0.086 H 
ATOM      8  H8  <0> d          -0.074   5.247   0.031  0.00  0.00     0.083 H 
ATOM      9  H9  <0> d          -2.185   3.985   0.044  0.00  0.00     0.083 H 
ATOM     10  H10 <0> d          -2.155   1.524   0.020  0.00  0.00     0.087 H 
ENDROOT
BRANCH   1  11
ATOM     11  N1  <0> d           2.404   1.432  -0.014  0.00  0.00    -0.290 NA
BRANCH  11  12
ATOM     12  C1  <0> d           3.186   1.783  -1.207  0.00  0.00    -0.029 C 
ATOM     13  H1  <0> d           3.381   2.856  -1.211  0.00  0.00     0.048 H 
ATOM     14  H2  <0> d           4.132   1.242  -1.194  0.00  0.00     0.048 H 
ATOM     15  H3  <0> d           2.624   1.513  -2.101  0.00  0.00     0.048 H 
ENDBRANCH  11  12
BRANCH  11  16
ATOM     16  C2  <0> d           3.169   1.696   1.213  0.00  0.00    -0.029 C 
ATOM     17  H4  <0> d           2.595   1.363   2.077  0.00  0.00     0.048 H 
ATOM     18  H5  <0> d           4.115   1.157   1.174  0.00  0.00     0.048 H 
ATOM     19  H6  <0> d           3.364   2.765   1.296  0.00  0.00     0.048 H 
ENDBRANCH  11  16
ENDBRANCH   1  11
BRANCH   6  20
ATOM     20  N2  <0> d           0.002  -0.004   0.002  0.00  0.00    -0.398 N 
ATOM     21  H11 <0> d           0.849  -0.478  -0.009  0.00  0.00     0.156 HD
ATOM     22  H12 <0> d          -0.831  -0.500   0.007  0.00  0.00     0.156 HD
ENDBRANCH   6  20
TORSDOF 4
