REMARK  0 active torsions:
REMARK  status: ('A' for Active; 'I' for Inactive)
ROOT
ATOM      1  C1  <0> d          -0.018   1.466   0.010  0.00  0.00     0.131 C 
ATOM      2  C2  <0> d           1.420   1.990  -0.001  0.00  0.00     0.046 C 
ATOM      3  O1  <0> d           2.127   1.452   1.120  0.00  0.00    -0.368 OA
ATOM      4  C3  <0> d           2.167   0.023   1.143  0.00  0.00     0.146 C 
ATOM      5  H1  <0> d           2.681  -0.342   0.254  0.00  0.00     0.109 H 
ATOM      6  C4  <0> d           0.736  -0.521   1.166  0.00  0.00     0.147 C 
ATOM      7  N1  <0> d           0.002  -0.004   0.002  0.00  0.00     0.088 N 
ATOM      8  C5  <0> d           2.885  -0.429   2.346  0.00  0.00     0.093 C 
ATOM      9  N2  <0> d           3.439  -0.778   3.275  0.00  0.00    -0.194 NA
ATOM     10  H2  <0> d          -0.527   1.818   0.907  0.00  0.00     0.082 H 
ATOM     11  H3  <0> d          -0.544   1.828  -0.873  0.00  0.00     0.082 H 
ATOM     12  H4  <0> d           1.913   1.683  -0.923  0.00  0.00     0.077 H 
ATOM     13  H5  <0> d           1.411   3.079   0.063  0.00  0.00     0.077 H 
ATOM     14  H6  <0> d           0.760  -1.611   1.126  0.00  0.00     0.085 H 
ATOM     15  H7  <0> d           0.239  -0.201   2.082  0.00  0.00     0.085 H 
ATOM     16  H8  <0> d          -0.934  -0.378  -0.030  0.00  0.00     0.316 HD
ENDROOT
TORSDOF 0
