REMARK  5 active torsions:
REMARK  status: ('A' for Active; 'I' for Inactive)
REMARK    1  A    between atoms: C1_1  and  C2_2 
REMARK    2  A    between atoms: C2_2  and  C3_4 
REMARK    3  A    between atoms: C2_2  and  O1_10 
REMARK    4  A    between atoms: N4_8  and  C4_9 
REMARK    5  A    between atoms: O1_10  and  C5_11 
ROOT
ATOM      1  C2  <0> d           1.331   1.697   2.752  0.00  0.00     0.095 C 
ATOM      2  H1  <0> d           1.916   1.609   1.837  0.00  0.00     0.095 H 
ENDROOT
BRANCH   1   3
ATOM      3  C1  <0> d           1.541   0.451   3.615  0.00  0.00    -0.045 C 
ATOM      4  H2  <0> d           2.597   0.358   3.868  0.00  0.00     0.031 H 
ATOM      5  H3  <0> d           0.955   0.540   4.530  0.00  0.00     0.031 H 
ATOM      6  H4  <0> d           1.220  -0.432   3.062  0.00  0.00     0.031 H 
ENDBRANCH   1   3
BRANCH   1   7
ATOM      7  C3  <0> d          -0.130   1.826   2.404  0.00  0.00     0.176 A 
ATOM      8  N4  <0> d          -0.698   1.558   1.213  0.00  0.00    -0.237 N 
ATOM      9  N3  <0> d          -1.960   1.801   1.332  0.00  0.00    -0.045 NA
ATOM     10  N2  <0> d          -2.196   2.195   2.535  0.00  0.00    -0.023 NA
ATOM     11  N1  <0> d          -1.093   2.220   3.201  0.00  0.00    -0.111 NA
BRANCH   8  12
ATOM     12  C4  <0> d          -0.013   1.086   0.008  0.00  0.00     0.006 C 
ATOM     13  H5  <0> d           0.002  -0.004   0.002  0.00  0.00     0.059 H 
ATOM     14  H6  <0> d           1.010   1.463   0.000  0.00  0.00     0.059 H 
ATOM     15  H7  <0> d          -0.540   1.447  -0.875  0.00  0.00     0.059 H 
ENDBRANCH   8  12
ENDBRANCH   1   7
BRANCH   1  16
ATOM     16  O1  <0> d           1.751   2.855   3.477  0.00  0.00    -0.383 OA
BRANCH  16  17
ATOM     17  C5  <0> d           3.127   3.192   3.286  0.00  0.00     0.005 C 
ATOM     18  H8  <0> d           3.753   2.363   3.613  0.00  0.00     0.066 H 
ATOM     19  H9  <0> d           3.308   3.390   2.229  0.00  0.00     0.066 H 
ATOM     20  H10 <0> d           3.367   4.081   3.869  0.00  0.00     0.066 H 
ENDBRANCH  16  17
ENDBRANCH   1  16
TORSDOF 5
