REMARK  4 active torsions:
REMARK  status: ('A' for Active; 'I' for Inactive)
REMARK    1  A    between atoms: C2_2  and  C3_3 
REMARK    2  A    between atoms: C3_3  and  C4_4 
REMARK    3  A    between atoms: C4_4  and  C5_5 
REMARK    4  A    between atoms: C5_5  and  C6_6 
ROOT
ATOM      1  C4  <0> d           2.696   3.548  -0.005  0.00  0.00    -0.053 C 
ATOM      2  H6  <0> d           3.204   3.160   0.878  0.00  0.00     0.034 H 
ATOM      3  H7  <0> d           3.187   3.170  -0.901  0.00  0.00     0.034 H 
ENDROOT
BRANCH   1   4
ATOM      4  C3  <0> d           2.755   5.077   0.003  0.00  0.00    -0.050 C 
ATOM      5  H4  <0> d           2.248   5.465  -0.880  0.00  0.00     0.038 H 
ATOM      6  H5  <0> d           2.265   5.455   0.900  0.00  0.00     0.038 H 
BRANCH   4   7
ATOM      7  C2  <0> d           4.195   5.524  -0.008  0.00  0.00    -0.112 C 
ATOM      8  C1  <0> d           4.618   6.344  -0.937  0.00  0.00    -0.125 C 
ATOM      9  H1  <0> d           3.936   6.701  -1.695  0.00  0.00     0.066 H 
ATOM     10  H2  <0> d           5.650   6.665  -0.946  0.00  0.00     0.066 H 
ATOM     11  H3  <0> d           4.877   5.168   0.750  0.00  0.00     0.075 H 
ENDBRANCH   4   7
ENDBRANCH   1   4
BRANCH   1  12
ATOM     12  C5  <0> d           1.235   3.094   0.007  0.00  0.00     0.016 C 
ATOM     13  H8  <0> d           0.727   3.482  -0.876  0.00  0.00     0.049 H 
ATOM     14  H9  <0> d           0.744   3.473   0.904  0.00  0.00     0.049 H 
BRANCH  12  15
ATOM     15  C6  <0> d           1.177   1.588  -0.001  0.00  0.00     0.172 C 
ATOM     16  O1  <0> d           2.199   0.944  -0.014  0.00  0.00    -0.648 OA
ATOM     17  O2  <0> d          -0.011   0.963   0.007  0.00  0.00    -0.648 OA
ENDBRANCH  12  15
ENDBRANCH   1  12
TORSDOF 4
