REMARK  1 active torsions:
REMARK  status: ('A' for Active; 'I' for Inactive)
REMARK    1  A    between atoms: C3_4  and  N4_13 
ROOT
ATOM      1  C1  <0> d          -0.013   1.076   0.008  0.00  0.00    -0.038 A 
ATOM      2  C2  <0> d          -1.210   1.760   0.017  0.00  0.00     0.007 A 
ATOM      3  N1  <0> d          -1.242   3.081   0.030  0.00  0.00    -0.241 NA
ATOM      4  C3  <0> d          -0.136   3.811   0.023  0.00  0.00     0.150 A 
ATOM      5  C4  <0> d           1.111   3.194   0.008  0.00  0.00     0.109 A 
ATOM      6  C5  <0> d           1.177   1.799   0.001  0.00  0.00     0.068 A 
ATOM      7  N2  <0> d           2.520   1.457  -0.014  0.00  0.00    -0.306 N 
ATOM      8  H1  <0> d           2.818   0.398  -0.022  0.00  0.00     0.171 HD
ATOM      9  C6  <0> d           3.248   2.591  -0.015  0.00  0.00     0.325 A 
ATOM     10  O1  <0> d           4.464   2.643  -0.026  0.00  0.00    -0.247 OA
ATOM     11  N3  <0> d           2.425   3.657  -0.002  0.00  0.00    -0.303 N 
ATOM     12  H2  <0> d           2.627   4.739   0.002  0.00  0.00     0.171 HD
ATOM     13  H3  <0> d           0.002  -0.004   0.002  0.00  0.00     0.089 H 
ATOM     14  H4  <0> d          -2.137   1.206   0.019  0.00  0.00     0.114 H 
ENDROOT
BRANCH   4  15
ATOM     15  N4  <0> d          -0.223   5.200   0.031  0.00  0.00    -0.382 N 
ATOM     16  H5  <0> d           0.694   5.808   0.025  0.00  0.00     0.157 HD
ATOM     17  H6  <0> d          -1.207   5.690   0.042  0.00  0.00     0.157 HD
ENDBRANCH   4  15
TORSDOF 1
