REMARK  7 active torsions:
REMARK  status: ('A' for Active; 'I' for Inactive)
REMARK    1  A    between atoms: C1_1  and  C2_2 
REMARK    2  A    between atoms: C2_2  and  C3_4 
REMARK    3  A    between atoms: C2_2  and  O3_11 
REMARK       I    between atoms: C3_4  and  N1_6 
REMARK    4  A    between atoms: N1_6  and  C4_7 
REMARK    5  A    between atoms: C4_7  and  C5_8 
REMARK    6  A    between atoms: C5_8  and  O2_9 
REMARK    7  A    between atoms: O2_9  and  C6_10 
ROOT
ATOM      1  C3  <0> d          -0.268   1.258  -2.409  0.00  0.00     0.246 C 
ATOM      2  O1  <0> d           0.726   0.575  -2.534  0.00  0.00    -0.271 OA
ATOM      3  N1  <0> d          -0.721   1.571  -1.179  0.00  0.00    -0.357 N 
ATOM      4  H5  <0> d          -1.516   2.118  -1.079  0.00  0.00     0.162 HD
ENDROOT
BRANCH   3   5
ATOM      5  C4  <0> d          -0.013   1.086   0.008  0.00  0.00     0.015 C 
ATOM      6  H6  <0> d           0.002  -0.004   0.002  0.00  0.00     0.067 H 
ATOM      7  H7  <0> d           1.010   1.463   0.000  0.00  0.00     0.067 H 
BRANCH   5   8
ATOM      8  C5  <0> d          -0.729   1.579   1.267  0.00  0.00     0.034 C 
ATOM      9  H8  <0> d          -0.154   1.294   2.148  0.00  0.00     0.076 H 
ATOM     10  H9  <0> d          -0.822   2.665   1.230  0.00  0.00     0.076 H 
BRANCH   8  11
ATOM     11  O2  <0> d          -2.030   0.991   1.336  0.00  0.00    -0.394 OA
BRANCH  11  12
ATOM     12  C6  <0> d          -2.787   1.389   2.481  0.00  0.00     0.004 C 
ATOM     13  H10 <0> d          -3.760   0.900   2.461  0.00  0.00     0.066 H 
ATOM     14  H11 <0> d          -2.254   1.099   3.387  0.00  0.00     0.066 H 
ATOM     15  H12 <0> d          -2.922   2.470   2.470  0.00  0.00     0.066 H 
ENDBRANCH  11  12
ENDBRANCH   8  11
ENDBRANCH   5   8
ENDBRANCH   3   5
BRANCH   1  16
ATOM     16  C2  <0> d          -0.997   1.758  -3.630  0.00  0.00     0.108 C 
ATOM     17  H1  <0> d          -2.043   1.455  -3.578  0.00  0.00     0.097 H 
BRANCH  16  18
ATOM     18  C1  <0> d          -0.910   3.284  -3.687  0.00  0.00    -0.044 C 
ATOM     19  H2  <0> d           0.135   3.587  -3.739  0.00  0.00     0.031 H 
ATOM     20  H3  <0> d          -1.438   3.645  -4.570  0.00  0.00     0.031 H 
ATOM     21  H4  <0> d          -1.367   3.708  -2.793  0.00  0.00     0.031 H 
ENDBRANCH  16  18
BRANCH  16  22
ATOM     22  O3  <0> d          -0.398   1.202  -4.803  0.00  0.00    -0.387 OA
ATOM     23  H13 <0> d           0.535   1.431  -4.914  0.00  0.00     0.210 HD
ENDBRANCH  16  22
ENDBRANCH   1  16
TORSDOF 7
