REMARK  4 active torsions:
REMARK  status: ('A' for Active; 'I' for Inactive)
REMARK    1  A    between atoms: C1_1  and  C2_2 
REMARK    2  A    between atoms: C2_2  and  C3_4 
REMARK    3  A    between atoms: C2_2  and  N1_7 
REMARK    4  A    between atoms: C3_4  and  C4_5 
ROOT
ATOM      1  C2  <0> d          -0.993  -2.276  -0.001  0.00  0.00     0.023 C 
ATOM      2  H1  <0> d          -0.335  -2.521   0.834  0.00  0.00     0.073 H 
ENDROOT
BRANCH   1   3
ATOM      3  C1  <0> d          -0.307  -2.649  -1.317  0.00  0.00    -0.056 C 
ATOM      4  H2  <0> d          -0.094  -3.718  -1.324  0.00  0.00     0.030 H 
ATOM      5  H3  <0> d          -0.965  -2.404  -2.151  0.00  0.00     0.030 H 
ATOM      6  H4  <0> d           0.624  -2.091  -1.412  0.00  0.00     0.030 H 
ENDBRANCH   1   3
BRANCH   1   7
ATOM      7  C3  <0> d          -1.293  -0.775   0.010  0.00  0.00     0.035 C 
ATOM      8  H5  <0> d          -1.859  -0.524   0.907  0.00  0.00     0.052 H 
ATOM      9  H6  <0> d          -1.876  -0.515  -0.873  0.00  0.00     0.052 H 
BRANCH   7  10
ATOM     10  C4  <0> d           0.002  -0.004   0.002  0.00  0.00     0.174 C 
ATOM     11  O1  <0> d           1.056  -0.594  -0.011  0.00  0.00    -0.648 OA
ATOM     12  O2  <0> d          -0.016   1.338   0.009  0.00  0.00    -0.648 OA
ENDBRANCH   7  10
ENDBRANCH   1   7
BRANCH   1  13
ATOM     13  N1  <0> d          -2.245  -3.025   0.128  0.00  0.00    -0.345 N 
ATOM     14  C7  <0> d          -3.296  -2.979  -0.719  0.00  0.00     0.066 A 
ATOM     15  N2  <0> d          -4.226  -3.781  -0.275  0.00  0.00    -0.255 NA
ATOM     16  H9  <0> d          -3.358  -2.379  -1.614  0.00  0.00     0.143 H 
ATOM     17  C6  <0> d          -3.805  -4.362   0.858  0.00  0.00     0.018 A 
ATOM     18  C5  <0> d          -2.566  -3.906   1.124  0.00  0.00    -0.002 A 
ATOM     19  H8  <0> d          -4.360  -5.073   1.451  0.00  0.00     0.117 H 
ATOM     20  H7  <0> d          -1.945  -4.182   1.964  0.00  0.00     0.113 H 
ENDBRANCH   1  13
TORSDOF 4
