REMARK  3 active torsions:
REMARK  status: ('A' for Active; 'I' for Inactive)
REMARK    1  A    between atoms: C1_1  and  C2_2 
REMARK    2  A    between atoms: C4_4  and  C6_10 
REMARK    3  A    between atoms: C5_6  and  O1_9 
ROOT
ATOM      1  C2  <0> d           0.002  -0.004   0.002  0.00  0.00     0.006 C 
ATOM      2  C3  <0> d           0.006  -0.694  -1.160  0.00  0.00    -0.039 C 
ATOM      3  C4  <0> d           0.054  -2.106  -1.131  0.00  0.00     0.031 C 
ATOM      4  N1  <0> d           0.356  -2.747  -0.045  0.00  0.00    -0.243 NA
ATOM      5  C5  <0> d           0.690  -2.026   1.186  0.00  0.00     0.192 C 
ATOM      6  H1  <0> d           0.356  -2.603   2.049  0.00  0.00     0.157 H 
ATOM      7  N2  <0> d           0.023  -0.721   1.179  0.00  0.00    -0.350 N 
ATOM      8  H5  <0> d          -0.027  -0.170  -2.103  0.00  0.00     0.089 H 
ATOM      9  H6  <0> d          -0.395  -0.373   1.982  0.00  0.00     0.163 HD
ENDROOT
BRANCH   1  10
ATOM     10  C1  <0> d          -0.018   1.503   0.010  0.00  0.00    -0.038 C 
ATOM     11  H2  <0> d           1.004   1.880   0.003  0.00  0.00     0.035 H 
ATOM     12  H3  <0> d          -0.545   1.864  -0.873  0.00  0.00     0.035 H 
ATOM     13  H4  <0> d          -0.529   1.854   0.907  0.00  0.00     0.035 H 
ENDBRANCH   1  10
BRANCH   5  14
ATOM     14  O1  <0> d           2.105  -1.835   1.258  0.00  0.00    -0.358 OA
ATOM     15  H7  <0> d           2.613  -2.658   1.263  0.00  0.00     0.214 HD
ENDBRANCH   5  14
BRANCH   3  16
ATOM     16  C6  <0> d          -0.252  -2.882  -2.387  0.00  0.00    -0.036 C 
ATOM     17  H8  <0> d           0.669  -3.041  -2.949  0.00  0.00     0.035 H 
ATOM     18  H9  <0> d          -0.686  -3.846  -2.122  0.00  0.00     0.035 H 
ATOM     19  H10 <0> d          -0.959  -2.321  -2.998  0.00  0.00     0.035 H 
ENDBRANCH   3  16
TORSDOF 3
