REMARK  2 active torsions:
REMARK  status: ('A' for Active; 'I' for Inactive)
REMARK    1  A    between atoms: C1_1  and  O1_2 
REMARK    2  A    between atoms: O1_2  and  C2_3 
ROOT
ATOM      1  C2  <0> d           0.652  -0.570  -1.138  0.00  0.00     0.134 C 
ATOM      2  H1  <0> d           1.658  -0.165  -1.239  0.00  0.00     0.129 H 
ATOM      3  C3  <0> d           0.704  -2.114  -1.015  0.00  0.00    -0.014 C 
ATOM      4  C4  <0> d           0.803  -2.527  -2.510  0.00  0.00    -0.008 C 
ATOM      5  C5  <0> d          -0.040  -1.440  -3.202  0.00  0.00     0.167 C 
ATOM      6  O2  <0> d          -0.113  -0.311  -2.328  0.00  0.00    -0.325 OA
ATOM      7  C6  <0> d           0.614  -1.043  -4.535  0.00  0.00    -0.011 C 
ATOM      8  C7  <0> d          -0.481  -1.333  -5.592  0.00  0.00    -0.040 C 
ATOM      9  C8  <0> d          -1.771  -1.334  -4.731  0.00  0.00     0.023 C 
ATOM     10  O3  <0> d          -1.350  -1.944  -3.491  0.00  0.00    -0.355 OA
ATOM     11  H5  <0> d           1.586  -2.435  -0.461  0.00  0.00     0.040 H 
ATOM     12  H6  <0> d          -0.207  -2.503  -0.560  0.00  0.00     0.040 H 
ATOM     13  H7  <0> d           1.836  -2.494  -2.855  0.00  0.00     0.041 H 
ATOM     14  H8  <0> d           0.370  -3.514  -2.670  0.00  0.00     0.041 H 
ATOM     15  H9  <0> d           0.872   0.016  -4.534  0.00  0.00     0.041 H 
ATOM     16  H10 <0> d           1.498  -1.653  -4.724  0.00  0.00     0.041 H 
ATOM     17  H11 <0> d          -0.516  -0.544  -6.343  0.00  0.00     0.036 H 
ATOM     18  H12 <0> d          -0.324  -2.306  -6.058  0.00  0.00     0.036 H 
ATOM     19  H13 <0> d          -2.118  -0.315  -4.559  0.00  0.00     0.074 H 
ATOM     20  H14 <0> d          -2.549  -1.930  -5.207  0.00  0.00     0.074 H 
ENDROOT
BRANCH   1  21
ATOM     21  O1  <0> d           0.002  -0.004   0.002  0.00  0.00    -0.366 OA
BRANCH  21  22
ATOM     22  C1  <0> d          -0.017   1.425   0.010  0.00  0.00     0.007 C 
ATOM     23  H2  <0> d           1.005   1.802   0.002  0.00  0.00     0.066 H 
ATOM     24  H3  <0> d          -0.544   1.786  -0.873  0.00  0.00     0.066 H 
ATOM     25  H4  <0> d          -0.527   1.776   0.907  0.00  0.00     0.066 H 
ENDBRANCH  21  22
ENDBRANCH   1  21
TORSDOF 2
