REMARK  2 active torsions:
REMARK  status: ('A' for Active; 'I' for Inactive)
REMARK    1  A    between atoms: C3_3  and  C4_4 
REMARK    2  A    between atoms: C5_5  and  C6_6 
ROOT
ATOM      1  C1  <0> d          -1.141   2.155   0.790  0.00  0.00    -0.051 A 
ATOM      2  C2  <0> d          -1.155   2.163  -0.741  0.00  0.00    -0.051 A 
ATOM      3  C3  <0> d          -0.018   1.468   0.010  0.00  0.00     0.006 A 
ATOM      4  H1  <0> d          -1.865   1.517   1.297  0.00  0.00     0.035 H 
ATOM      5  H2  <0> d          -0.903   3.090   1.296  0.00  0.00     0.035 H 
ATOM      6  H3  <0> d          -0.927   3.104  -1.241  0.00  0.00     0.035 H 
ATOM      7  H4  <0> d          -1.889   1.530  -1.241  0.00  0.00     0.035 H 
ATOM      8  H5  <0> d           0.959   1.951   0.003  0.00  0.00     0.059 H 
ENDROOT
BRANCH   3   9
ATOM      9  C4  <0> d           0.002  -0.004   0.002  0.00  0.00    -0.090 C 
ATOM     10  C5  <0> d           0.018  -1.178  -0.004  0.00  0.00     0.005 C 
BRANCH  10  11
ATOM     11  C6  <0> d           0.037  -2.610  -0.012  0.00  0.00     0.258 C 
ATOM     12  O1  <0> d          -1.007  -3.232  -0.006  0.00  0.00    -0.637 OA
ATOM     13  O2  <0> d           1.214  -3.268  -0.027  0.00  0.00    -0.637 OA
ENDBRANCH  10  11
ENDBRANCH   3   9
TORSDOF 2
