REMARK  4 active torsions:
REMARK  status: ('A' for Active; 'I' for Inactive)
REMARK    1  A    between atoms: C1_1  and  C2_2 
REMARK    2  A    between atoms: C4_5  and  C5_7 
REMARK    3  A    between atoms: C5_7  and  O2_9 
REMARK    4  A    between atoms: O2_9  and  C6_10 
ROOT
ATOM      1  C2  <0> d           1.728  -0.205  -0.015  0.00  0.00    -0.002 A 
ATOM      2  C3  <0> d           2.151   1.092  -0.013  0.00  0.00     0.016 A 
ATOM      3  N1  <0> d           1.276   2.061   0.001  0.00  0.00    -0.247 NA
ATOM      4  C4  <0> d          -0.022   1.782   0.012  0.00  0.00     0.173 A 
ATOM      5  S1  <0> d           0.002  -0.004   0.002  0.00  0.00    -0.068 SA
ATOM      6  H4  <0> d           3.208   1.317  -0.021  0.00  0.00     0.116 H 
ENDROOT
BRANCH   4   7
ATOM      7  C5  <0> d          -1.172   2.699   0.023  0.00  0.00     0.318 C 
ATOM      8  O1  <0> d          -2.304   2.255   0.026  0.00  0.00    -0.257 OA
BRANCH   7   9
ATOM      9  O2  <0> d          -0.972   4.032   0.029  0.00  0.00    -0.321 OA
BRANCH   9  10
ATOM     10  C6  <0> d          -2.153   4.877   0.039  0.00  0.00     0.013 C 
ATOM     11  H5  <0> d          -2.752   4.675  -0.849  0.00  0.00     0.067 H 
ATOM     12  H6  <0> d          -2.743   4.665   0.931  0.00  0.00     0.067 H 
ATOM     13  H7  <0> d          -1.851   5.924   0.043  0.00  0.00     0.067 H 
ENDBRANCH   9  10
ENDBRANCH   7   9
ENDBRANCH   4   7
BRANCH   1  14
ATOM     14  C1  <0> d           2.540  -1.474  -0.030  0.00  0.00    -0.044 C 
ATOM     15  H1  <0> d           1.871  -2.334  -0.028  0.00  0.00     0.034 H 
ATOM     16  H2  <0> d           3.161  -1.498  -0.926  0.00  0.00     0.034 H 
ATOM     17  H3  <0> d           3.177  -1.507   0.854  0.00  0.00     0.034 H 
ENDBRANCH   1  14
TORSDOF 4
