REMARK  2 active torsions:
REMARK  status: ('A' for Active; 'I' for Inactive)
REMARK    1  A    between atoms: C2_2  and  N2_10 
REMARK    2  A    between atoms: C6_6  and  N1_7 
ROOT
ATOM      1  C1  <0> d          -1.248   3.412   0.032  0.00  0.00    -0.026 A 
ATOM      2  C2  <0> d          -0.055   4.120   0.024  0.00  0.00     0.067 A 
ATOM      3  C3  <0> d           1.157   3.438   0.009  0.00  0.00     0.145 A 
ATOM      4  C4  <0> d           1.173   2.054   0.002  0.00  0.00    -0.004 A 
ATOM      5  C5  <0> d          -0.016   1.347   0.009  0.00  0.00     0.145 A 
ATOM      6  C6  <0> d          -1.230   2.025   0.019  0.00  0.00     0.067 A 
ATOM      7  F1  <0> d           0.002  -0.004   0.002  0.00  0.00    -0.204 F 
ATOM      8  F2  <0> d           2.319   4.126   0.001  0.00  0.00    -0.204 F 
ATOM      9  H1  <0> d          -2.190   3.941   0.044  0.00  0.00     0.090 H 
ATOM     10  H2  <0> d           2.114   1.526  -0.010  0.00  0.00     0.093 H 
ENDROOT
BRANCH   2  11
ATOM     11  N2  <0> d          -0.070   5.519   0.032  0.00  0.00    -0.397 N 
ATOM     12  H5  <0> d           0.764   6.014   0.027  0.00  0.00     0.156 HD
ATOM     13  H6  <0> d          -0.915   5.995   0.043  0.00  0.00     0.156 HD
ENDBRANCH   2  11
BRANCH   6  14
ATOM     14  N1  <0> d          -2.433   1.309   0.021  0.00  0.00    -0.397 N 
ATOM     15  H3  <0> d          -2.420   0.339   0.015  0.00  0.00     0.156 HD
ATOM     16  H4  <0> d          -3.279   1.782   0.027  0.00  0.00     0.156 HD
ENDBRANCH   6  14
TORSDOF 2
