REMARK  4 active torsions:
REMARK  status: ('A' for Active; 'I' for Inactive)
REMARK    1  A    between atoms: C1_1  and  O1_2 
REMARK    2  A    between atoms: O1_2  and  C2_3 
REMARK    3  A    between atoms: C4_5  and  C7_9 
REMARK    4  A    between atoms: C7_9  and  O2_10 
ROOT
ATOM      1  C2  <0> d           1.137  -0.683  -0.013  0.00  0.00     0.164 A 
ATOM      2  C3  <0> d           2.358  -0.020  -0.021  0.00  0.00    -0.024 A 
ATOM      3  C4  <0> d           2.373   1.364  -0.013  0.00  0.00    -0.029 A 
ATOM      4  C5  <0> d           1.160   2.039   0.002  0.00  0.00    -0.058 A 
ATOM      5  C6  <0> d          -0.016   1.315   0.009  0.00  0.00     0.005 A 
ATOM      6  N1  <0> d           0.002  -0.004   0.002  0.00  0.00    -0.237 NA
ATOM      7  H4  <0> d           3.283  -0.577  -0.032  0.00  0.00     0.091 H 
ATOM      8  H5  <0> d           1.136   3.119   0.008  0.00  0.00     0.086 H 
ATOM      9  H6  <0> d          -0.962   1.836   0.017  0.00  0.00     0.114 H 
ENDROOT
BRANCH   1  10
ATOM     10  O1  <0> d           1.109  -2.039  -0.020  0.00  0.00    -0.339 OA
BRANCH  10  11
ATOM     11  C1  <0> d          -0.177  -2.661  -0.011  0.00  0.00     0.012 C 
ATOM     12  H1  <0> d          -0.056  -3.755  -0.019  0.00  0.00     0.067 H 
ATOM     13  H2  <0> d          -0.742  -2.349  -0.902  0.00  0.00     0.067 H 
ATOM     14  H3  <0> d          -0.725  -2.359   0.894  0.00  0.00     0.067 H 
ENDBRANCH  10  11
ENDBRANCH   1  10
BRANCH   3  15
ATOM     15  C7  <0> d           3.676   2.121  -0.021  0.00  0.00     0.041 C 
ATOM     16  H7  <0> d           3.547   3.079   0.504  0.00  0.00     0.081 H 
ATOM     17  H8  <0> d           4.449   1.526   0.487  0.00  0.00     0.081 H 
BRANCH  15  18
ATOM     18  O2  <0> d           4.075   2.367  -1.371  0.00  0.00    -0.396 OA
ATOM     19  H9  <0> d           5.009   2.912  -1.578  0.00  0.00     0.209 HD
ENDBRANCH  15  18
ENDBRANCH   3  15
TORSDOF 4
