REMARK  1 active torsions:
REMARK  status: ('A' for Active; 'I' for Inactive)
REMARK    1  A    between atoms: C6_8  and  C7_10 
ROOT
ATOM      1  C1  <0> d           0.447  -0.396  -1.442  0.00  0.00    -0.022 C 
ATOM      2  C2  <0> d           0.002  -0.004   0.002  0.00  0.00     0.056 C 
ATOM      3  H1  <0> d          -0.898  -0.491   0.378  0.00  0.00     0.089 H 
ATOM      4  C3  <0> d          -0.019   1.527   0.010  0.00  0.00    -0.077 C 
ATOM      5  C4  <0> d           1.244   1.919   0.001  0.00  0.00    -0.076 C 
ATOM      6  C5  <0> d           2.095   0.647  -0.015  0.00  0.00     0.068 C 
ATOM      7  H2  <0> d           3.121   0.748   0.339  0.00  0.00     0.091 H 
ATOM      8  C6  <0> d           1.930   0.065  -1.453  0.00  0.00     0.061 C 
ATOM      9  H3  <0> d           2.092   0.836  -2.207  0.00  0.00     0.061 H 
ATOM     10  O2  <0> d           1.236  -0.261   0.755  0.00  0.00    -0.372 OA
ATOM     11  H4  <0> d           0.373  -1.473  -1.594  0.00  0.00     0.038 H 
ATOM     12  H5  <0> d          -0.135   0.143  -2.189  0.00  0.00     0.038 H 
ATOM     13  H6  <0> d          -0.893   2.161   0.018  0.00  0.00     0.080 H 
ATOM     14  H7  <0> d           1.604   2.938   0.002  0.00  0.00     0.080 H 
ENDROOT
BRANCH   8  15
ATOM     15  C7  <0> d           2.857  -1.103  -1.672  0.00  0.00     0.179 C 
ATOM     16  O1  <0> d           3.593  -1.464  -0.785  0.00  0.00    -0.648 OA
ATOM     17  O3  <0> d           2.864  -1.742  -2.852  0.00  0.00    -0.648 OA
ENDBRANCH   8  15
TORSDOF 1
