REMARK  2 active torsions:
REMARK  status: ('A' for Active; 'I' for Inactive)
REMARK    1  A    between atoms: C1_1  and  O1_2 
REMARK    2  A    between atoms: O1_2  and  C2_3 
ROOT
ATOM      1  C2  <0> d          -0.019   1.534   0.011  0.00  0.00     0.038 C 
ATOM      2  C3  <0> d           1.453   1.995  -0.001  0.00  0.00    -0.041 C 
ATOM      3  C4  <0> d           2.232   0.792   0.586  0.00  0.00    -0.063 C 
ATOM      4  C5  <0> d           1.486  -0.425  -0.014  0.00  0.00    -0.063 C 
ATOM      5  C6  <0> d           0.002  -0.004   0.002  0.00  0.00    -0.041 C 
ATOM      6  H4  <0> d          -0.516   1.896   0.910  0.00  0.00     0.083 H 
ATOM      7  H5  <0> d           1.781   2.201  -1.020  0.00  0.00     0.036 H 
ATOM      8  H6  <0> d           1.582   2.877   0.627  0.00  0.00     0.036 H 
ATOM      9  H7  <0> d           2.169   0.786   1.675  0.00  0.00     0.033 H 
ATOM     10  H8  <0> d           3.272   0.808   0.259  0.00  0.00     0.033 H 
ATOM     11  H9  <0> d           1.639  -1.309   0.604  0.00  0.00     0.033 H 
ATOM     12  H10 <0> d           1.819  -0.610  -1.036  0.00  0.00     0.033 H 
ATOM     13  H11 <0> d          -0.485  -0.389   0.898  0.00  0.00     0.036 H 
ATOM     14  H12 <0> d          -0.502  -0.379  -0.888  0.00  0.00     0.036 H 
ENDROOT
BRANCH   1  15
ATOM     15  O1  <0> d          -0.693   2.021  -1.151  0.00  0.00    -0.391 OA
BRANCH  15  16
ATOM     16  C1  <0> d          -1.355   3.273  -0.958  0.00  0.00     0.004 C 
ATOM     17  H1  <0> d          -1.843   3.573  -1.885  0.00  0.00     0.066 H 
ATOM     18  H2  <0> d          -2.103   3.170  -0.171  0.00  0.00     0.066 H 
ATOM     19  H3  <0> d          -0.626   4.029  -0.669  0.00  0.00     0.066 H 
ENDBRANCH  15  16
ENDBRANCH   1  15
TORSDOF 2
