REMARK  2 active torsions:
REMARK  status: ('A' for Active; 'I' for Inactive)
REMARK    1  A    between atoms: N2_4  and  C3_6 
REMARK    2  A    between atoms: C3_6  and  C4_7 
REMARK       I    between atoms: C4_7  and  N4_9 
ROOT
ATOM      1  C3  <0> d          -1.330   1.944   0.019  0.00  0.00     0.091 C 
ATOM      2  H3  <0> d          -1.392   2.565   0.913  0.00  0.00     0.082 H 
ATOM      3  H4  <0> d          -1.400   2.575  -0.867  0.00  0.00     0.082 H 
ENDROOT
BRANCH   1   4
ATOM      4  N2  <0> d          -2.430   0.977   0.019  0.00  0.00    -0.254 N 
ATOM      5  C2  <0> d          -3.438   0.904   0.905  0.00  0.00     0.084 A 
ATOM      6  N1  <0> d          -4.212  -0.092   0.558  0.00  0.00    -0.234 NA
ATOM      7  H2  <0> d          -3.584   1.554   1.755  0.00  0.00     0.146 H 
ATOM      8  C1  <0> d          -3.732  -0.677  -0.539  0.00  0.00     0.107 A 
ATOM      9  N3  <0> d          -2.644  -0.054  -0.910  0.00  0.00    -0.164 NA
ATOM     10  H1  <0> d          -4.173  -1.525  -1.042  0.00  0.00     0.149 H 
ENDBRANCH   1   4
BRANCH   1  11
ATOM     11  C4  <0> d          -0.014   1.209   0.009  0.00  0.00     0.235 C 
ATOM     12  O1  <0> d           0.002  -0.004   0.002  0.00  0.00    -0.272 OA
ATOM     13  N4  <0> d           1.143   1.898   0.001  0.00  0.00    -0.369 N 
ATOM     14  H5  <0> d           1.990   1.425  -0.009  0.00  0.00     0.159 HD
ATOM     15  H6  <0> d           1.130   2.868   0.007  0.00  0.00     0.159 HD
ENDBRANCH   1  11
TORSDOF 2
