REMARK  3 active torsions:
REMARK  status: ('A' for Active; 'I' for Inactive)
REMARK    1  A    between atoms: C1_1  and  C2_2 
REMARK    2  A    between atoms: C2_2  and  C4_4 
REMARK    3  A    between atoms: C4_4  and  S1_5 
ROOT
ATOM      1  C2  <0> d          -1.156   1.715   0.017  0.00  0.00    -0.077 C 
ATOM      2  C3  <0> d          -0.013   1.076   0.008  0.00  0.00    -0.118 C 
ATOM      3  H4  <0> d           0.002  -0.004   0.002  0.00  0.00     0.067 H 
ATOM      4  H5  <0> d           0.915   1.629   0.002  0.00  0.00     0.067 H 
ENDROOT
BRANCH   1   5
ATOM      5  C1  <0> d          -2.451   0.944   0.019  0.00  0.00    -0.054 C 
ATOM      6  H1  <0> d          -2.758   0.753   1.047  0.00  0.00     0.033 H 
ATOM      7  H2  <0> d          -3.221   1.526  -0.488  0.00  0.00     0.033 H 
ATOM      8  H3  <0> d          -2.310  -0.004  -0.501  0.00  0.00     0.033 H 
ENDBRANCH   1   5
BRANCH   1   9
ATOM      9  C4  <0> d          -1.176   3.222   0.025  0.00  0.00     0.064 C 
ATOM     10  H6  <0> d          -1.904   3.572   0.757  0.00  0.00     0.067 H 
ATOM     11  H7  <0> d          -0.187   3.598   0.288  0.00  0.00     0.067 H 
BRANCH   9  12
ATOM     12  S1  <0> d          -1.635   3.830  -1.621  0.00  0.00     0.105 S 
ATOM     13  O1  <0> d          -0.606   3.535  -2.556  0.00  0.00    -0.595 OA
ATOM     14  O2  <0> d          -2.987   3.500  -1.906  0.00  0.00    -0.595 OA
ATOM     15  O3  <0> d          -1.623   5.346  -1.496  0.00  0.00    -0.595 OA
ENDBRANCH   9  12
ENDBRANCH   1   9
TORSDOF 3
