REMARK  6 active torsions:
REMARK  status: ('A' for Active; 'I' for Inactive)
REMARK    1  A    between atoms: C1_1  and  N1_2 
REMARK    2  A    between atoms: N1_2  and  C2_3 
REMARK    3  A    between atoms: N1_2  and  C3_4 
REMARK    4  A    between atoms: C3_4  and  C4_5 
REMARK    5  A    between atoms: C4_5  and  O2_7 
REMARK    6  A    between atoms: O2_7  and  C5_8 
ROOT
ATOM      1  C3  <0> d          -1.360  -0.549  -0.083  0.00  0.00     0.191 C 
ATOM      2  H7  <0> d          -1.324  -1.633   0.021  0.00  0.00     0.095 H 
ATOM      3  H8  <0> d          -1.970  -0.127   0.716  0.00  0.00     0.095 H 
ENDROOT
BRANCH   1   4
ATOM      4  N1  <0> d           0.002  -0.004   0.002  0.00  0.00     0.089 N 
BRANCH   4   5
ATOM      5  C1  <0> d          -0.018   1.465   0.010  0.00  0.00     0.095 C 
ATOM      6  H1  <0> d           1.005   1.842   0.002  0.00  0.00     0.071 H 
ATOM      7  H2  <0> d          -0.545   1.826  -0.873  0.00  0.00     0.071 H 
ATOM      8  H3  <0> d          -0.528   1.816   0.907  0.00  0.00     0.071 H 
ENDBRANCH   4   5
BRANCH   4   9
ATOM      9  C2  <0> d           0.706  -0.527   1.180  0.00  0.00     0.095 C 
ATOM     10  H4  <0> d           0.162  -0.249   2.082  0.00  0.00     0.071 H 
ATOM     11  H5  <0> d           0.768  -1.614   1.114  0.00  0.00     0.071 H 
ATOM     12  H6  <0> d           1.712  -0.108   1.219  0.00  0.00     0.071 H 
ENDBRANCH   4   9
ENDBRANCH   1   4
BRANCH   1  13
ATOM     13  C4  <0> d          -1.962  -0.191  -1.417  0.00  0.00     0.286 C 
ATOM     14  O1  <0> d          -1.322   0.452  -2.216  0.00  0.00    -0.263 OA
BRANCH  13  15
ATOM     15  O2  <0> d          -3.209  -0.586  -1.718  0.00  0.00    -0.325 OA
BRANCH  15  16
ATOM     16  C5  <0> d          -3.716  -0.212  -3.001  0.00  0.00     0.013 C 
ATOM     17  H9  <0> d          -4.730  -0.593  -3.115  0.00  0.00     0.067 H 
ATOM     18  H10 <0> d          -3.725   0.875  -3.085  0.00  0.00     0.067 H 
ATOM     19  H11 <0> d          -3.079  -0.631  -3.780  0.00  0.00     0.067 H 
ENDBRANCH  15  16
ENDBRANCH  13  15
ENDBRANCH   1  13
TORSDOF 6
