REMARK  1 active torsions:
REMARK  status: ('A' for Active; 'I' for Inactive)
REMARK    1  A    between atoms: C4_4  and  C7_7 
ROOT
ATOM      1  C7  <0> d           2.714  -0.450   2.675  0.00  0.00     0.135 C 
ATOM      2  C8  <0> d           4.123  -0.375   2.254  0.00  0.00     0.083 C 
ATOM      3  N1  <0> d           5.210  -0.317   1.929  0.00  0.00    -0.196 NA
ATOM      4  C9  <0> d           2.550   0.244   3.963  0.00  0.00     0.083 C 
ATOM      5  N2  <0> d           2.423   0.779   4.957  0.00  0.00    -0.196 NA
ATOM      6  H10 <0> d           2.423  -1.495   2.786  0.00  0.00     0.093 H 
ENDROOT
BRANCH   1   7
ATOM      7  C4  <0> d           1.843   0.207   1.636  0.00  0.00    -0.053 C 
ATOM      8  C3  <0> d           2.083   1.657   1.332  0.00  0.00    -0.043 C 
ATOM      9  C2  <0> d           1.430   2.031  -0.001  0.00  0.00    -0.061 C 
ATOM     10  H5  <0> d           3.155   1.841   1.273  0.00  0.00     0.039 H 
ATOM     11  H6  <0> d           1.657   2.268   2.127  0.00  0.00     0.039 H 
ATOM     12  C1  <0> d          -0.019   1.526   0.010  0.00  0.00    -0.062 C 
ATOM     13  H3  <0> d           1.975   1.562  -0.820  0.00  0.00     0.033 H 
ATOM     14  H4  <0> d           1.439   3.114  -0.122  0.00  0.00     0.033 H 
ATOM     15  C6  <0> d           0.002  -0.004   0.002  0.00  0.00    -0.050 C 
ATOM     16  H1  <0> d          -0.523   1.881   0.909  0.00  0.00     0.033 H 
ATOM     17  H2  <0> d          -0.540   1.890  -0.875  0.00  0.00     0.033 H 
ATOM     18  C5  <0> d           0.935  -0.514   1.061  0.00  0.00    -0.098 C 
ATOM     19  H8  <0> d          -1.003  -0.380   0.195  0.00  0.00     0.038 H 
ATOM     20  H9  <0> d           0.336  -0.355  -0.974  0.00  0.00     0.038 H 
ATOM     21  H7  <0> d           0.844  -1.547   1.361  0.00  0.00     0.077 H 
ENDBRANCH   1   7
TORSDOF 1
