REMARK  4 active torsions:
REMARK  status: ('A' for Active; 'I' for Inactive)
REMARK    1  A    between atoms: C1_1  and  C2_2 
REMARK    2  A    between atoms: C2_2  and  O1_3 
REMARK    3  A    between atoms: O1_3  and  C3_4 
REMARK    4  A    between atoms: C6_7  and  C9_10 
ROOT
ATOM      1  C9  <0> d           1.169   3.519   0.009  0.00  0.00    -0.078 C 
ATOM      2  C10 <0> d           1.156   4.693   0.015  0.00  0.00    -0.149 C 
ATOM      3  H10 <0> d           1.145   5.742   0.021  0.00  0.00     0.166 H 
ENDROOT
BRANCH   1   4
ATOM      4  C6  <0> d           1.184   2.087   0.002  0.00  0.00     0.017 A 
ATOM      5  C5  <0> d          -0.017   1.374   0.010  0.00  0.00    -0.062 A 
ATOM      6  C4  <0> d           0.002  -0.004   0.002  0.00  0.00    -0.049 A 
ATOM      7  H7  <0> d          -0.959   1.902   0.017  0.00  0.00     0.085 H 
ATOM      8  C3  <0> d           1.213  -0.684  -0.014  0.00  0.00     0.068 A 
ATOM      9  H6  <0> d          -0.926  -0.556   0.008  0.00  0.00     0.087 H 
ATOM     10  C8  <0> d           2.409   0.021  -0.021  0.00  0.00    -0.049 A 
ATOM     11  C7  <0> d           2.399   1.400  -0.013  0.00  0.00    -0.062 A 
ATOM     12  H9  <0> d           3.349  -0.511  -0.033  0.00  0.00     0.087 H 
ATOM     13  H8  <0> d           3.329   1.948  -0.020  0.00  0.00     0.085 H 
BRANCH   8  14
ATOM     14  O1  <0> d           1.227  -2.042  -0.021  0.00  0.00    -0.352 OA
BRANCH  14  15
ATOM     15  C2  <0> d           2.507  -2.678  -0.037  0.00  0.00     0.023 C 
ATOM     16  H4  <0> d           3.052  -2.374  -0.931  0.00  0.00     0.074 H 
ATOM     17  H5  <0> d           3.070  -2.384   0.849  0.00  0.00     0.074 H 
BRANCH  15  18
ATOM     18  C1  <0> d           2.323  -4.196  -0.043  0.00  0.00    -0.056 C 
ATOM     19  H1  <0> d           3.299  -4.681  -0.056  0.00  0.00     0.030 H 
ATOM     20  H2  <0> d           1.778  -4.500   0.850  0.00  0.00     0.030 H 
ATOM     21  H3  <0> d           1.760  -4.490  -0.929  0.00  0.00     0.030 H 
ENDBRANCH  15  18
ENDBRANCH  14  15
ENDBRANCH   8  14
ENDBRANCH   1   4
TORSDOF 4
