REMARK  3 active torsions:
REMARK  status: ('A' for Active; 'I' for Inactive)
REMARK    1  A    between atoms: C1_1  and  C2_2 
REMARK    2  A    between atoms: C2_2  and  C3_4 
REMARK    3  A    between atoms: C2_2  and  O1_10 
ROOT
ATOM      1  C3  <0> d           0.707  -0.490  -1.238  0.00  0.00     0.005 A 
ATOM      2  C4  <0> d           2.087  -0.615  -1.266  0.00  0.00     0.013 A 
ATOM      3  N1  <0> d           2.672  -1.045  -2.373  0.00  0.00    -0.254 NA
ATOM      4  C5  <0> d           1.959  -1.352  -3.438  0.00  0.00     0.085 A 
ATOM      5  N2  <0> d           0.645  -1.246  -3.447  0.00  0.00    -0.254 NA
ATOM      6  C6  <0> d          -0.009  -0.828  -2.375  0.00  0.00     0.013 A 
ATOM      7  H5  <0> d           2.678  -0.365  -0.397  0.00  0.00     0.115 H 
ATOM      8  H6  <0> d           2.465  -1.700  -4.327  0.00  0.00     0.146 H 
ATOM      9  H7  <0> d          -1.086  -0.748  -2.388  0.00  0.00     0.115 H 
ENDROOT
BRANCH   1  10
ATOM     10  C2  <0> d           0.002  -0.004   0.002  0.00  0.00     0.060 C 
ATOM     11  H1  <0> d          -1.020  -0.381   0.010  0.00  0.00     0.090 H 
BRANCH  10  12
ATOM     12  C1  <0> d          -0.019   1.526   0.010  0.00  0.00    -0.049 C 
ATOM     13  H2  <0> d           1.004   1.903   0.003  0.00  0.00     0.031 H 
ATOM     14  H3  <0> d          -0.546   1.887  -0.873  0.00  0.00     0.031 H 
ATOM     15  H4  <0> d          -0.529   1.877   0.907  0.00  0.00     0.031 H 
ENDBRANCH  10  12
BRANCH  10  16
ATOM     16  O1  <0> d           0.693  -0.477   1.160  0.00  0.00    -0.391 OA
ATOM     17  H8  <0> d           0.294  -0.202   1.996  0.00  0.00     0.210 HD
ENDBRANCH  10  16
ENDBRANCH   1  10
TORSDOF 3
