REMARK  3 active torsions:
REMARK  status: ('A' for Active; 'I' for Inactive)
REMARK    1  A    between atoms: C1_1  and  N1_2 
REMARK    2  A    between atoms: N1_2  and  C2_3 
REMARK    3  A    between atoms: C4_5  and  N4_9 
ROOT
ATOM      1  C2  <0> d          -3.610   1.667   0.029  0.00  0.00     0.128 A 
ATOM      2  C3  <0> d          -2.422   0.941   0.019  0.00  0.00     0.005 A 
ATOM      3  C4  <0> d          -1.221   1.643   0.017  0.00  0.00     0.126 A 
ATOM      4  N2  <0> d          -1.250   2.974   0.030  0.00  0.00    -0.225 NA
ATOM      5  C5  <0> d          -2.395   3.625   0.034  0.00  0.00     0.091 A 
ATOM      6  N3  <0> d          -3.554   2.997   0.036  0.00  0.00    -0.225 NA
ATOM      7  H5  <0> d          -2.433  -0.139   0.012  0.00  0.00     0.095 H 
ATOM      8  H6  <0> d          -2.385   4.705   0.040  0.00  0.00     0.146 H 
ENDROOT
BRANCH   1   9
ATOM      9  N1  <0> d          -4.833   1.014   0.030  0.00  0.00    -0.379 N 
ATOM     10  H4  <0> d          -5.656   1.527   0.038  0.00  0.00     0.160 HD
BRANCH   9  11
ATOM     11  C1  <0> d          -4.882  -0.450   0.022  0.00  0.00    -0.020 C 
ATOM     12  H1  <0> d          -5.921  -0.779   0.025  0.00  0.00     0.056 H 
ATOM     13  H2  <0> d          -4.385  -0.825  -0.873  0.00  0.00     0.056 H 
ATOM     14  H3  <0> d          -4.376  -0.836   0.907  0.00  0.00     0.056 H 
ENDBRANCH   9  11
ENDBRANCH   1   9
BRANCH   3  15
ATOM     15  N4  <0> d          -0.011   0.966   0.007  0.00  0.00    -0.384 N 
ATOM     16  H7  <0> d           0.002  -0.004   0.002  0.00  0.00     0.157 HD
ATOM     17  H8  <0> d           0.822   1.462   0.002  0.00  0.00     0.157 HD
ENDBRANCH   3  15
TORSDOF 3
