REMARK  3 active torsions:
REMARK  status: ('A' for Active; 'I' for Inactive)
REMARK    1  A    between atoms: C3_3  and  C4_4 
REMARK       I    between atoms: C4_4  and  N1_6 
REMARK    2  A    between atoms: N1_6  and  C5_7 
REMARK    3  A    between atoms: C5_7  and  C6_8 
ROOT
ATOM      1  C4  <0> d          -0.014   1.209   0.009  0.00  0.00     0.222 C 
ATOM      2  O1  <0> d           0.002  -0.004   0.002  0.00  0.00    -0.273 OA
ATOM      3  N1  <0> d           1.143   1.898   0.001  0.00  0.00    -0.351 N 
ATOM      4  H6  <0> d           1.130   2.868   0.007  0.00  0.00     0.163 HD
ENDROOT
BRANCH   1   5
ATOM      5  C3  <0> d          -1.330   1.944   0.019  0.00  0.00     0.024 A 
ATOM      6  C1  <0> d          -2.180   1.853   1.287  0.00  0.00    -0.053 A 
ATOM      7  C2  <0> d          -2.609   1.105   0.022  0.00  0.00    -0.053 A 
ATOM      8  H1  <0> d          -1.789   1.261   2.114  0.00  0.00     0.034 H 
ATOM      9  H2  <0> d          -2.757   2.733   1.571  0.00  0.00     0.034 H 
ATOM     10  H3  <0> d          -3.467   1.493  -0.525  0.00  0.00     0.034 H 
ATOM     11  H4  <0> d          -2.499   0.020   0.017  0.00  0.00     0.034 H 
ATOM     12  H5  <0> d          -1.346   2.885  -0.532  0.00  0.00     0.054 H 
ENDBRANCH   1   5
BRANCH   3  13
ATOM     13  C5  <0> d           2.422   1.183  -0.015  0.00  0.00     0.075 C 
ATOM     14  H7  <0> d           2.497   0.553   0.871  0.00  0.00     0.080 H 
ATOM     15  H8  <0> d           2.480   0.562  -0.909  0.00  0.00     0.080 H 
BRANCH  13  16
ATOM     16  C6  <0> d           3.554   2.178  -0.020  0.00  0.00     0.191 C 
ATOM     17  O2  <0> d           3.317   3.363  -0.012  0.00  0.00    -0.647 OA
ATOM     18  O3  <0> d           4.825   1.748  -0.035  0.00  0.00    -0.647 OA
ENDBRANCH  13  16
ENDBRANCH   3  13
TORSDOF 3
