REMARK  1 active torsions:
REMARK  status: ('A' for Active; 'I' for Inactive)
REMARK    1  A    between atoms: C1_1  and  C2_2 
ROOT
ATOM      1  C2  <0> d          -1.203   1.618   0.017  0.00  0.00     0.011 A 
ATOM      2  C3  <0> d          -1.255   2.967   0.029  0.00  0.00    -0.026 A 
ATOM      3  C4  <0> d          -0.060   3.714   0.022  0.00  0.00     0.114 A 
ATOM      4  C5  <0> d           1.149   3.043   0.007  0.00  0.00     0.018 A 
ATOM      5  C6  <0> d           1.152   1.644  -0.000  0.00  0.00     0.248 A 
ATOM      6  O1  <0> d           2.211   1.036  -0.013  0.00  0.00    -0.268 OA
ATOM      7  N1  <0> d          -0.011   0.966   0.007  0.00  0.00    -0.328 N 
ATOM      8  H1  <0> d           0.014  -0.134   0.006  0.00  0.00     0.169 HD
ATOM      9  O2  <0> d          -0.095   5.068   0.030  0.00  0.00    -0.192 OA
ATOM     10  H5  <0> d          -2.209   3.473   0.041  0.00  0.00     0.090 H 
ATOM     11  H6  <0> d           2.079   3.592   0.002  0.00  0.00     0.096 H 
ENDROOT
BRANCH   1  12
ATOM     12  C1  <0> d          -2.485   0.825   0.018  0.00  0.00    -0.037 C 
ATOM     13  H2  <0> d          -3.342   1.514   0.026  0.00  0.00     0.035 H 
ATOM     14  H3  <0> d          -2.519   0.186   0.913  0.00  0.00     0.035 H 
ATOM     15  H4  <0> d          -2.528   0.196  -0.883  0.00  0.00     0.035 H 
ENDBRANCH   1  12
TORSDOF 1
