REMARK  5 active torsions:
REMARK  status: ('A' for Active; 'I' for Inactive)
REMARK    1  A    between atoms: C1_1  and  C2_2 
REMARK    2  A    between atoms: C2_2  and  C3_3 
REMARK    3  A    between atoms: C2_2  and  C4_4 
REMARK    4  A    between atoms: C2_2  and  C6_7 
REMARK    5  A    between atoms: C4_4  and  C5_5 
ROOT
ATOM      1  C2  <0> d          -0.018   1.503   0.010  0.00  0.00     0.050 C 
ENDROOT
BRANCH   1   2
ATOM      2  C1  <0> d          -0.758   2.010  -1.229  0.00  0.00    -0.059 C 
ATOM      3  H1  <0> d          -1.781   1.632  -1.222  0.00  0.00     0.029 H 
ATOM      4  H2  <0> d          -0.773   3.099  -1.223  0.00  0.00     0.029 H 
ATOM      5  H3  <0> d          -0.248   1.658  -2.126  0.00  0.00     0.029 H 
ENDBRANCH   1   2
BRANCH   1   6
ATOM      6  C3  <0> d          -0.735   1.996   1.269  0.00  0.00    -0.059 C 
ATOM      7  H4  <0> d          -0.207   1.635   2.152  0.00  0.00     0.029 H 
ATOM      8  H5  <0> d          -0.749   3.086   1.275  0.00  0.00     0.029 H 
ATOM      9  H6  <0> d          -1.757   1.619   1.277  0.00  0.00     0.029 H 
ENDBRANCH   1   6
BRANCH   1  10
ATOM     10  C4  <0> d           1.417   2.032  -0.001  0.00  0.00     0.031 C 
ATOM     11  H7  <0> d           1.944   1.671   0.882  0.00  0.00     0.051 H 
ATOM     12  H8  <0> d           1.927   1.681  -0.897  0.00  0.00     0.051 H 
BRANCH  10  13
ATOM     13  C5  <0> d           1.397   3.539   0.008  0.00  0.00     0.173 C 
ATOM     14  O1  <0> d           0.342   4.129   0.021  0.00  0.00    -0.648 OA
ATOM     15  O3  <0> d           2.550   4.226   0.000  0.00  0.00    -0.648 OA
ENDBRANCH  10  13
ENDBRANCH   1  10
BRANCH   1  16
ATOM     16  C6  <0> d           0.002  -0.004   0.002  0.00  0.00     0.181 C 
ATOM     17  O2  <0> d           1.056  -0.594  -0.011  0.00  0.00    -0.647 OA
ATOM     18  O4  <0> d          -1.151  -0.691   0.009  0.00  0.00    -0.647 OA
ENDBRANCH   1  16
TORSDOF 5
