REMARK  3 active torsions:
REMARK  status: ('A' for Active; 'I' for Inactive)
REMARK    1  A    between atoms: C1_1  and  C2_2 
REMARK    2  A    between atoms: C3_3  and  O1_10 
REMARK    3  A    between atoms: O1_10  and  C8_11 
ROOT
ATOM      1  C2  <0> d           0.002  -0.004   0.002  0.00  0.00     0.013 A 
ATOM      2  C3  <0> d           0.006  -0.692  -1.203  0.00  0.00     0.077 A 
ATOM      3  C4  <0> d           0.025  -2.078  -1.209  0.00  0.00    -0.047 A 
ATOM      4  C5  <0> d           0.039  -2.775  -0.015  0.00  0.00    -0.040 A 
ATOM      5  C6  <0> d           0.035  -2.090   1.187  0.00  0.00     0.155 A 
ATOM      6  C7  <0> d           0.023  -0.703   1.196  0.00  0.00     0.163 A 
ATOM      7  F1  <0> d           0.025  -0.034   2.370  0.00  0.00    -0.202 F 
ATOM      8  F2  <0> d           0.048  -2.772   2.353  0.00  0.00    -0.203 F 
ATOM      9  H4  <0> d           0.027  -2.614  -2.146  0.00  0.00     0.087 H 
ATOM     10  H5  <0> d           0.053  -3.855  -0.020  0.00  0.00     0.088 H 
ENDROOT
BRANCH   2  11
ATOM     11  O1  <0> d          -0.009  -0.006  -2.377  0.00  0.00    -0.355 OA
BRANCH  11  12
ATOM     12  C8  <0> d          -0.005  -0.779  -3.579  0.00  0.00     0.010 C 
ATOM     13  H6  <0> d          -0.018  -0.111  -4.440  0.00  0.00     0.066 H 
ATOM     14  H7  <0> d           0.894  -1.395  -3.611  0.00  0.00     0.066 H 
ATOM     15  H8  <0> d          -0.886  -1.420  -3.602  0.00  0.00     0.066 H 
ENDBRANCH  11  12
ENDBRANCH   2  11
BRANCH   1  16
ATOM     16  C1  <0> d          -0.018   1.503   0.010  0.00  0.00    -0.046 C 
ATOM     17  H1  <0> d           1.004   1.880   0.003  0.00  0.00     0.033 H 
ATOM     18  H2  <0> d          -0.545   1.864  -0.873  0.00  0.00     0.033 H 
ATOM     19  H3  <0> d          -0.529   1.854   0.907  0.00  0.00     0.033 H 
ENDBRANCH   1  16
TORSDOF 3
