REMARK  5 active torsions:
REMARK  status: ('A' for Active; 'I' for Inactive)
REMARK    1  A    between atoms: C1_1  and  C2_2 
REMARK    2  A    between atoms: C2_2  and  N1_3 
REMARK    3  A    between atoms: C2_2  and  N2_7 
REMARK       I    between atoms: N1_3  and  C3_4 
REMARK    4  A    between atoms: C3_4  and  C4_6 
REMARK       I    between atoms: N2_7  and  C5_8 
REMARK    5  A    between atoms: C5_8  and  C6_10 
ROOT
ATOM      1  C2  <0> d          -0.013   1.086   0.008  0.00  0.00     0.076 C 
ATOM      2  H4  <0> d           0.002  -0.004   0.002  0.00  0.00     0.106 H 
ENDROOT
BRANCH   1   3
ATOM      3  C1  <0> d          -0.729   1.579   1.267  0.00  0.00    -0.042 C 
ATOM      4  H1  <0> d          -1.751   1.202   1.275  0.00  0.00     0.032 H 
ATOM      5  H2  <0> d          -0.202   1.218   2.150  0.00  0.00     0.032 H 
ATOM      6  H3  <0> d          -0.744   2.669   1.273  0.00  0.00     0.032 H 
ENDBRANCH   1   3
BRANCH   1   7
ATOM      7  N1  <0> d           1.362   1.593  -0.002  0.00  0.00    -0.341 N 
ATOM      8  C3  <0> d           2.381   0.770  -0.319  0.00  0.00     0.215 C 
ATOM      9  O1  <0> d           2.161  -0.390  -0.595  0.00  0.00    -0.274 OA
ATOM     10  H5  <0> d           1.538   2.521   0.218  0.00  0.00     0.164 HD
BRANCH   8  11
ATOM     11  C4  <0> d           3.795   1.292  -0.329  0.00  0.00    -0.003 C 
ATOM     12  H6  <0> d           4.053   1.662   0.663  0.00  0.00     0.040 H 
ATOM     13  H7  <0> d           4.477   0.488  -0.606  0.00  0.00     0.040 H 
ATOM     14  H8  <0> d           3.877   2.103  -1.052  0.00  0.00     0.040 H 
ENDBRANCH   8  11
ENDBRANCH   1   7
BRANCH   1  15
ATOM     15  N2  <0> d          -0.721   1.571  -1.179  0.00  0.00    -0.341 N 
ATOM     16  C5  <0> d          -0.964   0.735  -2.208  0.00  0.00     0.215 C 
ATOM     17  O2  <0> d          -0.595  -0.419  -2.151  0.00  0.00    -0.274 OA
ATOM     18  H9  <0> d          -1.016   2.494  -1.224  0.00  0.00     0.164 HD
BRANCH  16  19
ATOM     19  C6  <0> d          -1.692   1.234  -3.429  0.00  0.00    -0.003 C 
ATOM     20  H10 <0> d          -1.942   2.287  -3.298  0.00  0.00     0.040 H 
ATOM     21  H11 <0> d          -1.055   1.118  -4.305  0.00  0.00     0.040 H 
ATOM     22  H12 <0> d          -2.608   0.659  -3.566  0.00  0.00     0.040 H 
ENDBRANCH  16  19
ENDBRANCH   1  15
TORSDOF 5
