REMARK  1 active torsions:
REMARK  status: ('A' for Active; 'I' for Inactive)
REMARK    1  A    between atoms: C1_1  and  C2_2 
ROOT
ATOM      1  C2  <0> d          -0.718   1.572   1.248  0.00  0.00    -0.060 A 
ATOM      2  C3  <0> d           0.000   1.806   2.406  0.00  0.00    -0.077 A 
ATOM      3  C4  <0> d          -0.644   2.250   3.545  0.00  0.00    -0.074 A 
ATOM      4  C5  <0> d          -2.012   2.466   3.534  0.00  0.00    -0.032 A 
ATOM      5  C6  <0> d          -2.732   2.234   2.373  0.00  0.00     0.034 A 
ATOM      6  C7  <0> d          -2.081   1.789   1.227  0.00  0.00    -0.051 A 
ATOM      7  N1  <0> d          -4.114   2.449   2.330  0.00  0.00    -0.389 N 
ATOM      8  C8  <0> d          -4.843   2.633   3.593  0.00  0.00    -0.007 C 
ATOM      9  C9  <0> d          -4.029   3.594   4.469  0.00  0.00    -0.047 C 
ATOM     10  C10 <0> d          -2.683   2.946   4.794  0.00  0.00    -0.037 C 
ATOM     11  H4  <0> d           1.067   1.641   2.421  0.00  0.00     0.084 H 
ATOM     12  H5  <0> d          -0.078   2.430   4.447  0.00  0.00     0.084 H 
ATOM     13  H6  <0> d          -2.642   1.610   0.322  0.00  0.00     0.087 H 
ATOM     14  H7  <0> d          -4.583   2.476   1.482  0.00  0.00     0.159 HD
ATOM     15  H8  <0> d          -4.952   1.674   4.099  0.00  0.00     0.064 H 
ATOM     16  H9  <0> d          -5.826   3.059   3.392  0.00  0.00     0.064 H 
ATOM     17  H10 <0> d          -4.571   3.793   5.394  0.00  0.00     0.035 H 
ATOM     18  H11 <0> d          -3.865   4.528   3.932  0.00  0.00     0.035 H 
ATOM     19  H12 <0> d          -2.843   2.100   5.462  0.00  0.00     0.040 H 
ATOM     20  H13 <0> d          -2.042   3.676   5.288  0.00  0.00     0.040 H 
ENDROOT
BRANCH   1  21
ATOM     21  C1  <0> d          -0.013   1.086   0.008  0.00  0.00    -0.051 C 
ATOM     22  H1  <0> d           0.002  -0.004   0.002  0.00  0.00     0.033 H 
ATOM     23  H2  <0> d           1.010   1.463   0.000  0.00  0.00     0.033 H 
ATOM     24  H3  <0> d          -0.540   1.447  -0.875  0.00  0.00     0.033 H 
ENDBRANCH   1  21
TORSDOF 1
