REMARK  3 active torsions:
REMARK  status: ('A' for Active; 'I' for Inactive)
REMARK    1  A    between atoms: C3_3  and  C7_9 
REMARK    2  A    between atoms: C4_4  and  N1_8 
REMARK    3  A    between atoms: C5_5  and  O1_7 
ROOT
ATOM      1  C1  <0> d          -0.078   1.257   0.040  0.00  0.00    -0.079 A 
ATOM      2  C2  <0> d           1.021   2.085   0.007  0.00  0.00    -0.064 A 
ATOM      3  C3  <0> d           2.309   1.538  -0.039  0.00  0.00     0.069 A 
ATOM      4  C4  <0> d           2.469   0.143  -0.052  0.00  0.00     0.076 A 
ATOM      5  C5  <0> d           1.344  -0.680  -0.018  0.00  0.00     0.092 A 
ATOM      6  C6  <0> d           0.080  -0.120   0.028  0.00  0.00    -0.049 A 
ATOM      7  H1  <0> d          -1.070   1.684   0.080  0.00  0.00     0.083 H 
ATOM      8  H2  <0> d           0.890   3.157   0.017  0.00  0.00     0.085 H 
ATOM      9  H3  <0> d          -0.790  -0.760   0.054  0.00  0.00     0.087 H 
ENDROOT
BRANCH   3  10
ATOM     10  C7  <0> d           3.486   2.418  -0.075  0.00  0.00     0.211 C 
ATOM     11  O2  <0> d           3.342   3.628  -0.180  0.00  0.00    -0.644 OA
ATOM     12  O3  <0> d           4.610   1.940   0.000  0.00  0.00    -0.644 OA
ENDBRANCH   3  10
BRANCH   4  13
ATOM     13  N1  <0> d           3.741  -0.414  -0.098  0.00  0.00    -0.396 N 
ATOM     14  H5  <0> d           4.523   0.156  -0.037  0.00  0.00     0.156 HD
ATOM     15  H6  <0> d           3.847  -1.374  -0.191  0.00  0.00     0.156 HD
ENDBRANCH   4  13
BRANCH   5  16
ATOM     16  O1  <0> d           1.489  -2.032  -0.030  0.00  0.00    -0.358 OA
ATOM     17  H4  <0> d           1.561  -2.428   0.849  0.00  0.00     0.217 HD
ENDBRANCH   5  16
TORSDOF 3
