REMARK  2 active torsions:
REMARK  status: ('A' for Active; 'I' for Inactive)
REMARK    1  A    between atoms: C2_2  and  C6_10 
REMARK    2  A    between atoms: C6_10  and  O3_11 
ROOT
ATOM      1  C1  <0> d          -0.013   1.076   0.008  0.00  0.00    -0.033 C 
ATOM      2  C2  <0> d          -1.336   1.784   0.031  0.00  0.00     0.141 C 
ATOM      3  H1  <0> d          -1.698   1.828   1.058  0.00  0.00     0.094 H 
ATOM      4  N1  <0> d          -1.225   3.145  -0.498  0.00  0.00    -0.059 N 
ATOM      5  C3  <0> d          -0.200   3.887   0.256  0.00  0.00     0.143 C 
ATOM      6  C4  <0> d           1.132   3.211  -0.004  0.00  0.00     0.210 C 
ATOM      7  C5  <0> d           1.147   1.737   0.000  0.00  0.00     0.152 C 
ATOM      8  O1  <0> d           2.327   1.060  -0.007  0.00  0.00    -0.188 OA
ATOM      9  O2  <0> d           2.140   3.855  -0.204  0.00  0.00    -0.288 OA
ATOM     10  H2  <0> d           0.002  -0.004   0.002  0.00  0.00     0.084 H 
ATOM     11  H3  <0> d          -0.963   3.107  -1.472  0.00  0.00     0.278 HD
ATOM     12  H4  <0> d          -0.164   4.921  -0.086  0.00  0.00     0.088 H 
ATOM     13  H5  <0> d          -0.429   3.857   1.321  0.00  0.00     0.088 H 
ATOM     14  H9  <0> d          -2.114   3.614  -0.408  0.00  0.00     0.278 HD
ENDROOT
BRANCH   2  15
ATOM     15  C6  <0> d          -2.337   0.999  -0.819  0.00  0.00     0.046 C 
ATOM     16  H6  <0> d          -2.519   0.026  -0.361  0.00  0.00     0.077 H 
ATOM     17  H7  <0> d          -3.274   1.552  -0.880  0.00  0.00     0.077 H 
BRANCH  15  18
ATOM     18  O3  <0> d          -1.806   0.815  -2.133  0.00  0.00    -0.398 OA
ATOM     19  H8  <0> d          -2.389   0.324  -2.728  0.00  0.00     0.209 HD
ENDBRANCH  15  18
ENDBRANCH   2  15
TORSDOF 2
