REMARK  1 active torsions:
REMARK  status: ('A' for Active; 'I' for Inactive)
REMARK    1  A    between atoms: C1_1  and  N1_2 
ROOT
ATOM      1  N1  <0> d           0.604   3.188   0.013  0.00  0.00    -0.284 N 
ATOM      2  C2  <0> d          -0.740   3.203   0.025  0.00  0.00     0.019 A 
ATOM      3  C3  <0> d          -1.167   1.890   0.017  0.00  0.00     0.080 A 
ATOM      4  C4  <0> d          -0.013   1.076   0.008  0.00  0.00     0.043 A 
ATOM      5  N2  <0> d           1.033   1.857   0.002  0.00  0.00    -0.184 NA
ATOM      6  C5  <0> d          -2.526   1.438   0.020  0.00  0.00     0.102 C 
ATOM      7  N3  <0> d          -3.604   1.079   0.022  0.00  0.00    -0.191 NA
ATOM      8  H4  <0> d          -1.371   4.080   0.036  0.00  0.00     0.116 H 
ATOM      9  H5  <0> d           0.002  -0.004   0.002  0.00  0.00     0.119 H 
ENDROOT
BRANCH   1  10
ATOM     10  C1  <0> d           1.472   4.368   0.011  0.00  0.00     0.002 C 
ATOM     11  H1  <0> d           1.678   4.666  -1.017  0.00  0.00     0.059 H 
ATOM     12  H2  <0> d           0.976   5.186   0.534  0.00  0.00     0.059 H 
ATOM     13  H3  <0> d           2.409   4.130   0.515  0.00  0.00     0.059 H 
ENDBRANCH   1  10
TORSDOF 1
