REMARK  1 active torsions:
REMARK  status: ('A' for Active; 'I' for Inactive)
REMARK    1  A    between atoms: C3_3  and  C6_9 
REMARK       I    between atoms: C6_9  and  N2_11 
ROOT
ATOM      1  C1  <0> d          -0.764   1.599  -1.226  0.00  0.00    -0.049 C 
ATOM      2  C2  <0> d          -0.013   1.086   0.008  0.00  0.00    -0.044 C 
ATOM      3  C3  <0> d          -0.739   1.585   1.260  0.00  0.00     0.100 C 
ATOM      4  H1  <0> d          -0.585   2.658   1.364  0.00  0.00     0.069 H 
ATOM      5  C4  <0> d          -2.210   1.300   1.143  0.00  0.00     0.230 C 
ATOM      6  O1  <0> d          -2.881   1.327   2.152  0.00  0.00    -0.273 OA
ATOM      7  N1  <0> d          -2.817   1.021  -0.011  0.00  0.00    -0.360 N 
ATOM      8  C5  <0> d          -2.128   0.909  -1.291  0.00  0.00    -0.005 C 
ATOM      9  H2  <0> d          -0.903   2.677  -1.148  0.00  0.00     0.035 H 
ATOM     10  H3  <0> d          -0.192   1.368  -2.125  0.00  0.00     0.035 H 
ATOM     11  H4  <0> d           0.002  -0.004   0.002  0.00  0.00     0.035 H 
ATOM     12  H5  <0> d           1.009   1.467   0.000  0.00  0.00     0.035 H 
ATOM     13  H6  <0> d          -3.777   0.882   0.002  0.00  0.00     0.162 HD
ATOM     14  H7  <0> d          -2.732   1.378  -2.067  0.00  0.00     0.064 H 
ATOM     15  H8  <0> d          -1.988  -0.145  -1.531  0.00  0.00     0.064 H 
ENDROOT
BRANCH   3  16
ATOM     16  C6  <0> d          -0.187   0.881   2.473  0.00  0.00     0.228 C 
ATOM     17  O2  <0> d           0.699   0.062   2.348  0.00  0.00    -0.273 OA
ATOM     18  N2  <0> d          -0.678   1.161   3.696  0.00  0.00    -0.369 N 
ATOM     19  H9  <0> d          -1.387   1.816   3.796  0.00  0.00     0.159 HD
ATOM     20  H10 <0> d          -0.323   0.708   4.477  0.00  0.00     0.159 HD
ENDBRANCH   3  16
TORSDOF 1
