REMARK  4 active torsions:
REMARK  status: ('A' for Active; 'I' for Inactive)
REMARK    1  A    between atoms: C1_1  and  C2_2 
REMARK    2  A    between atoms: C2_2  and  C3_3 
REMARK    3  A    between atoms: C3_3  and  C4_4 
REMARK    4  A    between atoms: C7_7  and  C8_9 
REMARK       I    between atoms: C8_9  and  N1_11 
ROOT
ATOM      1  C4  <0> d          -0.526   5.176   0.034  0.00  0.00     0.054 A 
ATOM      2  C5  <0> d          -1.877   5.208   0.040  0.00  0.00    -0.051 A 
ATOM      3  C6  <0> d          -2.323   3.877   0.034  0.00  0.00    -0.042 A 
ATOM      4  C7  <0> d          -1.207   3.090   0.025  0.00  0.00     0.143 A 
ATOM      5  O1  <0> d          -0.126   3.898   0.030  0.00  0.00    -0.309 OA
ATOM      6  H8  <0> d          -2.498   6.093   0.048  0.00  0.00     0.087 H 
ATOM      7  H9  <0> d          -3.349   3.541   0.037  0.00  0.00     0.088 H 
ENDROOT
BRANCH   1   8
ATOM      8  C3  <0> d           0.381   6.379   0.035  0.00  0.00    -0.021 C 
ATOM      9  H6  <0> d           1.308   6.136  -0.484  0.00  0.00     0.043 H 
ATOM     10  H7  <0> d          -0.114   7.208  -0.472  0.00  0.00     0.043 H 
BRANCH   8  11
ATOM     11  C2  <0> d           0.694   6.779   1.479  0.00  0.00    -0.063 C 
ATOM     12  H4  <0> d          -0.233   7.022   1.998  0.00  0.00     0.033 H 
ATOM     13  H5  <0> d           1.188   5.951   1.986  0.00  0.00     0.033 H 
BRANCH  11  14
ATOM     14  C1  <0> d           1.615   8.001   1.481  0.00  0.00    -0.076 C 
ATOM     15  H1  <0> d           2.542   7.758   0.962  0.00  0.00     0.027 H 
ATOM     16  H2  <0> d           1.121   8.829   0.973  0.00  0.00     0.027 H 
ATOM     17  H3  <0> d           1.838   8.286   2.509  0.00  0.00     0.027 H 
ENDBRANCH  11  14
ENDBRANCH   8  11
ENDBRANCH   1   8
BRANCH   4  18
ATOM     18  C8  <0> d          -1.187   1.624   0.017  0.00  0.00     0.273 C 
ATOM     19  O2  <0> d          -2.233   1.001   0.018  0.00  0.00    -0.266 OA
ATOM     20  N1  <0> d          -0.011   0.966   0.007  0.00  0.00    -0.364 N 
ATOM     21  H10 <0> d           0.002  -0.004   0.002  0.00  0.00     0.159 HD
ATOM     22  H11 <0> d           0.822   1.462   0.002  0.00  0.00     0.159 HD
ENDBRANCH   4  18
TORSDOF 4
