REMARK  2 active torsions:
REMARK  status: ('A' for Active; 'I' for Inactive)
REMARK    1  A    between atoms: C7_9  and  C8_11 
REMARK    2  A    between atoms: C8_11  and  C9_12 
REMARK       I    between atoms: C9_12  and  N1_14 
ROOT
ATOM      1  C1  <0> d          -0.019   1.555   0.011  0.00  0.00    -0.061 C 
ATOM      2  C2  <0> d           1.471   1.966  -0.001  0.00  0.00    -0.061 C 
ATOM      3  C3  <0> d           2.252   0.617  -0.016  0.00  0.00    -0.050 C 
ATOM      4  H1  <0> d           3.291   0.664   0.309  0.00  0.00     0.040 H 
ATOM      5  C4  <0> d           1.296  -0.281   0.846  0.00  0.00    -0.058 C 
ATOM      6  C5  <0> d           0.002  -0.004   0.002  0.00  0.00    -0.053 C 
ATOM      7  H2  <0> d          -0.909  -0.495   0.343  0.00  0.00     0.040 H 
ATOM      8  C6  <0> d           0.503  -0.380  -1.426  0.00  0.00    -0.058 C 
ATOM      9  C7  <0> d           2.011   0.041  -1.445  0.00  0.00    -0.042 C 
ATOM     10  H3  <0> d           2.199   0.806  -2.199  0.00  0.00     0.041 H 
ATOM     11  H4  <0> d          -0.508   1.923   0.913  0.00  0.00     0.033 H 
ATOM     12  H5  <0> d          -0.525   1.933  -0.878  0.00  0.00     0.033 H 
ATOM     13  H6  <0> d           1.698   2.546  -0.896  0.00  0.00     0.033 H 
ATOM     14  H7  <0> d           1.715   2.537   0.895  0.00  0.00     0.033 H 
ATOM     15  H8  <0> d           1.586  -1.332   0.817  0.00  0.00     0.034 H 
ATOM     16  H9  <0> d           1.203   0.085   1.868  0.00  0.00     0.034 H 
ATOM     17  H10 <0> d           0.404  -1.452  -1.594  0.00  0.00     0.034 H 
ATOM     18  H11 <0> d          -0.051   0.177  -2.182  0.00  0.00     0.034 H 
ENDROOT
BRANCH   9  19
ATOM     19  C8  <0> d           2.902  -1.179  -1.687  0.00  0.00     0.013 C 
ATOM     20  H12 <0> d           3.943  -0.910  -1.506  0.00  0.00     0.047 H 
ATOM     21  H13 <0> d           2.611  -1.981  -1.008  0.00  0.00     0.047 H 
BRANCH  19  22
ATOM     22  C9  <0> d           2.743  -1.643  -3.111  0.00  0.00     0.215 C 
ATOM     23  O1  <0> d           1.990  -1.056  -3.860  0.00  0.00    -0.274 OA
ATOM     24  N1  <0> d           3.436  -2.710  -3.554  0.00  0.00    -0.370 N 
ATOM     25  H14 <0> d           4.038  -3.180  -2.955  0.00  0.00     0.159 HD
ATOM     26  H15 <0> d           3.334  -3.009  -4.471  0.00  0.00     0.159 HD
ENDBRANCH  19  22
ENDBRANCH   9  19
TORSDOF 2
