REMARK  4 active torsions:
REMARK  status: ('A' for Active; 'I' for Inactive)
REMARK    1  A    between atoms: C1_1  and  C2_2 
REMARK    2  A    between atoms: C2_2  and  C3_3 
REMARK    3  A    between atoms: C4_4  and  C5_5 
REMARK    4  A    between atoms: C5_5  and  C6_6 
ROOT
ATOM      1  C3  <0> d           0.707  -0.490  -1.238  0.00  0.00    -0.107 C 
ATOM      2  C4  <0> d           1.725  -1.309  -1.134  0.00  0.00    -0.101 C 
ATOM      3  H6  <0> d           0.374  -0.163  -2.212  0.00  0.00     0.076 H 
ATOM      4  H7  <0> d           2.058  -1.635  -0.160  0.00  0.00     0.076 H 
ENDROOT
BRANCH   2   5
ATOM      5  C5  <0> d           2.430  -1.795  -2.374  0.00  0.00    -0.005 C 
ATOM      6  H8  <0> d           2.292  -2.872  -2.472  0.00  0.00     0.049 H 
ATOM      7  H9  <0> d           2.015  -1.294  -3.248  0.00  0.00     0.049 H 
BRANCH   5   8
ATOM      8  C6  <0> d           3.901  -1.485  -2.269  0.00  0.00     0.056 A 
ATOM      9  O1  <0> d           4.498  -0.358  -2.690  0.00  0.00    -0.327 OA
ATOM     10  C9  <0> d           5.815  -0.425  -2.433  0.00  0.00     0.019 A 
ATOM     11  C8  <0> d           6.073  -1.609  -1.849  0.00  0.00    -0.059 A 
ATOM     12  H12 <0> d           6.543   0.340  -2.659  0.00  0.00     0.123 H 
ATOM     13  C7  <0> d           4.840  -2.292  -1.744  0.00  0.00    -0.052 A 
ATOM     14  H11 <0> d           7.038  -1.969  -1.523  0.00  0.00     0.086 H 
ATOM     15  H10 <0> d           4.682  -3.274  -1.322  0.00  0.00     0.087 H 
ENDBRANCH   5   8
ENDBRANCH   2   5
BRANCH   1  16
ATOM     16  C2  <0> d           0.002  -0.004   0.002  0.00  0.00    -0.053 C 
ATOM     17  H4  <0> d           0.529  -0.365   0.885  0.00  0.00     0.038 H 
ATOM     18  H5  <0> d          -1.020  -0.381   0.010  0.00  0.00     0.038 H 
BRANCH  16  19
ATOM     19  C1  <0> d          -0.019   1.526   0.010  0.00  0.00    -0.073 C 
ATOM     20  H1  <0> d           1.004   1.903   0.003  0.00  0.00     0.027 H 
ATOM     21  H2  <0> d          -0.546   1.887  -0.873  0.00  0.00     0.027 H 
ATOM     22  H3  <0> d          -0.529   1.877   0.907  0.00  0.00     0.027 H 
ENDBRANCH  16  19
ENDBRANCH   1  16
TORSDOF 4
