REMARK  3 active torsions:
REMARK  status: ('A' for Active; 'I' for Inactive)
REMARK    1  A    between atoms: C1_1  and  O1_2 
REMARK    2  A    between atoms: O1_2  and  C2_3 
REMARK    3  A    between atoms: C5_6  and  N1_10 
ROOT
ATOM      1  C2  <0> d          -1.238   3.137   0.031  0.00  0.00     0.071 A 
ATOM      2  C3  <0> d          -1.218   1.750   0.017  0.00  0.00    -0.049 A 
ATOM      3  C4  <0> d          -0.013   1.076   0.008  0.00  0.00    -0.052 A 
ATOM      4  C5  <0> d           1.180   1.786   0.000  0.00  0.00     0.065 A 
ATOM      5  C6  <0> d           1.160   3.176   0.008  0.00  0.00     0.145 A 
ATOM      6  C7  <0> d          -0.048   3.849   0.023  0.00  0.00    -0.011 A 
ATOM      7  F1  <0> d           2.320   3.869   0.000  0.00  0.00    -0.204 F 
ATOM      8  H4  <0> d          -2.146   1.197   0.019  0.00  0.00     0.087 H 
ATOM      9  H5  <0> d           0.002  -0.004   0.002  0.00  0.00     0.087 H 
ATOM     10  H6  <0> d          -0.065   4.929   0.029  0.00  0.00     0.092 H 
ENDROOT
BRANCH   1  11
ATOM     11  O1  <0> d          -2.426   3.799   0.045  0.00  0.00    -0.356 OA
BRANCH  11  12
ATOM     12  C1  <0> d          -3.613   3.003   0.052  0.00  0.00     0.010 C 
ATOM     13  H1  <0> d          -3.637   2.378  -0.841  0.00  0.00     0.066 H 
ATOM     14  H2  <0> d          -3.620   2.369   0.939  0.00  0.00     0.066 H 
ATOM     15  H3  <0> d          -4.487   3.654   0.064  0.00  0.00     0.066 H 
ENDBRANCH  11  12
ENDBRANCH   1  11
BRANCH   4  16
ATOM     16  N1  <0> d           2.403   1.103  -0.015  0.00  0.00    -0.397 N 
ATOM     17  H7  <0> d           2.416   0.133  -0.021  0.00  0.00     0.156 HD
ATOM     18  H8  <0> d           3.236   1.599  -0.021  0.00  0.00     0.156 HD
ENDBRANCH   4  16
TORSDOF 3
