REMARK  0 active torsions:
REMARK  status: ('A' for Active; 'I' for Inactive)
ROOT
ATOM      1  C1  <0> d          -0.018   1.466   0.010  0.00  0.00     0.019 C 
ATOM      2  C2  <0> d           1.396   2.038  -0.000  0.00  0.00     0.019 C 
ATOM      3  N1  <0> d           2.404   0.967  -0.016  0.00  0.00    -0.301 N 
ATOM      4  S1  <0> d           1.554  -0.395  -0.486  0.00  0.00     0.315 S 
ATOM      5  O1  <0> d           1.558  -0.431  -1.906  0.00  0.00    -0.183 OA
ATOM      6  O2  <0> d           1.999  -1.476   0.322  0.00  0.00    -0.183 OA
ATOM      7  N2  <0> d           0.002  -0.004   0.002  0.00  0.00    -0.301 N 
ATOM      8  H1  <0> d          -0.536   1.812   0.904  0.00  0.00     0.067 H 
ATOM      9  H2  <0> d          -0.553   1.821  -0.871  0.00  0.00     0.067 H 
ATOM     10  H3  <0> d           1.523   2.661  -0.886  0.00  0.00     0.067 H 
ATOM     11  H4  <0> d           1.540   2.651   0.889  0.00  0.00     0.067 H 
ATOM     12  H5  <0> d           3.347   1.035   0.198  0.00  0.00     0.173 HD
ATOM     13  H6  <0> d          -0.721  -0.610   0.229  0.00  0.00     0.173 HD
ENDROOT
TORSDOF 0
