REMARK  1 active torsions:
REMARK  status: ('A' for Active; 'I' for Inactive)
REMARK    1  A    between atoms: C1_1  and  C2_2 
ROOT
ATOM      1  C2  <0> d          -0.718   1.572   1.248  0.00  0.00     0.049 A 
ATOM      2  C3  <0> d          -2.034   1.820   1.357  0.00  0.00     0.010 A 
ATOM      3  N1  <0> d          -2.278   2.246   2.660  0.00  0.00    -0.309 N 
ATOM      4  C4  <0> d          -3.350   2.648   3.427  0.00  0.00    -0.007 A 
ATOM      5  C5  <0> d          -3.182   3.005   4.699  0.00  0.00    -0.026 A 
ATOM      6  S1  <0> d          -1.423   2.789   4.915  0.00  0.00    -0.062 SA
ATOM      7  C6  <0> d          -1.050   2.233   3.268  0.00  0.00     0.177 A 
ATOM      8  N2  <0> d          -0.138   1.835   2.429  0.00  0.00    -0.228 NA
ATOM      9  H4  <0> d          -2.770   1.708   0.575  0.00  0.00     0.115 H 
ATOM     10  H5  <0> d          -4.337   2.674   2.991  0.00  0.00     0.113 H 
ATOM     11  H6  <0> d          -3.919   3.339   5.415  0.00  0.00     0.097 H 
ENDROOT
BRANCH   1  12
ATOM     12  C1  <0> d          -0.013   1.086   0.008  0.00  0.00    -0.034 C 
ATOM     13  H1  <0> d           0.002  -0.004   0.002  0.00  0.00     0.035 H 
ATOM     14  H2  <0> d           1.010   1.463   0.000  0.00  0.00     0.035 H 
ATOM     15  H3  <0> d          -0.540   1.447  -0.875  0.00  0.00     0.035 H 
ENDBRANCH   1  12
TORSDOF 1
