REMARK  7 active torsions:
REMARK  status: ('A' for Active; 'I' for Inactive)
REMARK    1  A    between atoms: C1_1  and  C2_2 
REMARK    2  A    between atoms: C2_2  and  C3_3 
REMARK    3  A    between atoms: C3_3  and  O1_4 
REMARK    4  A    between atoms: O1_4  and  C4_5 
REMARK    5  A    between atoms: C4_5  and  C5_7 
REMARK    6  A    between atoms: C5_7  and  C6_9 
REMARK    7  A    between atoms: C5_7  and  O3_10 
ROOT
ATOM      1  O1  <0> d           1.139   1.891   0.001  0.00  0.00    -0.320 OA
ENDROOT
BRANCH   1   2
ATOM      2  C3  <0> d           2.367   1.117  -0.015  0.00  0.00     0.029 C 
ATOM      3  H7  <0> d           2.409   0.484   0.872  0.00  0.00     0.075 H 
ATOM      4  H8  <0> d           2.392   0.493  -0.908  0.00  0.00     0.075 H 
BRANCH   2   5
ATOM      5  C2  <0> d           3.568   2.065  -0.021  0.00  0.00    -0.048 C 
ATOM      6  H5  <0> d           3.526   2.698  -0.907  0.00  0.00     0.035 H 
ATOM      7  H6  <0> d           3.543   2.689   0.873  0.00  0.00     0.035 H 
BRANCH   5   8
ATOM      8  C1  <0> d           4.862   1.250  -0.038  0.00  0.00    -0.075 C 
ATOM      9  H2  <0> d           5.717   1.925  -0.042  0.00  0.00     0.027 H 
ATOM     10  H3  <0> d           4.904   0.616   0.849  0.00  0.00     0.027 H 
ATOM     11  H4  <0> d           4.887   0.626  -0.931  0.00  0.00     0.027 H 
ENDBRANCH   5   8
ENDBRANCH   2   5
ENDBRANCH   1   2
BRANCH   1  12
ATOM     12  C4  <0> d          -0.014   1.204   0.009  0.00  0.00     0.287 C 
ATOM     13  O2  <0> d           0.002  -0.004   0.002  0.00  0.00    -0.262 OA
BRANCH  12  14
ATOM     14  C5  <0> d          -1.329   1.940   0.019  0.00  0.00     0.115 C 
ATOM     15  H1  <0> d          -1.400   2.570  -0.867  0.00  0.00     0.098 H 
BRANCH  14  16
ATOM     16  C6  <0> d          -1.417   2.811   1.273  0.00  0.00    -0.044 C 
ATOM     17  H9  <0> d          -0.598   3.531   1.273  0.00  0.00     0.031 H 
ATOM     18  H10 <0> d          -2.368   3.344   1.281  0.00  0.00     0.031 H 
ATOM     19  H11 <0> d          -1.346   2.181   2.160  0.00  0.00     0.031 H 
ENDBRANCH  14  16
BRANCH  14  20
ATOM     20  O3  <0> d          -2.403   0.997   0.019  0.00  0.00    -0.386 OA
ATOM     21  H12 <0> d          -3.281   1.400   0.025  0.00  0.00     0.210 HD
ENDBRANCH  14  20
ENDBRANCH  12  14
ENDBRANCH   1  12
TORSDOF 7
