REMARK  5 active torsions:
REMARK  status: ('A' for Active; 'I' for Inactive)
REMARK    1  A    between atoms: C1_1  and  N1_2 
REMARK    2  A    between atoms: N1_2  and  S1_3 
REMARK    3  A    between atoms: S1_3  and  N2_6 
REMARK    4  A    between atoms: N2_6  and  C2_7 
REMARK    5  A    between atoms: N2_6  and  C3_8 
ROOT
ATOM      1  S1  <0> d           1.412   1.813  -0.002  0.00  0.00     0.315 S 
ATOM      2  O1  <0> d           2.457   0.851   0.010  0.00  0.00    -0.183 OA
ATOM      3  O2  <0> d           1.292   2.796  -1.021  0.00  0.00    -0.183 OA
ENDROOT
BRANCH   1   4
ATOM      4  N1  <0> d          -0.011   0.966   0.007  0.00  0.00    -0.307 N 
ATOM      5  H4  <0> d           0.002  -0.004   0.002  0.00  0.00     0.173 HD
BRANCH   4   6
ATOM      6  C1  <0> d          -1.290   1.681   0.017  0.00  0.00    -0.010 C 
ATOM      7  H1  <0> d          -1.352   2.302   0.911  0.00  0.00     0.057 H 
ATOM      8  H2  <0> d          -1.360   2.312  -0.869  0.00  0.00     0.057 H 
ATOM      9  H3  <0> d          -2.108   0.962   0.017  0.00  0.00     0.057 H 
ENDBRANCH   4   6
ENDBRANCH   1   4
BRANCH   1  10
ATOM     10  N2  <0> d           1.504   2.631   1.436  0.00  0.00    -0.303 N 
BRANCH  10  11
ATOM     11  C2  <0> d           2.138   2.001   2.597  0.00  0.00    -0.008 C 
ATOM     12  H5  <0> d           3.202   2.239   2.603  0.00  0.00     0.057 H 
ATOM     13  H6  <0> d           1.677   2.376   3.510  0.00  0.00     0.057 H 
ATOM     14  H7  <0> d           2.007   0.921   2.541  0.00  0.00     0.057 H 
ENDBRANCH  10  11
BRANCH  10  15
ATOM     15  C3  <0> d           0.951   3.983   1.546  0.00  0.00    -0.008 C 
ATOM     16  H8  <0> d           0.524   4.280   0.588  0.00  0.00     0.057 H 
ATOM     17  H9  <0> d           0.174   3.996   2.310  0.00  0.00     0.057 H 
ATOM     18  H10 <0> d           1.744   4.678   1.822  0.00  0.00     0.057 H 
ENDBRANCH  10  15
ENDBRANCH   1  10
TORSDOF 5
