REMARK  0 active torsions:
REMARK  status: ('A' for Active; 'I' for Inactive)
ROOT
ATOM      1  C1  <0> d           1.412   2.066  -0.000  0.00  0.00    -0.064 C 
ATOM      2  C2  <0> d          -0.019   1.527   0.010  0.00  0.00    -0.063 C 
ATOM      3  C3  <0> d           0.002  -0.004   0.002  0.00  0.00    -0.040 C 
ATOM      4  C4  <0> d           0.728  -0.486  -1.253  0.00  0.00     0.046 C 
ATOM      5  H1  <0> d           0.219  -0.101  -2.137  0.00  0.00     0.084 H 
ATOM      6  C5  <0> d           2.170   0.035  -1.227  0.00  0.00    -0.008 C 
ATOM      7  H2  <0> d           2.667  -0.313  -0.322  0.00  0.00     0.047 H 
ATOM      8  C6  <0> d           2.148   1.563  -1.245  0.00  0.00    -0.058 C 
ATOM      9  C7  <0> d           2.905  -0.504  -2.456  0.00  0.00     0.028 C 
ATOM     10  O1  <0> d           2.800  -1.933  -2.455  0.00  0.00    -0.366 OA
ATOM     11  C8  <0> d           1.457  -2.421  -2.447  0.00  0.00     0.103 C 
ATOM     12  O2  <0> d           0.759  -1.912  -1.305  0.00  0.00    -0.361 OA
ATOM     13  H3  <0> d           1.389   3.156  -0.009  0.00  0.00     0.033 H 
ATOM     14  H4  <0> d           1.935   1.724   0.893  0.00  0.00     0.033 H 
ATOM     15  H5  <0> d          -0.548   1.887  -0.872  0.00  0.00     0.033 H 
ATOM     16  H6  <0> d          -0.531   1.878   0.906  0.00  0.00     0.033 H 
ATOM     17  H7  <0> d           0.524  -0.366   0.887  0.00  0.00     0.036 H 
ATOM     18  H8  <0> d          -1.020  -0.383   0.001  0.00  0.00     0.036 H 
ATOM     19  H9  <0> d           3.170   1.942  -1.243  0.00  0.00     0.033 H 
ATOM     20  H10 <0> d           1.633   1.910  -2.141  0.00  0.00     0.033 H 
ATOM     21  H11 <0> d           3.955  -0.215  -2.411  0.00  0.00     0.075 H 
ATOM     22  H12 <0> d           2.454  -0.104  -3.364  0.00  0.00     0.075 H 
ATOM     23  H13 <0> d           1.468  -3.510  -2.408  0.00  0.00     0.117 H 
ATOM     24  H14 <0> d           0.950  -2.096  -3.355  0.00  0.00     0.117 H 
ENDROOT
TORSDOF 0
