REMARK  1 active torsions:
REMARK  status: ('A' for Active; 'I' for Inactive)
REMARK    1  A    between atoms: C1_1  and  C2_2 
ROOT
ATOM      1  C2  <0> d           0.002  -0.004   0.002  0.00  0.00    -0.051 C 
ATOM      2  H1  <0> d          -1.020  -0.382   0.009  0.00  0.00     0.040 H 
ATOM      3  C3  <0> d           0.720  -0.498  -1.256  0.00  0.00    -0.061 C 
ATOM      4  C4  <0> d           0.667  -2.025  -1.317  0.00  0.00    -0.059 C 
ATOM      5  C5  <0> d           1.433  -2.609  -0.125  0.00  0.00    -0.010 C 
ATOM      6  C6  <0> d           0.868  -2.016   1.147  0.00  0.00     0.127 C 
ATOM      7  O1  <0> d           0.525  -2.726   2.062  0.00  0.00    -0.298 OA
ATOM      8  C7  <0> d           0.743  -0.512   1.243  0.00  0.00    -0.007 C 
ATOM      9  H5  <0> d           0.232  -0.083  -2.137  0.00  0.00     0.033 H 
ATOM     10  H6  <0> d           1.759  -0.172  -1.231  0.00  0.00     0.033 H 
ATOM     11  H7  <0> d           1.123  -2.368  -2.245  0.00  0.00     0.033 H 
ATOM     12  H8  <0> d          -0.371  -2.355  -1.278  0.00  0.00     0.033 H 
ATOM     13  H9  <0> d           2.403  -2.380  -0.208  0.00  0.00     0.044 H 
ATOM     14  H10 <0> d           1.317  -3.693  -0.107  0.00  0.00     0.044 H 
ATOM     15  H11 <0> d           1.651  -0.096   1.283  0.00  0.00     0.044 H 
ATOM     16  H12 <0> d           0.182  -0.245   2.139  0.00  0.00     0.044 H 
ENDROOT
BRANCH   1  17
ATOM     17  C1  <0> d          -0.019   1.526   0.010  0.00  0.00    -0.073 C 
ATOM     18  H2  <0> d           1.004   1.903   0.003  0.00  0.00     0.028 H 
ATOM     19  H3  <0> d          -0.546   1.887  -0.873  0.00  0.00     0.028 H 
ATOM     20  H4  <0> d          -0.529   1.877   0.907  0.00  0.00     0.028 H 
ENDBRANCH   1  17
TORSDOF 1
