REMARK  6 active torsions:
REMARK  status: ('A' for Active; 'I' for Inactive)
REMARK    1  A    between atoms: C1_1  and  C2_2 
REMARK    2  A    between atoms: C3_4  and  C7_11 
REMARK    3  A    between atoms: N2_5  and  C4_7 
REMARK    4  A    between atoms: C4_7  and  C5_8 
REMARK    5  A    between atoms: C5_8  and  C6_9 
REMARK    6  A    between atoms: C6_9  and  O1_10 
ROOT
ATOM      1  C2  <0> d           0.002  -0.004   0.002  0.00  0.00     0.144 A 
ATOM      2  N1  <0> d           0.008  -0.772  -1.087  0.00  0.00    -0.218 NA
ATOM      3  C3  <0> d           0.027  -2.034  -0.740  0.00  0.00     0.120 A 
ATOM      4  N2  <0> d           0.033  -2.097   0.603  0.00  0.00    -0.255 N 
ATOM      5  N3  <0> d           0.022  -0.769   1.062  0.00  0.00    -0.156 NA
ENDROOT
BRANCH   4   6
ATOM      6  C4  <0> d           0.053  -3.309   1.425  0.00  0.00     0.020 C 
ATOM      7  H4  <0> d          -0.460  -3.118   2.368  0.00  0.00     0.067 H 
ATOM      8  H5  <0> d          -0.452  -4.116   0.894  0.00  0.00     0.067 H 
BRANCH   6   9
ATOM      9  C5  <0> d           1.502  -3.712   1.705  0.00  0.00    -0.029 C 
ATOM     10  H6  <0> d           2.015  -3.904   0.763  0.00  0.00     0.038 H 
ATOM     11  H7  <0> d           2.007  -2.905   2.236  0.00  0.00     0.038 H 
BRANCH   9  12
ATOM     12  C6  <0> d           1.523  -4.978   2.564  0.00  0.00     0.018 C 
ATOM     13  H8  <0> d           1.010  -4.787   3.506  0.00  0.00     0.074 H 
ATOM     14  H9  <0> d           1.018  -5.785   2.033  0.00  0.00     0.074 H 
BRANCH  12  15
ATOM     15  O1  <0> d           2.876  -5.354   2.825  0.00  0.00    -0.401 OA
ATOM     16  H10 <0> d           2.966  -6.151   3.366  0.00  0.00     0.209 HD
ENDBRANCH  12  15
ENDBRANCH   9  12
ENDBRANCH   6   9
ENDBRANCH   4   6
BRANCH   3  17
ATOM     17  C7  <0> d           0.038  -3.210  -1.681  0.00  0.00    -0.020 C 
ATOM     18  H11 <0> d           1.069  -3.481  -1.912  0.00  0.00     0.037 H 
ATOM     19  H12 <0> d          -0.463  -4.057  -1.211  0.00  0.00     0.037 H 
ATOM     20  H13 <0> d          -0.483  -2.945  -2.601  0.00  0.00     0.037 H 
ENDBRANCH   3  17
BRANCH   1  21
ATOM     21  C1  <0> d          -0.018   1.503   0.010  0.00  0.00    -0.018 C 
ATOM     22  H1  <0> d           1.004   1.880   0.003  0.00  0.00     0.038 H 
ATOM     23  H2  <0> d          -0.545   1.864  -0.873  0.00  0.00     0.038 H 
ATOM     24  H3  <0> d          -0.529   1.854   0.907  0.00  0.00     0.038 H 
ENDBRANCH   1  21
TORSDOF 6
