REMARK  1 active torsions:
REMARK  status: ('A' for Active; 'I' for Inactive)
REMARK    1  A    between atoms: C1_1  and  C2_2 
ROOT
ATOM      1  C2  <0> d           0.002  -0.004   0.002  0.00  0.00     0.245 A 
ATOM      2  H1  <0> d           0.500  -0.366  -0.898  0.00  0.00     0.107 H 
ATOM      3  C3  <0> d          -1.406  -0.540   0.065  0.00  0.00     0.255 A 
ATOM      4  O1  <0> d          -2.274  -0.335  -0.757  0.00  0.00    -0.271 OA
ATOM      5  N1  <0> d          -1.545  -1.283   1.177  0.00  0.00    -0.322 N 
ATOM      6  C4  <0> d          -0.293  -1.306   1.925  0.00  0.00     0.272 A 
ATOM      7  N2  <0> d           0.696  -0.505   1.198  0.00  0.00     0.350 N 
ATOM      8  C5  <0> d          -0.501  -0.736   3.339  0.00  0.00    -0.011 C 
ATOM      9  C6  <0> d          -0.704  -1.990   4.227  0.00  0.00    -0.061 C 
ATOM     10  C7  <0> d           0.290  -3.007   3.614  0.00  0.00    -0.061 C 
ATOM     11  C8  <0> d           0.209  -2.748   2.094  0.00  0.00    -0.011 C 
ATOM     12  H5  <0> d          -2.360  -1.736   1.444  0.00  0.00     0.165 HD
ATOM     13  H6  <0> d           0.379  -0.179   3.660  0.00  0.00     0.039 H 
ATOM     14  H7  <0> d          -1.387  -0.101   3.368  0.00  0.00     0.039 H 
ATOM     15  H8  <0> d          -0.445  -1.774   5.264  0.00  0.00     0.033 H 
ATOM     16  H9  <0> d          -1.727  -2.356   4.151  0.00  0.00     0.033 H 
ATOM     17  H10 <0> d           1.301  -2.821   3.979  0.00  0.00     0.033 H 
ATOM     18  H11 <0> d          -0.017  -4.027   3.844  0.00  0.00     0.033 H 
ATOM     19  H12 <0> d          -0.492  -3.444   1.633  0.00  0.00     0.039 H 
ATOM     20  H13 <0> d           1.195  -2.856   1.643  0.00  0.00     0.039 H 
ENDROOT
BRANCH   1  21
ATOM     21  C1  <0> d          -0.019   1.526   0.010  0.00  0.00    -0.036 C 
ATOM     22  H2  <0> d           1.004   1.903   0.003  0.00  0.00     0.031 H 
ATOM     23  H3  <0> d          -0.546   1.887  -0.873  0.00  0.00     0.031 H 
ATOM     24  H4  <0> d          -0.529   1.877   0.907  0.00  0.00     0.031 H 
ENDBRANCH   1  21
TORSDOF 1
