REMARK  2 active torsions:
REMARK  status: ('A' for Active; 'I' for Inactive)
REMARK    1  A    between atoms: C1_1  and  C2_2 
REMARK    2  A    between atoms: C3_4  and  C5_13 
ROOT
ATOM      1  C2  <0> d           0.002  -0.004   0.002  0.00  0.00     0.039 C 
ATOM      2  H1  <0> d          -1.019  -0.386   0.010  0.00  0.00     0.075 H 
ATOM      3  C3  <0> d           0.734  -0.506  -1.249  0.00  0.00     0.029 C 
ATOM      4  H2  <0> d           0.762  -1.595  -1.239  0.00  0.00     0.069 H 
ATOM      5  N1  <0> d           2.109   0.017  -1.274  0.00  0.00    -0.194 NA
ATOM      6  N2  <0> d           2.743  -0.211  -0.092  0.00  0.00     0.003 N 
ATOM      7  C4  <0> d           2.117  -0.459   1.087  0.00  0.00     0.755 A 
ATOM      8  N3  <0> d           3.038  -0.627   1.992  0.00  0.00     0.066 NA
ATOM      9  N4  <0> d           4.208  -0.502   1.465  0.00  0.00    -0.007 NA
ATOM     10  N5  <0> d           4.108  -0.249   0.201  0.00  0.00    -0.013 NA
ATOM     11  N6  <0> d           0.731  -0.501   1.190  0.00  0.00    -0.214 N 
ATOM     12  H6  <0> d           2.630  -0.373  -2.045  0.00  0.00     0.149 HD
ATOM     13  H7  <0> d           0.276  -0.831   1.980  0.00  0.00     0.178 HD
ENDROOT
BRANCH   1  14
ATOM     14  C1  <0> d          -0.019   1.526   0.010  0.00  0.00    -0.055 C 
ATOM     15  H3  <0> d           1.004   1.903   0.003  0.00  0.00     0.030 H 
ATOM     16  H4  <0> d          -0.546   1.887  -0.873  0.00  0.00     0.030 H 
ATOM     17  H5  <0> d          -0.529   1.877   0.907  0.00  0.00     0.030 H 
ENDBRANCH   1  14
BRANCH   3  18
ATOM     18  C5  <0> d          -0.010  -0.028  -2.498  0.00  0.00    -0.058 C 
ATOM     19  H8  <0> d          -0.042   1.061  -2.507  0.00  0.00     0.029 H 
ATOM     20  H9  <0> d           0.509  -0.384  -3.388  0.00  0.00     0.029 H 
ATOM     21  H10 <0> d          -1.026  -0.422  -2.488  0.00  0.00     0.029 H 
ENDBRANCH   3  18
TORSDOF 2
