REMARK  3 active torsions:
REMARK  status: ('A' for Active; 'I' for Inactive)
REMARK    1  A    between atoms: C1_1  and  C2_2 
REMARK    2  A    between atoms: C2_2  and  C3_3 
REMARK    3  A    between atoms: C7_8  and  O1_11 
ROOT
ATOM      1  C3  <0> d           1.402   3.145   0.006  0.00  0.00    -0.052 C 
ATOM      2  H1  <0> d           0.875   3.506  -0.877  0.00  0.00     0.040 H 
ATOM      3  C4  <0> d           0.686   3.639   1.264  0.00  0.00    -0.061 C 
ATOM      4  C5  <0> d          -0.750   3.109   1.275  0.00  0.00    -0.062 C 
ATOM      5  C6  <0> d          -0.729   1.579   1.267  0.00  0.00    -0.041 C 
ATOM      6  C7  <0> d          -0.013   1.086   0.008  0.00  0.00     0.036 C 
ATOM      7  H2  <0> d           0.002  -0.004   0.002  0.00  0.00     0.082 H 
ATOM      8  C8  <0> d           1.423   1.615  -0.003  0.00  0.00    -0.038 C 
ATOM      9  H8  <0> d           1.213   3.278   2.147  0.00  0.00     0.033 H 
ATOM     10  H9  <0> d           0.671   4.729   1.270  0.00  0.00     0.033 H 
ATOM     11  H10 <0> d          -1.260   3.461   2.172  0.00  0.00     0.033 H 
ATOM     12  H11 <0> d          -1.277   3.470   0.392  0.00  0.00     0.033 H 
ATOM     13  H12 <0> d          -1.751   1.202   1.275  0.00  0.00     0.036 H 
ATOM     14  H13 <0> d          -0.202   1.218   2.150  0.00  0.00     0.036 H 
ATOM     15  H14 <0> d           1.950   1.254   0.880  0.00  0.00     0.037 H 
ATOM     16  H15 <0> d           1.933   1.264  -0.900  0.00  0.00     0.037 H 
ENDROOT
BRANCH   1  17
ATOM     17  C2  <0> d           2.837   3.675  -0.005  0.00  0.00    -0.065 C 
ATOM     18  H6  <0> d           3.337   3.388   0.920  0.00  0.00     0.033 H 
ATOM     19  H7  <0> d           3.374   3.252  -0.855  0.00  0.00     0.033 H 
BRANCH  17  20
ATOM     20  C1  <0> d           2.817   5.200  -0.123  0.00  0.00    -0.076 C 
ATOM     21  H3  <0> d           2.280   5.623   0.727  0.00  0.00     0.027 H 
ATOM     22  H4  <0> d           3.840   5.577  -0.130  0.00  0.00     0.027 H 
ATOM     23  H5  <0> d           2.317   5.487  -1.048  0.00  0.00     0.027 H 
ENDBRANCH  17  20
ENDBRANCH   1  17
BRANCH   6  24
ATOM     24  O1  <0> d          -0.704   1.559  -1.150  0.00  0.00    -0.396 OA
ATOM     25  H16 <0> d          -1.622   1.262  -1.209  0.00  0.00     0.210 HD
ENDBRANCH   6  24
TORSDOF 3
