REMARK  3 active torsions:
REMARK  status: ('A' for Active; 'I' for Inactive)
REMARK    1  A    between atoms: C1_1  and  S1_2 
REMARK    2  A    between atoms: S1_2  and  C2_3 
REMARK    3  A    between atoms: C5_6  and  N2_9 
ROOT
ATOM      1  C2  <0> d          -1.702  -0.454   0.016  0.00  0.00     0.017 A 
ATOM      2  C3  <0> d          -2.077  -1.797   0.018  0.00  0.00    -0.062 A 
ATOM      3  C4  <0> d          -3.426  -2.103   0.030  0.00  0.00    -0.038 A 
ATOM      4  C5  <0> d          -4.356  -1.069   0.038  0.00  0.00     0.120 A 
ATOM      5  N1  <0> d          -3.963   0.195   0.036  0.00  0.00    -0.243 NA
ATOM      6  C6  <0> d          -2.686   0.524   0.030  0.00  0.00     0.021 A 
ATOM      7  H4  <0> d          -1.333  -2.579   0.011  0.00  0.00     0.085 H 
ATOM      8  H5  <0> d          -3.752  -3.133   0.031  0.00  0.00     0.089 H 
ATOM      9  H6  <0> d          -2.403   1.566   0.033  0.00  0.00     0.117 H 
ENDROOT
BRANCH   1  10
ATOM     10  S1  <0> d           0.002  -0.004   0.002  0.00  0.00    -0.133 SA
BRANCH  10  11
ATOM     11  C1  <0> d          -0.022   1.810   0.012  0.00  0.00    -0.030 C 
ATOM     12  H1  <0> d           1.000   2.187   0.004  0.00  0.00     0.042 H 
ATOM     13  H2  <0> d          -0.550   2.171  -0.871  0.00  0.00     0.042 H 
ATOM     14  H3  <0> d          -0.533   2.161   0.909  0.00  0.00     0.042 H 
ENDBRANCH  10  11
ENDBRANCH   1  10
BRANCH   4  15
ATOM     15  N2  <0> d          -5.717  -1.367   0.050  0.00  0.00    -0.384 N 
ATOM     16  H7  <0> d          -6.011  -2.292   0.051  0.00  0.00     0.157 HD
ATOM     17  H8  <0> d          -6.370  -0.651   0.056  0.00  0.00     0.157 HD
ENDBRANCH   4  15
TORSDOF 3
