REMARK  2 active torsions:
REMARK  status: ('A' for Active; 'I' for Inactive)
REMARK    1  A    between atoms: C1_1  and  C2_2 
REMARK    2  A    between atoms: C2_2  and  N1_3 
REMARK       I    between atoms: N1_3  and  C3_4 
REMARK       I    between atoms: C3_4  and  N2_6 
ROOT
ATOM      1  N1  <0> d          -1.372  -0.511   0.017  0.00  0.00    -0.343 N 
ATOM      2  C3  <0> d          -1.601  -1.839   0.007  0.00  0.00     0.318 C 
ATOM      3  O1  <0> d          -0.671  -2.616  -0.101  0.00  0.00    -0.247 OA
ATOM      4  N2  <0> d          -2.860  -2.307   0.119  0.00  0.00    -0.330 N 
ATOM      5  C4  <0> d          -4.010  -1.390   0.131  0.00  0.00     0.019 C 
ATOM      6  C5  <0> d          -5.033  -1.883  -0.899  0.00  0.00     0.034 C 
ATOM      7  O2  <0> d          -5.318  -3.263  -0.656  0.00  0.00    -0.388 OA
ATOM      8  C6  <0> d          -4.190  -4.128  -0.804  0.00  0.00     0.034 C 
ATOM      9  C7  <0> d          -3.125  -3.751   0.225  0.00  0.00     0.019 C 
ATOM     10  H6  <0> d          -2.117   0.109   0.031  0.00  0.00     0.164 HD
ATOM     11  H7  <0> d          -4.463  -1.382   1.122  0.00  0.00     0.067 H 
ATOM     12  H8  <0> d          -3.681  -0.385  -0.131  0.00  0.00     0.067 H 
ATOM     13  H9  <0> d          -5.949  -1.300  -0.810  0.00  0.00     0.076 H 
ATOM     14  H10 <0> d          -4.623  -1.767  -1.903  0.00  0.00     0.076 H 
ATOM     15  H11 <0> d          -4.501  -5.161  -0.646  0.00  0.00     0.076 H 
ATOM     16  H12 <0> d          -3.777  -4.021  -1.807  0.00  0.00     0.076 H 
ATOM     17  H13 <0> d          -2.209  -4.308   0.026  0.00  0.00     0.067 H 
ATOM     18  H14 <0> d          -3.487  -3.985   1.227  0.00  0.00     0.067 H 
ENDROOT
BRANCH   1  19
ATOM     19  C2  <0> d           0.003  -0.005   0.006  0.00  0.00    -0.006 C 
ATOM     20  H4  <0> d           0.511  -0.353  -0.893  0.00  0.00     0.063 H 
ATOM     21  H5  <0> d           0.531  -0.369   0.887  0.00  0.00     0.063 H 
BRANCH  19  22
ATOM     22  C1  <0> d          -0.018   1.525   0.020  0.00  0.00    -0.061 C 
ATOM     23  H1  <0> d           1.005   1.902   0.012  0.00  0.00     0.029 H 
ATOM     24  H2  <0> d          -0.546   1.890  -0.861  0.00  0.00     0.029 H 
ATOM     25  H3  <0> d          -0.526   1.874   0.919  0.00  0.00     0.029 H 
ENDBRANCH  19  22
ENDBRANCH   1  19
TORSDOF 2
