REMARK  6 active torsions:
REMARK  status: ('A' for Active; 'I' for Inactive)
REMARK    1  A    between atoms: C1_1  and  C2_2 
REMARK    2  A    between atoms: C2_2  and  C3_3 
REMARK    3  A    between atoms: C3_3  and  C4_4 
REMARK    4  A    between atoms: C4_4  and  C5_6 
REMARK    5  A    between atoms: C5_6  and  C6_7 
REMARK    6  A    between atoms: C6_7  and  O1_8 
ROOT
ATOM      1  C4  <0> d           0.763  -2.041   1.233  0.00  0.00     0.143 C 
ATOM      2  H1  <0> d          -0.257  -2.417   1.151  0.00  0.00     0.101 H 
ATOM      3  F3  <0> d           1.515  -2.491   0.143  0.00  0.00    -0.243 F 
ENDROOT
BRANCH   1   4
ATOM      4  C3  <0> d           0.742  -0.511   1.242  0.00  0.00    -0.031 C 
ATOM      5  H7  <0> d           1.765  -0.134   1.234  0.00  0.00     0.037 H 
ATOM      6  H8  <0> d           0.232  -0.159   2.138  0.00  0.00     0.037 H 
BRANCH   4   7
ATOM      7  C2  <0> d           0.002  -0.004   0.002  0.00  0.00    -0.066 C 
ATOM      8  H5  <0> d          -1.020  -0.381   0.010  0.00  0.00     0.032 H 
ATOM      9  H6  <0> d           0.512  -0.356  -0.895  0.00  0.00     0.032 H 
BRANCH   7  10
ATOM     10  C1  <0> d          -0.019   1.526   0.010  0.00  0.00    -0.076 C 
ATOM     11  H2  <0> d           1.004   1.903   0.003  0.00  0.00     0.027 H 
ATOM     12  H3  <0> d          -0.546   1.887  -0.873  0.00  0.00     0.027 H 
ATOM     13  H4  <0> d          -0.529   1.877   0.907  0.00  0.00     0.027 H 
ENDBRANCH   7  10
ENDBRANCH   4   7
ENDBRANCH   1   4
BRANCH   1  14
ATOM     14  C5  <0> d           1.392  -2.549   2.532  0.00  0.00     0.294 C 
ATOM     15  F1  <0> d           2.700  -2.066   2.637  0.00  0.00    -0.201 F 
ATOM     16  F2  <0> d           0.639  -2.099   3.622  0.00  0.00    -0.201 F 
BRANCH  14  17
ATOM     17  C6  <0> d           1.413  -4.079   2.523  0.00  0.00     0.080 C 
ATOM     18  H9  <0> d           1.861  -4.442   3.449  0.00  0.00     0.083 H 
ATOM     19  H10 <0> d           0.393  -4.456   2.442  0.00  0.00     0.083 H 
BRANCH  17  20
ATOM     20  O1  <0> d           2.181  -4.539   1.410  0.00  0.00    -0.395 OA
ATOM     21  H11 <0> d           2.237  -5.502   1.342  0.00  0.00     0.209 HD
ENDBRANCH  17  20
ENDBRANCH  14  17
ENDBRANCH   1  14
TORSDOF 6
