REMARK  0 active torsions:
REMARK  status: ('A' for Active; 'I' for Inactive)
ROOT
ATOM      1  C1  <0> d          -0.401   1.679   1.353  0.00  0.00    -0.040 C 
ATOM      2  C2  <0> d           0.866   1.367   2.167  0.00  0.00    -0.105 C 
ATOM      3  C3  <0> d           1.906   1.382   1.333  0.00  0.00    -0.101 C 
ATOM      4  C4  <0> d           1.426   1.762  -0.002  0.00  0.00    -0.021 C 
ATOM      5  H1  <0> d           1.371   2.848  -0.076  0.00  0.00     0.048 H 
ATOM      6  C5  <0> d          -0.013   1.086   0.008  0.00  0.00     0.014 C 
ATOM      7  H2  <0> d          -0.347   0.145  -0.051  0.00  0.00     0.053 H 
ATOM      8  C6  <0> d           0.002   1.698  -1.333  0.00  0.00     0.132 C 
ATOM      9  O1  <0> d          -0.741   2.319  -2.054  0.00  0.00    -0.298 OA
ATOM     10  C7  <0> d           1.446   1.145  -1.353  0.00  0.00    -0.002 C 
ATOM     11  H3  <0> d          -0.568   2.753   1.278  0.00  0.00     0.040 H 
ATOM     12  H4  <0> d          -1.272   1.174   1.771  0.00  0.00     0.040 H 
ATOM     13  H5  <0> d           0.906   1.170   3.228  0.00  0.00     0.076 H 
ATOM     14  H6  <0> d           2.929   1.154   1.595  0.00  0.00     0.077 H 
ATOM     15  H7  <0> d           2.198   1.532  -1.886  0.00  0.00     0.045 H 
ATOM     16  H8  <0> d           1.518   0.057  -1.357  0.00  0.00     0.045 H 
ENDROOT
TORSDOF 0
