REMARK  0 active torsions:
REMARK  status: ('A' for Active; 'I' for Inactive)
ROOT
ATOM      1  C1  <0> d           0.229   1.929   4.891  0.00  0.00    -0.082 A 
ATOM      2  C2  <0> d          -0.977   2.463   5.325  0.00  0.00    -0.081 A 
ATOM      3  C3  <0> d          -2.010   2.677   4.439  0.00  0.00    -0.056 A 
ATOM      4  C4  <0> d          -1.845   2.357   3.095  0.00  0.00     0.043 A 
ATOM      5  C5  <0> d          -0.621   1.818   2.661  0.00  0.00    -0.001 A 
ATOM      6  C6  <0> d           0.413   1.608   3.576  0.00  0.00    -0.070 A 
ATOM      7  C7  <0> d          -0.764   1.595   1.218  0.00  0.00    -0.023 A 
ATOM      8  C8  <0> d          -2.002   1.988   0.873  0.00  0.00     0.017 A 
ATOM      9  N1  <0> d          -2.665   2.448   1.987  0.00  0.00    -0.358 N 
ATOM     10  H1  <0> d          -3.574   2.787   1.992  0.00  0.00     0.166 HD
ATOM     11  C9  <0> d          -2.219   1.785  -0.614  0.00  0.00    -0.026 C 
ATOM     12  C10 <0> d          -0.803   1.619  -1.207  0.00  0.00    -0.056 C 
ATOM     13  C11 <0> d          -0.013   1.086   0.008  0.00  0.00    -0.038 C 
ATOM     14  H2  <0> d           1.029   1.767   5.599  0.00  0.00     0.083 H 
ATOM     15  H3  <0> d          -1.107   2.712   6.368  0.00  0.00     0.083 H 
ATOM     16  H4  <0> d          -2.944   3.093   4.787  0.00  0.00     0.086 H 
ATOM     17  H5  <0> d           1.353   1.193   3.245  0.00  0.00     0.084 H 
ATOM     18  H6  <0> d          -2.711   2.656  -1.047  0.00  0.00     0.042 H 
ATOM     19  H7  <0> d          -2.812   0.888  -0.791  0.00  0.00     0.042 H 
ATOM     20  H8  <0> d          -0.405   2.577  -1.541  0.00  0.00     0.034 H 
ATOM     21  H9  <0> d          -0.804   0.894  -2.021  0.00  0.00     0.034 H 
ATOM     22  H10 <0> d           0.002  -0.004   0.002  0.00  0.00     0.040 H 
ATOM     23  H11 <0> d           1.004   1.478   0.000  0.00  0.00     0.040 H 
ENDROOT
TORSDOF 0
