REMARK  0 active torsions:
REMARK  status: ('A' for Active; 'I' for Inactive)
ROOT
ATOM      1  C1  <0> d          -1.221   1.749   0.017  0.00  0.00    -0.082 A 
ATOM      2  C2  <0> d          -0.013   1.076   0.008  0.00  0.00    -0.082 A 
ATOM      3  C3  <0> d           1.175   1.781   0.000  0.00  0.00    -0.067 A 
ATOM      4  C4  <0> d           1.148   3.173   0.007  0.00  0.00     0.038 A 
ATOM      5  C5  <0> d          -0.075   3.848   0.022  0.00  0.00    -0.041 A 
ATOM      6  C6  <0> d          -1.253   3.133   0.029  0.00  0.00    -0.076 A 
ATOM      7  C7  <0> d          -0.083   5.354   0.028  0.00  0.00    -0.025 C 
ATOM      8  C8  <0> d           1.113   5.877   0.820  0.00  0.00    -0.001 C 
ATOM      9  N1  <0> d           2.355   5.260   0.364  0.00  0.00    -0.357 N 
ATOM     10  C9  <0> d           2.398   3.963  -0.000  0.00  0.00     0.252 C 
ATOM     11  O1  <0> d           3.449   3.450  -0.330  0.00  0.00    -0.268 OA
ATOM     12  H1  <0> d          -2.146   1.192   0.019  0.00  0.00     0.083 H 
ATOM     13  H2  <0> d           0.002  -0.004   0.002  0.00  0.00     0.083 H 
ATOM     14  H3  <0> d           2.119   1.255  -0.010  0.00  0.00     0.085 H 
ATOM     15  H4  <0> d          -2.200   3.652   0.041  0.00  0.00     0.084 H 
ATOM     16  H5  <0> d          -1.005   5.709   0.487  0.00  0.00     0.042 H 
ATOM     17  H6  <0> d          -0.025   5.719  -0.998  0.00  0.00     0.042 H 
ATOM     18  H7  <0> d           0.968   5.651   1.877  0.00  0.00     0.064 H 
ATOM     19  H8  <0> d           1.181   6.957   0.692  0.00  0.00     0.064 H 
ATOM     20  H9  <0> d           3.164   5.793   0.322  0.00  0.00     0.162 HD
ENDROOT
TORSDOF 0
