REMARK  8 active torsions:
REMARK  status: ('A' for Active; 'I' for Inactive)
REMARK    1  A    between atoms: C1_1  and  C2_2 
REMARK    2  A    between atoms: C2_2  and  C3_3 
REMARK    3  A    between atoms: C3_3  and  C4_4 
REMARK    4  A    between atoms: C3_3  and  C6_6 
REMARK    5  A    between atoms: C3_3  and  C8_8 
REMARK    6  A    between atoms: C4_4  and  C5_5 
REMARK    7  A    between atoms: C6_6  and  C7_7 
REMARK    8  A    between atoms: C8_8  and  C9_9 
ROOT
ATOM      1  C3  <0> d           2.696   3.548  -0.005  0.00  0.00    -0.032 C 
ENDROOT
BRANCH   1   2
ATOM      2  C2  <0> d           2.755   5.077   0.003  0.00  0.00    -0.061 C 
ATOM      3  H4  <0> d           2.248   5.465  -0.880  0.00  0.00     0.033 H 
ATOM      4  H5  <0> d           2.265   5.455   0.900  0.00  0.00     0.033 H 
BRANCH   2   5
ATOM      5  C1  <0> d           4.217   5.531  -0.009  0.00  0.00    -0.076 C 
ATOM      6  H1  <0> d           4.707   5.152  -0.905  0.00  0.00     0.027 H 
ATOM      7  H2  <0> d           4.259   6.620  -0.003  0.00  0.00     0.027 H 
ATOM      8  H3  <0> d           4.724   5.143   0.875  0.00  0.00     0.027 H 
ENDBRANCH   2   5
ENDBRANCH   1   2
BRANCH   1   9
ATOM      9  C4  <0> d           3.409   3.004   1.235  0.00  0.00    -0.061 C 
ATOM     10  H6  <0> d           3.367   1.915   1.230  0.00  0.00     0.033 H 
ATOM     11  H7  <0> d           4.450   3.327   1.227  0.00  0.00     0.033 H 
BRANCH   9  12
ATOM     12  C5  <0> d           2.720   3.535   2.494  0.00  0.00    -0.076 C 
ATOM     13  H8  <0> d           3.228   3.147   3.377  0.00  0.00     0.027 H 
ATOM     14  H9  <0> d           2.762   4.624   2.499  0.00  0.00     0.027 H 
ATOM     15  H10 <0> d           1.679   3.211   2.502  0.00  0.00     0.027 H 
ENDBRANCH   9  12
ENDBRANCH   1   9
BRANCH   1  16
ATOM     16  C6  <0> d           3.385   3.017  -1.263  0.00  0.00    -0.061 C 
ATOM     17  H11 <0> d           4.426   3.340  -1.272  0.00  0.00     0.033 H 
ATOM     18  H12 <0> d           3.343   1.928  -1.269  0.00  0.00     0.033 H 
BRANCH  16  19
ATOM     19  C7  <0> d           2.672   3.561  -2.503  0.00  0.00    -0.076 C 
ATOM     20  H13 <0> d           3.163   3.183  -3.400  0.00  0.00     0.027 H 
ATOM     21  H14 <0> d           1.631   3.238  -2.495  0.00  0.00     0.027 H 
ATOM     22  H15 <0> d           2.715   4.651  -2.498  0.00  0.00     0.027 H 
ENDBRANCH  16  19
ENDBRANCH   1  16
BRANCH   1  23
ATOM     23  C8  <0> d           1.235   3.094   0.007  0.00  0.00     0.023 C 
ATOM     24  H16 <0> d           0.727   3.482  -0.876  0.00  0.00     0.050 H 
ATOM     25  H17 <0> d           0.744   3.473   0.904  0.00  0.00     0.050 H 
BRANCH  23  26
ATOM     26  C9  <0> d           1.177   1.588  -0.001  0.00  0.00     0.173 C 
ATOM     27  O1  <0> d           2.199   0.944  -0.014  0.00  0.00    -0.648 OA
ATOM     28  O2  <0> d          -0.011   0.963   0.007  0.00  0.00    -0.648 OA
ENDBRANCH  23  26
ENDBRANCH   1  23
TORSDOF 8
