REMARK  0 active torsions:
REMARK  status: ('A' for Active; 'I' for Inactive)
ROOT
ATOM      1  C1  <0> d          -0.013   1.076   0.008  0.00  0.00     0.005 A 
ATOM      2  C2  <0> d           1.143   1.776   0.001  0.00  0.00    -0.012 A 
ATOM      3  N1  <0> d           1.106   3.144   0.008  0.00  0.00    -0.312 N 
ATOM      4  H1  <0> d           1.935   3.647   0.003  0.00  0.00     0.170 HD
ATOM      5  C3  <0> d          -0.070   3.798   0.022  0.00  0.00     0.372 A 
ATOM      6  O1  <0> d          -0.080   5.013   0.028  0.00  0.00    -0.238 OA
ATOM      7  O2  <0> d          -1.235   3.126   0.030  0.00  0.00    -0.224 OA
ATOM      8  C4  <0> d          -1.242   1.776   0.018  0.00  0.00     0.292 A 
ATOM      9  O3  <0> d          -2.296   1.167   0.019  0.00  0.00    -0.260 OA
ATOM     10  H2  <0> d           0.002  -0.004   0.002  0.00  0.00     0.095 H 
ATOM     11  H3  <0> d           2.091   1.259  -0.011  0.00  0.00     0.111 H 
ENDROOT
TORSDOF 0
