REMARK  2 active torsions:
REMARK  status: ('A' for Active; 'I' for Inactive)
REMARK    1  A    between atoms: C8_9  and  C10_11 
REMARK    2  A    between atoms: C10_11  and  O1_12 
ROOT
ATOM      1  C1  <0> d          -0.240   5.018   0.031  0.00  0.00    -0.081 A 
ATOM      2  C2  <0> d           0.846   5.840   0.025  0.00  0.00    -0.071 A 
ATOM      3  C3  <0> d           2.136   5.286   0.010  0.00  0.00    -0.007 A 
ATOM      4  C4  <0> d           3.284   6.100   0.004  0.00  0.00    -0.069 A 
ATOM      5  C5  <0> d           4.506   5.490   0.008  0.00  0.00    -0.065 A 
ATOM      6  C6  <0> d           4.590   4.100  -0.001  0.00  0.00     0.003 A 
ATOM      7  N1  <0> d           3.518   3.344  -0.001  0.00  0.00    -0.260 NA
ATOM      8  C7  <0> d           2.292   3.877   0.007  0.00  0.00     0.075 A 
ATOM      9  C8  <0> d           1.147   3.062   0.008  0.00  0.00    -0.005 A 
ATOM     10  C9  <0> d          -0.088   3.634   0.022  0.00  0.00    -0.072 A 
ATOM     11  H1  <0> d          -1.232   5.446   0.042  0.00  0.00     0.083 H 
ATOM     12  H2  <0> d           0.716   6.912   0.032  0.00  0.00     0.084 H 
ATOM     13  H3  <0> d           3.201   7.177   0.011  0.00  0.00     0.085 H 
ATOM     14  H4  <0> d           5.407   6.086   0.008  0.00  0.00     0.085 H 
ATOM     15  H5  <0> d           5.563   3.631  -0.007  0.00  0.00     0.114 H 
ATOM     16  H6  <0> d          -0.965   3.003   0.028  0.00  0.00     0.084 H 
ENDROOT
BRANCH   9  17
ATOM     17  C10 <0> d           1.286   1.562  -0.002  0.00  0.00     0.043 C 
ATOM     18  H7  <0> d           1.840   1.243   0.881  0.00  0.00     0.081 H 
ATOM     19  H8  <0> d           1.823   1.252  -0.899  0.00  0.00     0.081 H 
BRANCH  17  20
ATOM     20  O1  <0> d          -0.011   0.963   0.007  0.00  0.00    -0.396 OA
ATOM     21  H9  <0> d           0.002  -0.004   0.002  0.00  0.00     0.209 HD
ENDBRANCH  17  20
ENDBRANCH   9  17
TORSDOF 2
