REMARK  6 active torsions:
REMARK  status: ('A' for Active; 'I' for Inactive)
REMARK    1  A    between atoms: C1_1  and  C2_2 
REMARK    2  A    between atoms: C2_2  and  C3_3 
REMARK    3  A    between atoms: C3_3  and  C4_5 
REMARK    4  A    between atoms: C3_3  and  O2_12 
REMARK    5  A    between atoms: C4_5  and  C5_6 
REMARK    6  A    between atoms: C5_6  and  C6_7 
ROOT
ATOM      1  C4  <0> d           0.849  -2.021  -1.205  0.00  0.00    -0.036 C 
ATOM      2  H7  <0> d           1.347  -2.312  -0.280  0.00  0.00     0.037 H 
ATOM      3  H8  <0> d          -0.142  -2.472  -1.242  0.00  0.00     0.037 H 
ENDROOT
BRANCH   1   4
ATOM      4  C3  <0> d           0.718  -0.497  -1.257  0.00  0.00     0.035 C 
ATOM      5  H1  <0> d           1.710  -0.049  -1.310  0.00  0.00     0.082 H 
BRANCH   4   6
ATOM      6  C2  <0> d           0.002  -0.004   0.002  0.00  0.00    -0.044 C 
ATOM      7  H5  <0> d           0.529  -0.365   0.885  0.00  0.00     0.036 H 
ATOM      8  H6  <0> d          -1.020  -0.381   0.010  0.00  0.00     0.036 H 
BRANCH   6   9
ATOM      9  C1  <0> d          -0.019   1.526   0.010  0.00  0.00    -0.074 C 
ATOM     10  H2  <0> d           1.004   1.903   0.003  0.00  0.00     0.027 H 
ATOM     11  H3  <0> d          -0.546   1.887  -0.873  0.00  0.00     0.027 H 
ATOM     12  H4  <0> d          -0.529   1.877   0.907  0.00  0.00     0.027 H 
ENDBRANCH   6   9
ENDBRANCH   4   6
BRANCH   4  13
ATOM     13  O2  <0> d          -0.036  -0.123  -2.412  0.00  0.00    -0.396 OA
ATOM     14  H14 <0> d          -0.931  -0.487  -2.431  0.00  0.00     0.210 HD
ENDBRANCH   4  13
ENDBRANCH   1   4
BRANCH   1  15
ATOM     15  C5  <0> d           1.673  -2.503  -2.400  0.00  0.00    -0.018 C 
ATOM     16  H9  <0> d           1.176  -2.212  -3.326  0.00  0.00     0.043 H 
ATOM     17  H10 <0> d           2.665  -2.051  -2.364  0.00  0.00     0.043 H 
BRANCH  15  18
ATOM     18  C6  <0> d           1.803  -4.003  -2.349  0.00  0.00     0.052 A 
ATOM     19  O1  <0> d           2.781  -4.687  -1.734  0.00  0.00    -0.327 OA
ATOM     20  C9  <0> d           2.574  -6.005  -1.891  0.00  0.00     0.019 A 
ATOM     21  C8  <0> d           1.458  -6.175  -2.622  0.00  0.00    -0.059 A 
ATOM     22  H13 <0> d           3.200  -6.794  -1.501  0.00  0.00     0.123 H 
ATOM     23  C7  <0> d           0.960  -4.885  -2.917  0.00  0.00    -0.052 A 
ATOM     24  H12 <0> d           1.024  -7.117  -2.924  0.00  0.00     0.086 H 
ATOM     25  H11 <0> d           0.073  -4.652  -3.488  0.00  0.00     0.087 H 
ENDBRANCH  15  18
ENDBRANCH   1  15
TORSDOF 6
