REMARK  3 active torsions:
REMARK  status: ('A' for Active; 'I' for Inactive)
REMARK    1  A    between atoms: C1_1  and  C2_2 
REMARK    2  A    between atoms: C3_3  and  C6_9 
REMARK    3  A    between atoms: C4_5  and  N3_8 
ROOT
ATOM      1  C2  <0> d           2.291   0.031  -0.020  0.00  0.00     0.054 A 
ATOM      2  C3  <0> d           2.276   1.413  -0.012  0.00  0.00     0.057 A 
ATOM      3  N1  <0> d           1.125   2.064   0.002  0.00  0.00    -0.233 NA
ATOM      4  C4  <0> d          -0.017   1.389   0.010  0.00  0.00     0.139 A 
ATOM      5  C5  <0> d           0.002  -0.004   0.002  0.00  0.00     0.046 A 
ATOM      6  N2  <0> d           1.155  -0.646  -0.012  0.00  0.00    -0.260 NA
ATOM      7  H4  <0> d          -0.925  -0.558   0.007  0.00  0.00     0.120 H 
ENDROOT
BRANCH   1   8
ATOM      8  C1  <0> d           3.605  -0.706  -0.036  0.00  0.00    -0.034 C 
ATOM      9  H1  <0> d           3.912  -0.879  -1.067  0.00  0.00     0.035 H 
ATOM     10  H2  <0> d           4.362  -0.111   0.474  0.00  0.00     0.035 H 
ATOM     11  H3  <0> d           3.491  -1.663   0.474  0.00  0.00     0.035 H 
ENDBRANCH   1   8
BRANCH   2  12
ATOM     12  C6  <0> d           3.574   2.179  -0.020  0.00  0.00    -0.034 C 
ATOM     13  H7  <0> d           3.877   2.369  -1.050  0.00  0.00     0.035 H 
ATOM     14  H8  <0> d           3.439   3.127   0.500  0.00  0.00     0.035 H 
ATOM     15  H9  <0> d           4.344   1.595   0.483  0.00  0.00     0.035 H 
ENDBRANCH   2  12
BRANCH   4  16
ATOM     16  N3  <0> d          -1.229   2.069   0.019  0.00  0.00    -0.383 N 
ATOM     17  H5  <0> d          -2.063   1.574   0.020  0.00  0.00     0.157 HD
ATOM     18  H6  <0> d          -1.240   3.039   0.025  0.00  0.00     0.157 HD
ENDBRANCH   4  16
TORSDOF 3
