REMARK  2 active torsions:
REMARK  status: ('A' for Active; 'I' for Inactive)
REMARK    1  A    between atoms: C3_3  and  N3_8 
REMARK    2  A    between atoms: C4_4  and  N2_7 
ROOT
ATOM      1  C1  <0> d           1.232  -0.649  -0.013  0.00  0.00    -0.064 A 
ATOM      2  C2  <0> d           0.002  -0.004   0.002  0.00  0.00    -0.053 A 
ATOM      3  C3  <0> d          -0.017   1.384   0.010  0.00  0.00     0.071 A 
ATOM      4  C4  <0> d           1.197   2.078   0.002  0.00  0.00     0.147 A 
ATOM      5  N1  <0> d           2.345   1.422  -0.013  0.00  0.00    -0.242 NA
ATOM      6  C5  <0> d           2.390   0.102  -0.020  0.00  0.00     0.005 A 
ATOM      7  H1  <0> d           1.282  -1.728  -0.020  0.00  0.00     0.085 H 
ATOM      8  H2  <0> d          -0.918  -0.569   0.007  0.00  0.00     0.087 H 
ATOM      9  H3  <0> d           3.347  -0.398  -0.032  0.00  0.00     0.114 H 
ENDROOT
BRANCH   3  10
ATOM     10  N3  <0> d          -1.232   2.078   0.019  0.00  0.00    -0.396 N 
ATOM     11  H6  <0> d          -2.070   1.589   0.021  0.00  0.00     0.156 HD
ATOM     12  H7  <0> d          -1.237   3.048   0.025  0.00  0.00     0.156 HD
ENDBRANCH   3  10
BRANCH   4  13
ATOM     13  N2  <0> d           1.196   3.470   0.009  0.00  0.00    -0.382 N 
ATOM     14  H4  <0> d           0.356   3.955   0.019  0.00  0.00     0.157 HD
ATOM     15  H5  <0> d           2.036   3.955   0.003  0.00  0.00     0.157 HD
ENDBRANCH   4  13
TORSDOF 2
