REMARK  0 active torsions:
REMARK  status: ('A' for Active; 'I' for Inactive)
ROOT
ATOM      1  C1  <0> d           0.705  -2.687  -0.019  0.00  0.00    -0.081 A 
ATOM      2  C2  <0> d          -0.631  -2.313  -0.004  0.00  0.00    -0.080 A 
ATOM      3  C3  <0> d          -0.984  -0.979   0.006  0.00  0.00    -0.048 A 
ATOM      4  C4  <0> d           0.002  -0.004   0.002  0.00  0.00     0.107 A 
ATOM      5  C5  <0> d           1.354  -0.379  -0.013  0.00  0.00     0.094 A 
ATOM      6  C6  <0> d           1.696  -1.732  -0.023  0.00  0.00    -0.052 A 
ATOM      7  N1  <0> d           2.076   0.775  -0.014  0.00  0.00    -0.211 NA
ATOM      8  C7  <0> d           1.254   1.783  -0.000  0.00  0.00     0.246 A 
ATOM      9  O1  <0> d          -0.016   1.347   0.009  0.00  0.00    -0.280 OA
ATOM     10 Cl1  <0> d           1.730   3.453   0.004  0.00  0.00    -0.035 Cl
ATOM     11  H1  <0> d           0.968  -3.734  -0.027  0.00  0.00     0.083 H 
ATOM     12  H2  <0> d          -1.400  -3.071  -0.001  0.00  0.00     0.083 H 
ATOM     13  H3  <0> d          -2.025  -0.695   0.017  0.00  0.00     0.087 H 
ATOM     14  H4  <0> d           2.735  -2.028  -0.034  0.00  0.00     0.087 H 
ENDROOT
TORSDOF 0
