REMARK  2 active torsions:
REMARK  status: ('A' for Active; 'I' for Inactive)
REMARK    1  A    between atoms: C3_3  and  C5_7 
REMARK    2  A    between atoms: C5_7  and  C6_9 
ROOT
ATOM      1  C6  <0> d          -0.018   1.468   0.010  0.00  0.00     0.072 C 
ATOM      2  C7  <0> d           0.002  -0.004   0.002  0.00  0.00     0.066 C 
ATOM      3  N1  <0> d           0.018  -1.140  -0.004  0.00  0.00    -0.197 NA
ATOM      4  H8  <0> d          -0.533   1.823   0.915  0.00  0.00     0.066 H 
ATOM      5  H9  <0> d          -0.550   1.832  -0.881  0.00  0.00     0.066 H 
ENDROOT
BRANCH   1   6
ATOM      6  C5  <0> d           1.396   1.989  -0.001  0.00  0.00     0.168 C 
ATOM      7  O2  <0> d           2.324   1.217  -0.014  0.00  0.00    -0.294 OA
BRANCH   6   8
ATOM      8  C3  <0> d           1.651   3.475   0.005  0.00  0.00     0.096 C 
ATOM      9  C2  <0> d           1.359   4.076  -1.388  0.00  0.00    -0.032 C 
ATOM     10  C1  <0> d           2.448   5.157  -1.565  0.00  0.00    -0.043 C 
ATOM     11  H4  <0> d           0.365   4.544  -1.437  0.00  0.00     0.037 H 
ATOM     12  H5  <0> d           1.452   3.328  -2.189  0.00  0.00     0.037 H 
ATOM     13  C4  <0> d           3.269   5.082  -0.259  0.00  0.00     0.021 C 
ATOM     14  H2  <0> d           2.018   6.164  -1.671  0.00  0.00     0.036 H 
ATOM     15  H3  <0> d           3.104   4.948  -2.423  0.00  0.00     0.036 H 
ATOM     16  O1  <0> d           3.051   3.743   0.237  0.00  0.00    -0.378 OA
ATOM     17  H6  <0> d           4.330   5.267  -0.481  0.00  0.00     0.074 H 
ATOM     18  H7  <0> d           2.905   5.843   0.447  0.00  0.00     0.074 H 
ATOM     19  H1  <0> d           1.054   3.906   0.822  0.00  0.00     0.095 H 
ENDBRANCH   6   8
ENDBRANCH   1   6
TORSDOF 2
