REMARK  8 active torsions:
REMARK  status: ('A' for Active; 'I' for Inactive)
REMARK    1  A    between atoms: C1_1  and  C2_2 
REMARK    2  A    between atoms: C2_2  and  C3_3 
REMARK    3  A    between atoms: C3_3  and  C4_5 
REMARK    4  A    between atoms: C3_3  and  C6_8 
REMARK    5  A    between atoms: C4_5  and  C5_6 
REMARK    6  A    between atoms: C5_6  and  O1_7 
REMARK    7  A    between atoms: C6_8  and  O3_10 
REMARK    8  A    between atoms: O3_10  and  C7_11 
ROOT
ATOM      1  C3  <0> d          -1.427  -0.531   0.140  0.00  0.00     0.032 C 
ATOM      2  H1  <0> d          -1.882   0.012   0.968  0.00  0.00     0.055 H 
ENDROOT
BRANCH   1   3
ATOM      3  C2  <0> d           0.025  -0.079  -0.029  0.00  0.00    -0.056 C 
ATOM      4  H5  <0> d           0.449  -0.544  -0.919  0.00  0.00     0.033 H 
ATOM      5  H6  <0> d           0.602  -0.377   0.846  0.00  0.00     0.033 H 
BRANCH   3   6
ATOM      6  C1  <0> d           0.072   1.443  -0.178  0.00  0.00    -0.076 C 
ATOM      7  H2  <0> d           1.110   1.774  -0.206  0.00  0.00     0.027 H 
ATOM      8  H3  <0> d          -0.428   1.733  -1.102  0.00  0.00     0.027 H 
ATOM      9  H4  <0> d          -0.434   1.906   0.669  0.00  0.00     0.027 H 
ENDBRANCH   3   6
ENDBRANCH   1   3
BRANCH   1  10
ATOM     10  C4  <0> d          -2.204  -0.242  -1.147  0.00  0.00    -0.034 C 
ATOM     11  H7  <0> d          -2.082   0.806  -1.417  0.00  0.00     0.037 H 
ATOM     12  H8  <0> d          -1.822  -0.872  -1.950  0.00  0.00     0.037 H 
BRANCH  10  13
ATOM     13  C5  <0> d          -3.688  -0.543  -0.925  0.00  0.00     0.018 C 
ATOM     14  H9  <0> d          -3.819  -1.609  -0.744  0.00  0.00     0.074 H 
ATOM     15  H10 <0> d          -4.047   0.019  -0.062  0.00  0.00     0.074 H 
BRANCH  13  16
ATOM     16  O1  <0> d          -4.430  -0.161  -2.085  0.00  0.00    -0.401 OA
ATOM     17  H11 <0> d          -5.380  -0.323  -2.014  0.00  0.00     0.209 HD
ENDBRANCH  13  16
ENDBRANCH  10  13
ENDBRANCH   1  10
BRANCH   1  18
ATOM     18  C6  <0> d          -1.463  -2.010   0.427  0.00  0.00     0.262 C 
ATOM     19  O2  <0> d          -2.050  -2.756  -0.320  0.00  0.00    -0.265 OA
BRANCH  18  20
ATOM     20  O3  <0> d          -0.843  -2.497   1.514  0.00  0.00    -0.326 OA
BRANCH  20  21
ATOM     21  C7  <0> d          -0.918  -3.909   1.725  0.00  0.00     0.013 C 
ATOM     22  H12 <0> d          -1.962  -4.206   1.825  0.00  0.00     0.067 H 
ATOM     23  H13 <0> d          -0.472  -4.427   0.876  0.00  0.00     0.067 H 
ATOM     24  H14 <0> d          -0.377  -4.169   2.634  0.00  0.00     0.067 H 
ENDBRANCH  20  21
ENDBRANCH  18  20
ENDBRANCH   1  18
TORSDOF 8
