REMARK  2 active torsions:
REMARK  status: ('A' for Active; 'I' for Inactive)
REMARK    1  A    between atoms: C5_6  and  S1_7 
REMARK    2  A    between atoms: S1_7  and  N2_10 
ROOT
ATOM      1  C1  <0> d          -0.017   1.382   0.010  0.00  0.00    -0.043 A 
ATOM      2  C2  <0> d           1.181   2.072   0.002  0.00  0.00     0.003 A 
ATOM      3  N1  <0> d           2.331   1.427  -0.013  0.00  0.00    -0.273 NA
ATOM      4  C3  <0> d           2.387   0.109  -0.021  0.00  0.00     0.003 A 
ATOM      5  C4  <0> d           1.230  -0.647  -0.013  0.00  0.00    -0.043 A 
ATOM      6  C5  <0> d           0.002  -0.004   0.002  0.00  0.00     0.082 A 
ATOM      7  H1  <0> d          -0.955   1.916   0.026  0.00  0.00     0.088 H 
ATOM      8  H2  <0> d           1.175   3.152   0.008  0.00  0.00     0.114 H 
ATOM      9  H3  <0> d           3.347  -0.384  -0.033  0.00  0.00     0.114 H 
ATOM     10  H4  <0> d           1.282  -1.726  -0.019  0.00  0.00     0.088 H 
ENDROOT
BRANCH   6  11
ATOM     11  S1  <0> d          -1.499  -0.926   0.012  0.00  0.00     0.256 S 
ATOM     12  O1  <0> d          -1.188  -2.203   0.553  0.00  0.00    -0.201 OA
ATOM     13  O2  <0> d          -2.492  -0.081   0.577  0.00  0.00    -0.201 OA
BRANCH  11  14
ATOM     14  N2  <0> d          -1.932  -1.174  -1.567  0.00  0.00    -0.324 N 
ATOM     15  H5  <0> d          -1.377  -0.826  -2.283  0.00  0.00     0.169 HD
ATOM     16  H6  <0> d          -2.740  -1.668  -1.777  0.00  0.00     0.169 HD
ENDBRANCH  11  14
ENDBRANCH   6  11
TORSDOF 2
