REMARK  5 active torsions:
REMARK  status: ('A' for Active; 'I' for Inactive)
REMARK    1  A    between atoms: C1_1  and  C2_2 
REMARK    2  A    between atoms: C2_2  and  C3_3 
REMARK    3  A    between atoms: C3_3  and  C4_4 
REMARK    4  A    between atoms: C7_7  and  C10_11 
REMARK    5  A    between atoms: C8_9  and  C9_10 
ROOT
ATOM      1  C4  <0> d           0.739  -2.004  -1.265  0.00  0.00    -0.034 A 
ATOM      2  C5  <0> d           1.834  -2.694  -0.769  0.00  0.00    -0.073 A 
ATOM      3  C6  <0> d           1.809  -4.080  -0.796  0.00  0.00    -0.059 A 
ATOM      4  C7  <0> d           0.701  -4.723  -1.315  0.00  0.00     0.031 A 
ATOM      5  N1  <0> d          -0.323  -4.035  -1.778  0.00  0.00    -0.258 NA
ATOM      6  C8  <0> d          -0.337  -2.716  -1.762  0.00  0.00     0.037 A 
ATOM      7  H8  <0> d           2.687  -2.165  -0.370  0.00  0.00     0.084 H 
ATOM      8  H9  <0> d           2.645  -4.650  -0.419  0.00  0.00     0.086 H 
ENDROOT
BRANCH   1   9
ATOM      9  C3  <0> d           0.718  -0.497  -1.257  0.00  0.00    -0.039 C 
ATOM     10  H6  <0> d           0.191  -0.136  -2.140  0.00  0.00     0.040 H 
ATOM     11  H7  <0> d           1.741  -0.120  -1.264  0.00  0.00     0.040 H 
BRANCH   9  12
ATOM     12  C2  <0> d           0.002  -0.004   0.002  0.00  0.00    -0.065 C 
ATOM     13  H4  <0> d           0.529  -0.365   0.885  0.00  0.00     0.032 H 
ATOM     14  H5  <0> d          -1.020  -0.381   0.010  0.00  0.00     0.032 H 
BRANCH  12  15
ATOM     15  C1  <0> d          -0.019   1.526   0.010  0.00  0.00    -0.076 C 
ATOM     16  H1  <0> d           1.004   1.903   0.003  0.00  0.00     0.027 H 
ATOM     17  H2  <0> d          -0.546   1.887  -0.873  0.00  0.00     0.027 H 
ATOM     18  H3  <0> d          -0.529   1.877   0.907  0.00  0.00     0.027 H 
ENDBRANCH  12  15
ENDBRANCH   9  12
ENDBRANCH   1   9
BRANCH   6  19
ATOM     19  C9  <0> d          -1.535  -1.976  -2.298  0.00  0.00    -0.035 C 
ATOM     20  H10 <0> d          -1.399  -1.787  -3.363  0.00  0.00     0.035 H 
ATOM     21  H11 <0> d          -2.431  -2.579  -2.148  0.00  0.00     0.035 H 
ATOM     22  H12 <0> d          -1.643  -1.028  -1.771  0.00  0.00     0.035 H 
ENDBRANCH   6  19
BRANCH   4  23
ATOM     23  C10 <0> d           0.663  -6.230  -1.350  0.00  0.00    -0.035 C 
ATOM     24  H13 <0> d           0.224  -6.604  -0.425  0.00  0.00     0.035 H 
ATOM     25  H14 <0> d           0.060  -6.558  -2.197  0.00  0.00     0.035 H 
ATOM     26  H15 <0> d           1.676  -6.616  -1.453  0.00  0.00     0.035 H 
ENDBRANCH   4  23
TORSDOF 5
