REMARK  2 active torsions:
REMARK  status: ('A' for Active; 'I' for Inactive)
REMARK    1  A    between atoms: C1_1  and  C2_2 
REMARK       I    between atoms: N1_8  and  C7_9 
REMARK    2  A    between atoms: C7_9  and  C8_11 
ROOT
ATOM      1  C2  <0> d           2.170   0.079  -1.300  0.00  0.00     0.011 C 
ATOM      2  H1  <0> d           2.800  -0.259  -0.477  0.00  0.00     0.072 H 
ATOM      3  C3  <0> d           0.820  -0.642  -1.242  0.00  0.00    -0.046 C 
ATOM      4  C4  <0> d           0.076  -0.224   0.028  0.00  0.00    -0.062 C 
ATOM      5  C5  <0> d          -0.183   1.284  -0.004  0.00  0.00    -0.050 C 
ATOM      6  C6  <0> d           1.155   2.027  -0.048  0.00  0.00    -0.002 C 
ATOM      7  N1  <0> d           1.939   1.526  -1.185  0.00  0.00    -0.348 N 
ATOM      8  C7  <0> d           2.436   2.376  -2.105  0.00  0.00     0.216 C 
ATOM      9  O1  <0> d           3.001   1.944  -3.087  0.00  0.00    -0.274 OA
ATOM     10  H5  <0> d           0.983  -1.720  -1.230  0.00  0.00     0.035 H 
ATOM     11  H6  <0> d           0.226  -0.375  -2.116  0.00  0.00     0.035 H 
ATOM     12  H7  <0> d           0.681  -0.470   0.901  0.00  0.00     0.033 H 
ATOM     13  H8  <0> d          -0.875  -0.754   0.084  0.00  0.00     0.033 H 
ATOM     14  H9  <0> d          -0.767   1.534  -0.890  0.00  0.00     0.035 H 
ATOM     15  H10 <0> d          -0.734   1.578   0.890  0.00  0.00     0.035 H 
ATOM     16  H11 <0> d           0.977   3.096  -0.170  0.00  0.00     0.064 H 
ATOM     17  H12 <0> d           1.702   1.851   0.879  0.00  0.00     0.064 H 
ENDROOT
BRANCH   1  18
ATOM     18  C1  <0> d           2.858  -0.226  -2.632  0.00  0.00    -0.057 C 
ATOM     19  H2  <0> d           2.260   0.174  -3.450  0.00  0.00     0.030 H 
ATOM     20  H3  <0> d           3.846   0.235  -2.644  0.00  0.00     0.030 H 
ATOM     21  H4  <0> d           2.960  -1.305  -2.749  0.00  0.00     0.030 H 
ENDBRANCH   1  18
BRANCH   8  22
ATOM     22  C8  <0> d           2.288   3.863  -1.914  0.00  0.00    -0.003 C 
ATOM     23  H13 <0> d           2.780   4.161  -0.988  0.00  0.00     0.040 H 
ATOM     24  H14 <0> d           2.748   4.385  -2.753  0.00  0.00     0.040 H 
ATOM     25  H15 <0> d           1.230   4.120  -1.863  0.00  0.00     0.040 H 
ENDBRANCH   8  22
TORSDOF 2
