REMARK  0 active torsions:
REMARK  status: ('A' for Active; 'I' for Inactive)
ROOT
ATOM      1  C1  <0> d          -0.013   1.086   0.008  0.00  0.00     0.096 C 
ATOM      2  C2  <0> d          -0.746   1.587   1.238  0.00  0.00     0.270 C 
ATOM      3  O1  <0> d          -0.932   0.874   2.195  0.00  0.00    -0.265 OA
ATOM      4  O2  <0> d          -1.185   2.866   1.214  0.00  0.00    -0.295 OA
ATOM      5  C3  <0> d          -1.953   3.246   0.037  0.00  0.00     0.120 C 
ATOM      6  O3  <0> d          -1.206   2.879  -1.158  0.00  0.00    -0.295 OA
ATOM      7  C4  <0> d          -0.770   1.600  -1.202  0.00  0.00     0.270 C 
ATOM      8  O4  <0> d          -0.974   0.897  -2.163  0.00  0.00    -0.265 OA
ATOM      9  H1  <0> d           0.002  -0.004   0.002  0.00  0.00     0.063 H 
ATOM     10  H2  <0> d           1.007   1.471   0.000  0.00  0.00     0.063 H 
ATOM     11  H3  <0> d          -2.123   4.323   0.044  0.00  0.00     0.119 H 
ATOM     12  H4  <0> d          -2.911   2.726   0.042  0.00  0.00     0.119 H 
ENDROOT
TORSDOF 0
