REMARK  1 active torsions:
REMARK  status: ('A' for Active; 'I' for Inactive)
REMARK    1  A    between atoms: C2_2  and  N2_9 
ROOT
ATOM      1  C1  <0> d           1.176   2.045   0.002  0.00  0.00    -0.002 A 
ATOM      2  C2  <0> d           1.145   3.439   0.010  0.00  0.00     0.034 A 
ATOM      3  C3  <0> d          -0.097   4.074   0.025  0.00  0.00    -0.002 A 
ATOM      4  C4  <0> d          -1.244   3.304   0.032  0.00  0.00     0.214 A 
ATOM      5  N1  <0> d          -1.175   1.984   0.018  0.00  0.00    -0.191 NA
ATOM      6  C5  <0> d          -0.016   1.347   0.009  0.00  0.00     0.214 A 
ATOM      7  F1  <0> d           0.002  -0.004   0.002  0.00  0.00    -0.184 F 
ATOM      8  F2  <0> d          -2.452   3.909   0.046  0.00  0.00    -0.184 F 
ATOM      9  H1  <0> d           2.119   1.519  -0.010  0.00  0.00     0.094 H 
ATOM     10  H2  <0> d          -0.160   5.152   0.032  0.00  0.00     0.094 H 
ENDROOT
BRANCH   2  11
ATOM     11  N2  <0> d           2.324   4.179   0.003  0.00  0.00    -0.399 N 
ATOM     12  H3  <0> d           3.181   3.725  -0.007  0.00  0.00     0.156 HD
ATOM     13  H4  <0> d           2.288   5.148   0.008  0.00  0.00     0.156 HD
ENDBRANCH   2  11
TORSDOF 1
