REMARK  1 active torsions:
REMARK  status: ('A' for Active; 'I' for Inactive)
REMARK    1  A    between atoms: C1_1  and  C2_2 
ROOT
ATOM      1  C2  <0> d           3.102   3.731  -0.007  0.00  0.00    -0.061 A 
ATOM      2  C3  <0> d           3.450   2.392  -0.018  0.00  0.00    -0.075 A 
ATOM      3  C4  <0> d           2.471   1.421  -0.014  0.00  0.00    -0.057 A 
ATOM      4  C5  <0> d           1.122   1.781   0.001  0.00  0.00     0.034 A 
ATOM      5  C6  <0> d           0.785   3.125   0.011  0.00  0.00    -0.030 A 
ATOM      6  C7  <0> d           1.769   4.095   0.007  0.00  0.00    -0.069 A 
ATOM      7  C8  <0> d          -0.723   3.243   0.026  0.00  0.00    -0.024 A 
ATOM      8  C9  <0> d          -1.223   1.789   0.017  0.00  0.00    -0.004 A 
ATOM      9  N1  <0> d          -0.011   0.966   0.007  0.00  0.00    -0.389 N 
ATOM     10  H4  <0> d           4.491   2.106  -0.030  0.00  0.00     0.084 H 
ATOM     11  H5  <0> d           2.749   0.377  -0.022  0.00  0.00     0.086 H 
ATOM     12  H6  <0> d           1.496   5.140   0.016  0.00  0.00     0.085 H 
ATOM     13  H7  <0> d          -1.055   3.757   0.928  0.00  0.00     0.042 H 
ATOM     14  H8  <0> d          -1.072   3.767  -0.863  0.00  0.00     0.042 H 
ATOM     15  H9  <0> d          -1.818   1.597  -0.876  0.00  0.00     0.064 H 
ATOM     16  H10 <0> d          -1.810   1.587   0.913  0.00  0.00     0.064 H 
ATOM     17  H11 <0> d           0.002  -0.004   0.002  0.00  0.00     0.159 HD
ENDROOT
BRANCH   1  18
ATOM     18  C1  <0> d           4.175   4.789  -0.012  0.00  0.00    -0.051 C 
ATOM     19  H1  <0> d           4.443   5.038   1.015  0.00  0.00     0.033 H 
ATOM     20  H2  <0> d           5.054   4.414  -0.536  0.00  0.00     0.033 H 
ATOM     21  H3  <0> d           3.803   5.681  -0.517  0.00  0.00     0.033 H 
ENDBRANCH   1  18
TORSDOF 1
