REMARK  3 active torsions:
REMARK  status: ('A' for Active; 'I' for Inactive)
REMARK    1  A    between atoms: C1_1  and  O1_2 
REMARK    2  A    between atoms: O1_2  and  C2_3 
REMARK    3  A    between atoms: C2_3  and  C3_5 
ROOT
ATOM      1  C3  <0> d          -2.132   0.975   1.328  0.00  0.00     0.088 C 
ATOM      2  H1  <0> d          -2.069  -0.017   1.435  0.00  0.00     0.067 H 
ATOM      3  C4  <0> d          -0.726   1.578   1.269  0.00  0.00    -0.047 C 
ATOM      4  C5  <0> d          -0.013   1.086   0.008  0.00  0.00    -0.064 C 
ATOM      5  C6  <0> d          -0.750   1.591  -1.233  0.00  0.00    -0.059 C 
ATOM      6  C7  <0> d          -2.158   0.989  -1.270  0.00  0.00    -0.009 C 
ATOM      7  C8  <0> d          -2.850   1.306   0.038  0.00  0.00     0.140 C 
ATOM      8  O3  <0> d          -3.947   1.810   0.052  0.00  0.00    -0.297 OA
ATOM      9  H5  <0> d          -0.162   1.268   2.149  0.00  0.00     0.034 H 
ATOM     10  H6  <0> d          -0.796   2.665   1.246  0.00  0.00     0.034 H 
ATOM     11  H7  <0> d           0.002  -0.004   0.002  0.00  0.00     0.033 H 
ATOM     12  H8  <0> d           1.010   1.462   0.000  0.00  0.00     0.033 H 
ATOM     13  H9  <0> d          -0.820   2.678  -1.197  0.00  0.00     0.033 H 
ATOM     14  H10 <0> d          -0.203   1.292  -2.128  0.00  0.00     0.033 H 
ATOM     15  H11 <0> d          -2.670   1.384  -2.033  0.00  0.00     0.044 H 
ATOM     16  H12 <0> d          -2.092  -0.091  -1.396  0.00  0.00     0.044 H 
ENDROOT
BRANCH   1  17
ATOM     17  C2  <0> d          -2.889   1.559   2.493  0.00  0.00     0.269 C 
ATOM     18  O2  <0> d          -2.355   2.365   3.217  0.00  0.00    -0.264 OA
BRANCH  17  19
ATOM     19  O1  <0> d          -4.157   1.184   2.725  0.00  0.00    -0.326 OA
BRANCH  19  20
ATOM     20  C1  <0> d          -4.824   1.788   3.864  0.00  0.00     0.013 C 
ATOM     21  H2  <0> d          -4.276   1.548   4.776  0.00  0.00     0.067 H 
ATOM     22  H3  <0> d          -4.858   2.870   3.735  0.00  0.00     0.067 H 
ATOM     23  H4  <0> d          -5.840   1.399   3.938  0.00  0.00     0.067 H 
ENDBRANCH  19  20
ENDBRANCH  17  19
ENDBRANCH   1  17
TORSDOF 3
