REMARK  4 active torsions:
REMARK  status: ('A' for Active; 'I' for Inactive)
REMARK    1  A    between atoms: C1_1  and  C2_2 
REMARK    2  A    between atoms: C2_2  and  C3_3 
REMARK    3  A    between atoms: C3_3  and  C4_4 
REMARK    4  A    between atoms: C4_4  and  C5_5 
ROOT
ATOM      1  C5  <0> d          -0.018   1.468   0.010  0.00  0.00     0.016 C 
ATOM      2  C6  <0> d           0.002  -0.004   0.002  0.00  0.00     0.059 C 
ATOM      3  N1  <0> d           0.018  -1.140  -0.004  0.00  0.00    -0.197 NA
ATOM      4  H8  <0> d           1.005   1.845   0.002  0.00  0.00     0.054 H 
ATOM      5  H9  <0> d          -0.545   1.829  -0.873  0.00  0.00     0.054 H 
ENDROOT
BRANCH   1   6
ATOM      6  C4  <0> d          -0.734   1.961   1.269  0.00  0.00    -0.039 C 
ATOM      7  H6  <0> d          -1.757   1.584   1.277  0.00  0.00     0.036 H 
ATOM      8  H7  <0> d          -0.207   1.600   2.152  0.00  0.00     0.036 H 
BRANCH   6   9
ATOM      9  C3  <0> d          -0.755   3.491   1.277  0.00  0.00     0.032 C 
ATOM     10  C7  <0> d           0.622   4.000   1.388  0.00  0.00     0.064 C 
ATOM     11  N2  <0> d           1.685   4.393   1.473  0.00  0.00    -0.197 NA
ATOM     12  H5  <0> d          -1.203   3.853   0.352  0.00  0.00     0.062 H 
BRANCH   9  13
ATOM     13  C2  <0> d          -1.578   3.983   2.470  0.00  0.00    -0.039 C 
ATOM     14  H3  <0> d          -2.571   3.535   2.435  0.00  0.00     0.036 H 
ATOM     15  H4  <0> d          -1.081   3.697   3.397  0.00  0.00     0.036 H 
BRANCH  13  16
ATOM     16  C1  <0> d          -1.703   5.507   2.408  0.00  0.00     0.016 C 
ATOM     17  C8  <0> d          -2.495   5.981   3.555  0.00  0.00     0.059 C 
ATOM     18  N3  <0> d          -3.106   6.346   4.441  0.00  0.00    -0.197 NA
ATOM     19  H1  <0> d          -0.710   5.955   2.442  0.00  0.00     0.054 H 
ATOM     20  H2  <0> d          -2.199   5.794   1.481  0.00  0.00     0.054 H 
ENDBRANCH  13  16
ENDBRANCH   9  13
ENDBRANCH   6   9
ENDBRANCH   1   6
TORSDOF 4
