REMARK  0 active torsions:
REMARK  status: ('A' for Active; 'I' for Inactive)
REMARK       I    between atoms: N1_3  and  C4_6 
ROOT
ATOM      1  C1  <0> d          -0.016   1.339   0.009  0.00  0.00    -0.007 A 
ATOM      2  C2  <0> d           1.254   1.779  -0.000  0.00  0.00     0.006 A 
ATOM      3  N1  <0> d           2.061   0.665  -0.014  0.00  0.00    -0.262 N 
ATOM      4  C3  <0> d           1.236  -0.422  -0.012  0.00  0.00     0.052 A 
ATOM      5  N2  <0> d           0.002  -0.004   0.002  0.00  0.00    -0.360 N 
ATOM      6  C4  <0> d           3.409   0.650  -0.027  0.00  0.00     0.295 C 
ATOM      7  O1  <0> d           4.031   1.701  -0.028  0.00  0.00    -0.629 OA
ATOM      8  O2  <0> d           4.008  -0.415  -0.039  0.00  0.00    -0.629 OA
ATOM      9  H1  <0> d          -0.900   1.959   0.025  0.00  0.00     0.113 H 
ATOM     10  H2  <0> d           1.578   2.809   0.002  0.00  0.00     0.114 H 
ATOM     11  H3  <0> d           1.553  -1.454  -0.021  0.00  0.00     0.141 H 
ATOM     12  H4  <0> d          -0.782  -0.575   0.006  0.00  0.00     0.166 HD
ENDROOT
TORSDOF 0
