REMARK  5 active torsions:
REMARK  status: ('A' for Active; 'I' for Inactive)
REMARK    1  A    between atoms: C1_1  and  C2_2 
REMARK    2  A    between atoms: C4_4  and  C5_8 
REMARK    3  A    between atoms: C5_8  and  C6_9 
REMARK    4  A    between atoms: C6_9  and  C7_11 
REMARK    5  A    between atoms: C6_9  and  O1_12 
ROOT
ATOM      1  C2  <0> d          -0.613   0.776  -4.448  0.00  0.00     0.026 A 
ATOM      2  C3  <0> d           0.403   0.629  -3.566  0.00  0.00    -0.035 A 
ATOM      3  C4  <0> d          -0.077  -0.103  -2.474  0.00  0.00     0.059 A 
ATOM      4  N1  <0> d          -1.334  -0.391  -2.696  0.00  0.00    -0.179 NA
ATOM      5  N2  <0> d          -1.697   0.158  -3.933  0.00  0.00    -0.282 N 
ATOM      6  H1  <0> d          -2.600   0.102  -4.359  0.00  0.00     0.189 HD
ATOM      7  H6  <0> d           1.406   1.011  -3.683  0.00  0.00     0.089 H 
ENDROOT
BRANCH   3   8
ATOM      8  C5  <0> d           0.718  -0.497  -1.257  0.00  0.00     0.000 C 
ATOM      9  H7  <0> d           1.710  -0.049  -1.310  0.00  0.00     0.046 H 
ATOM     10  H8  <0> d           0.812  -1.583  -1.220  0.00  0.00     0.046 H 
BRANCH   8  11
ATOM     11  C6  <0> d           0.002  -0.004   0.002  0.00  0.00     0.037 C 
ATOM     12  H2  <0> d          -1.020  -0.381   0.010  0.00  0.00     0.082 H 
BRANCH  11  13
ATOM     13  C7  <0> d           0.742  -0.511   1.242  0.00  0.00    -0.052 C 
ATOM     14  H9  <0> d           0.232  -0.159   2.138  0.00  0.00     0.030 H 
ATOM     15  H10 <0> d           0.757  -1.601   1.236  0.00  0.00     0.030 H 
ATOM     16  H11 <0> d           1.765  -0.134   1.234  0.00  0.00     0.030 H 
ENDBRANCH  11  13
BRANCH  11  17
ATOM     17  O1  <0> d          -0.017   1.425   0.010  0.00  0.00    -0.396 OA
ATOM     18  H12 <0> d           0.861   1.830   0.004  0.00  0.00     0.210 HD
ENDBRANCH  11  17
ENDBRANCH   8  11
ENDBRANCH   3   8
BRANCH   1  19
ATOM     19  C1  <0> d          -0.546   1.499  -5.768  0.00  0.00    -0.036 C 
ATOM     20  H3  <0> d          -0.252   0.800  -6.551  0.00  0.00     0.035 H 
ATOM     21  H4  <0> d          -1.525   1.918  -6.003  0.00  0.00     0.035 H 
ATOM     22  H5  <0> d           0.187   2.303  -5.705  0.00  0.00     0.035 H 
ENDBRANCH   1  19
TORSDOF 5
