REMARK  7 active torsions:
REMARK  status: ('A' for Active; 'I' for Inactive)
REMARK    1  A    between atoms: C1_1  and  C2_2 
REMARK    2  A    between atoms: C2_2  and  C3_3 
REMARK    3  A    between atoms: C3_3  and  C4_5 
REMARK    4  A    between atoms: C3_3  and  O3_10 
REMARK    5  A    between atoms: C4_5  and  C5_6 
REMARK    6  A    between atoms: C5_6  and  O2_8 
REMARK    7  A    between atoms: O2_8  and  C6_9 
ROOT
ATOM      1  C3  <0> d           2.689   4.033  -0.002  0.00  0.00     0.044 C 
ATOM      2  H1  <0> d           3.203   3.582  -0.851  0.00  0.00     0.083 H 
ENDROOT
BRANCH   1   3
ATOM      3  C2  <0> d           2.749   5.557  -0.120  0.00  0.00    -0.044 C 
ATOM      4  H5  <0> d           2.188   5.876  -0.999  0.00  0.00     0.036 H 
ATOM      5  H6  <0> d           2.314   6.008   0.772  0.00  0.00     0.036 H 
BRANCH   3   6
ATOM      6  C1  <0> d           4.207   6.001  -0.257  0.00  0.00    -0.074 C 
ATOM      7  H2  <0> d           4.642   5.551  -1.149  0.00  0.00     0.027 H 
ATOM      8  H3  <0> d           4.250   7.087  -0.341  0.00  0.00     0.027 H 
ATOM      9  H4  <0> d           4.768   5.683   0.622  0.00  0.00     0.027 H 
ENDBRANCH   3   6
ENDBRANCH   1   3
BRANCH   1  10
ATOM     10  C4  <0> d           1.228   3.579   0.010  0.00  0.00     0.040 C 
ATOM     11  H7  <0> d           0.721   3.967  -0.874  0.00  0.00     0.051 H 
ATOM     12  H8  <0> d           0.738   3.957   0.906  0.00  0.00     0.051 H 
BRANCH  10  13
ATOM     13  C5  <0> d           1.170   2.073   0.002  0.00  0.00     0.260 C 
ATOM     14  O1  <0> d           2.192   1.429  -0.011  0.00  0.00    -0.265 OA
BRANCH  13  15
ATOM     15  O2  <0> d          -0.018   1.448   0.010  0.00  0.00    -0.326 OA
BRANCH  15  16
ATOM     16  C6  <0> d           0.002  -0.004   0.002  0.00  0.00     0.013 C 
ATOM     17  H9  <0> d          -1.020  -0.381   0.010  0.00  0.00     0.067 H 
ATOM     18  H10 <0> d           0.512  -0.356  -0.895  0.00  0.00     0.067 H 
ATOM     19  H11 <0> d           0.529  -0.365   0.885  0.00  0.00     0.067 H 
ENDBRANCH  15  16
ENDBRANCH  13  15
ENDBRANCH  10  13
ENDBRANCH   1  10
BRANCH   1  20
ATOM     20  O3  <0> d           3.325   3.624   1.211  0.00  0.00    -0.395 OA
ATOM     21  H12 <0> d           2.919   3.988   2.010  0.00  0.00     0.210 HD
ENDBRANCH   1  20
TORSDOF 7
