REMARK  6 active torsions:
REMARK  status: ('A' for Active; 'I' for Inactive)
REMARK    1  A    between atoms: C1_1  and  C2_2 
REMARK    2  A    between atoms: C2_2  and  C3_4 
REMARK    3  A    between atoms: C2_2  and  N1_7 
REMARK    4  A    between atoms: C3_4  and  C4_5 
REMARK    5  A    between atoms: C3_4  and  C5_6 
REMARK    6  A    between atoms: C6_8  and  N3_12 
ROOT
ATOM      1  C2  <0> d           0.002  -0.004   0.002  0.00  0.00     0.034 C 
ATOM      2  H1  <0> d           0.529  -0.365   0.885  0.00  0.00     0.075 H 
ENDROOT
BRANCH   1   3
ATOM      3  C1  <0> d          -0.019   1.526   0.010  0.00  0.00    -0.055 C 
ATOM      4  H2  <0> d           1.004   1.903   0.003  0.00  0.00     0.030 H 
ATOM      5  H3  <0> d          -0.546   1.887  -0.873  0.00  0.00     0.030 H 
ATOM      6  H4  <0> d          -0.529   1.877   0.907  0.00  0.00     0.030 H 
ENDBRANCH   1   3
BRANCH   1   7
ATOM      7  C3  <0> d          -1.433  -0.534   0.013  0.00  0.00    -0.040 C 
ATOM      8  H5  <0> d          -1.960  -0.173  -0.870  0.00  0.00     0.042 H 
BRANCH   7   9
ATOM      9  C4  <0> d          -1.413  -2.063   0.004  0.00  0.00    -0.071 C 
ATOM     10  H6  <0> d          -0.885  -2.425   0.887  0.00  0.00     0.028 H 
ATOM     11  H7  <0> d          -2.435  -2.441   0.012  0.00  0.00     0.028 H 
ATOM     12  H8  <0> d          -0.902  -2.415  -0.892  0.00  0.00     0.028 H 
ENDBRANCH   7   9
BRANCH   7  13
ATOM     13  C5  <0> d          -2.149  -0.040   1.272  0.00  0.00    -0.071 C 
ATOM     14  H9  <0> d          -2.164   1.050   1.278  0.00  0.00     0.028 H 
ATOM     15  H10 <0> d          -3.172  -0.417   1.279  0.00  0.00     0.028 H 
ATOM     16  H11 <0> d          -1.622  -0.401   2.155  0.00  0.00     0.028 H 
ENDBRANCH   7  13
ENDBRANCH   1   7
BRANCH   1  17
ATOM     17  N1  <0> d           0.688  -0.476  -1.203  0.00  0.00    -0.273 N 
ATOM     18  N2  <0> d           0.305  -0.216  -2.525  0.00  0.00    -0.308 N 
ATOM     19  C8  <0> d           1.160  -0.799  -3.325  0.00  0.00    -0.003 A 
ATOM     20  H16 <0> d          -0.462   0.310  -2.800  0.00  0.00     0.186 HD
ATOM     21  C7  <0> d           2.112  -1.460  -2.544  0.00  0.00    -0.023 A 
ATOM     22  H13 <0> d           1.133  -0.777  -4.405  0.00  0.00     0.113 H 
ATOM     23  C6  <0> d           1.799  -1.247  -1.236  0.00  0.00     0.117 A 
ATOM     24  H12 <0> d           2.947  -2.038  -2.913  0.00  0.00     0.091 H 
BRANCH  23  25
ATOM     25  N3  <0> d           2.497  -1.732  -0.134  0.00  0.00    -0.384 N 
ATOM     26  H14 <0> d           2.192  -1.523   0.763  0.00  0.00     0.157 HD
ATOM     27  H15 <0> d           3.287  -2.279  -0.263  0.00  0.00     0.157 HD
ENDBRANCH  23  25
ENDBRANCH   1  17
TORSDOF 6
