REMARK  0 active torsions:
REMARK  status: ('A' for Active; 'I' for Inactive)
ROOT
ATOM      1  C1  <0> d          -0.019   1.567   0.011  0.00  0.00    -0.064 C 
ATOM      2  C2  <0> d           1.476   2.016  -0.001  0.00  0.00    -0.061 C 
ATOM      3  C3  <0> d           2.242   0.729  -0.278  0.00  0.00    -0.046 C 
ATOM      4  H1  <0> d           2.234   0.481  -1.339  0.00  0.00     0.041 H 
ATOM      5  C4  <0> d           3.630   0.481   0.346  0.00  0.00    -0.050 C 
ATOM      6  H2  <0> d           4.272   1.351   0.480  0.00  0.00     0.040 H 
ATOM      7  C5  <0> d           4.135  -0.661  -0.617  0.00  0.00    -0.061 C 
ATOM      8  C6  <0> d           3.113  -1.798  -0.350  0.00  0.00    -0.061 C 
ATOM      9  C7  <0> d           2.281  -1.365   0.886  0.00  0.00    -0.050 C 
ATOM     10  H3  <0> d           1.871  -2.182   1.480  0.00  0.00     0.040 H 
ATOM     11  C8  <0> d           3.361  -0.412   1.613  0.00  0.00    -0.058 C 
ATOM     12  C9  <0> d           1.341  -0.257   0.564  0.00  0.00    -0.046 C 
ATOM     13  H4  <0> d           1.260   0.237   1.532  0.00  0.00     0.041 H 
ATOM     14  C10 <0> d           0.002  -0.004   0.002  0.00  0.00    -0.061 C 
ATOM     15  H5  <0> d          -0.514   1.931   0.911  0.00  0.00     0.033 H 
ATOM     16  H6  <0> d          -0.531   1.941  -0.876  0.00  0.00     0.033 H 
ATOM     17  H7  <0> d           1.651   2.743  -0.794  0.00  0.00     0.033 H 
ATOM     18  H8  <0> d           1.760   2.429   0.967  0.00  0.00     0.033 H 
ATOM     19  H9  <0> d           4.092  -0.338  -1.657  0.00  0.00     0.033 H 
ATOM     20  H10 <0> d           5.143  -0.976  -0.349  0.00  0.00     0.033 H 
ATOM     21  H11 <0> d           2.460  -1.924  -1.214  0.00  0.00     0.033 H 
ATOM     22  H12 <0> d           3.638  -2.730  -0.140  0.00  0.00     0.033 H 
ATOM     23  H13 <0> d           4.246  -0.971   1.916  0.00  0.00     0.034 H 
ATOM     24  H14 <0> d           2.943   0.163   2.439  0.00  0.00     0.034 H 
ATOM     25  H15 <0> d          -0.779  -0.413   0.644  0.00  0.00     0.033 H 
ATOM     26  H16 <0> d          -0.080  -0.394  -1.012  0.00  0.00     0.033 H 
ENDROOT
TORSDOF 0
