REMARK  3 active torsions:
REMARK  status: ('A' for Active; 'I' for Inactive)
REMARK    1  A    between atoms: C1_1  and  C2_2 
REMARK    2  A    between atoms: C4_4  and  C6_7 
REMARK    3  A    between atoms: C6_7  and  O1_8 
ROOT
ATOM      1  C2  <0> d           1.300   2.079   0.001  0.00  0.00    -0.054 A 
ATOM      2  C3  <0> d           2.220   1.048  -0.013  0.00  0.00    -0.062 A 
ATOM      3  C4  <0> d           1.773  -0.232  -0.016  0.00  0.00     0.006 A 
ATOM      4  S1  <0> d           0.002  -0.004   0.002  0.00  0.00    -0.104 SA
ATOM      5  C5  <0> d          -0.022   1.781   0.012  0.00  0.00    -0.039 A 
ATOM      6  H4  <0> d           3.279   1.258  -0.023  0.00  0.00     0.086 H 
ATOM      7  H5  <0> d          -0.870   2.450   0.020  0.00  0.00     0.095 H 
ENDROOT
BRANCH   3   8
ATOM      8  C6  <0> d           2.564  -1.514  -0.031  0.00  0.00     0.046 C 
ATOM      9  H6  <0> d           1.993  -2.288  -0.543  0.00  0.00     0.082 H 
ATOM     10  H7  <0> d           3.508  -1.352  -0.553  0.00  0.00     0.082 H 
BRANCH   8  11
ATOM     11  O1  <0> d           2.828  -1.927   1.312  0.00  0.00    -0.396 OA
ATOM     12  H8  <0> d           3.335  -2.747   1.378  0.00  0.00     0.209 HD
ENDBRANCH   8  11
ENDBRANCH   3   8
BRANCH   1  13
ATOM     13  C1  <0> d           1.760   3.514   0.004  0.00  0.00    -0.051 C 
ATOM     14  H1  <0> d           1.881   3.855   1.032  0.00  0.00     0.033 H 
ATOM     15  H2  <0> d           2.713   3.591  -0.519  0.00  0.00     0.033 H 
ATOM     16  H3  <0> d           1.019   4.135  -0.500  0.00  0.00     0.033 H 
ENDBRANCH   1  13
TORSDOF 3
