REMARK  3 active torsions:
REMARK  status: ('A' for Active; 'I' for Inactive)
REMARK    1  A    between atoms: C1_1  and  C2_2 
REMARK    2  A    between atoms: C2_2  and  C3_4 
REMARK    3  A    between atoms: C2_2  and  O1_10 
ROOT
ATOM      1  C3  <0> d           0.731  -0.503   1.223  0.00  0.00     0.084 A 
ATOM      2  C4  <0> d           0.229  -1.406   2.166  0.00  0.00    -0.039 A 
ATOM      3  C5  <0> d           1.183  -1.600   3.106  0.00  0.00    -0.002 A 
ATOM      4  N1  <0> d           2.251  -0.847   2.769  0.00  0.00    -0.289 N 
ATOM      5  H2  <0> d           3.084  -0.787   3.261  0.00  0.00     0.188 HD
ATOM      6  N2  <0> d           1.945  -0.172   1.581  0.00  0.00    -0.177 NA
ATOM      7  H6  <0> d          -0.748  -1.866   2.148  0.00  0.00     0.088 H 
ATOM      8  H7  <0> d           1.103  -2.242   3.970  0.00  0.00     0.113 H 
ENDROOT
BRANCH   1   9
ATOM      9  C2  <0> d           0.002  -0.004   0.002  0.00  0.00     0.075 C 
ATOM     10  H1  <0> d          -1.020  -0.381   0.010  0.00  0.00     0.092 H 
BRANCH   9  11
ATOM     11  C1  <0> d          -0.019   1.526   0.010  0.00  0.00    -0.047 C 
ATOM     12  H3  <0> d           1.004   1.903   0.003  0.00  0.00     0.031 H 
ATOM     13  H4  <0> d          -0.546   1.887  -0.873  0.00  0.00     0.031 H 
ATOM     14  H5  <0> d          -0.529   1.877   0.907  0.00  0.00     0.031 H 
ENDBRANCH   9  11
BRANCH   9  15
ATOM     15  O1  <0> d           0.671  -0.465  -1.174  0.00  0.00    -0.390 OA
ATOM     16  H8  <0> d           0.256  -0.181  -1.999  0.00  0.00     0.210 HD
ENDBRANCH   9  15
ENDBRANCH   1   9
TORSDOF 3
