REMARK  3 active torsions:
REMARK  status: ('A' for Active; 'I' for Inactive)
REMARK    1  A    between atoms: C1_1  and  C2_2 
REMARK    2  A    between atoms: C2_2  and  C3_4 
REMARK    3  A    between atoms: C4_5  and  N2_10 
ROOT
ATOM      1  C3  <0> d           1.102  -0.662   0.003  0.00  0.00     0.127 A 
ATOM      2  C4  <0> d          -0.064   0.119   0.032  0.00  0.00     0.058 A 
ATOM      3  C5  <0> d           0.056   1.510   0.024  0.00  0.00    -0.054 A 
ATOM      4  C6  <0> d           1.323   2.061  -0.014  0.00  0.00    -0.064 A 
ATOM      5  C7  <0> d           2.432   1.224  -0.042  0.00  0.00     0.003 A 
ATOM      6  N1  <0> d           2.299  -0.082  -0.033  0.00  0.00    -0.255 NA
ATOM      7  H4  <0> d          -0.820   2.141   0.041  0.00  0.00     0.087 H 
ATOM      8  H5  <0> d           1.450   3.133  -0.022  0.00  0.00     0.085 H 
ATOM      9  H6  <0> d           3.422   1.656  -0.071  0.00  0.00     0.114 H 
ENDROOT
BRANCH   1  10
ATOM     10  C2  <0> d           1.000  -2.128   0.011  0.00  0.00     0.176 C 
ATOM     11  O1  <0> d          -0.086  -2.661  -0.068  0.00  0.00    -0.291 OA
BRANCH  10  12
ATOM     12  C1  <0> d           2.246  -2.969   0.119  0.00  0.00    -0.015 C 
ATOM     13  H1  <0> d           3.047  -2.373   0.175  0.00  0.00     0.038 H 
ATOM     14  H2  <0> d           2.191  -3.588   1.014  0.00  0.00     0.038 H 
ATOM     15  H3  <0> d           2.330  -3.608  -0.760  0.00  0.00     0.038 H 
ENDBRANCH  10  12
ENDBRANCH   1  10
BRANCH   2  16
ATOM     16  N2  <0> d          -1.314  -0.480   0.070  0.00  0.00    -0.397 N 
ATOM     17  H7  <0> d          -2.110   0.064   0.174  0.00  0.00     0.156 HD
ATOM     18  H8  <0> d          -1.392  -1.444  -0.007  0.00  0.00     0.156 HD
ENDBRANCH   2  16
TORSDOF 3
