REMARK  0 active torsions:
REMARK  status: ('A' for Active; 'I' for Inactive)
ROOT
ATOM      1  C1  <0> d          -0.256   5.592   0.034  0.00  0.00    -0.038 A 
ATOM      2  C2  <0> d          -1.596   5.713   0.048  0.00  0.00    -0.020 A 
ATOM      3  N1  <0> d          -2.176   4.478   0.047  0.00  0.00    -0.364 N 
ATOM      4  H1  <0> d          -3.131   4.310   0.056  0.00  0.00     0.165 HD
ATOM      5  C3  <0> d          -1.201   3.505   0.032  0.00  0.00     0.062 A 
ATOM      6  C4  <0> d           0.047   4.161   0.024  0.00  0.00     0.084 A 
ATOM      7  N2  <0> d           1.181   3.464   0.009  0.00  0.00    -0.257 NA
ATOM      8  C5  <0> d           1.182   2.152   0.002  0.00  0.00     0.023 A 
ATOM      9  C6  <0> d          -0.017   1.428   0.010  0.00  0.00     0.064 A 
ATOM     10  C7  <0> d          -1.234   2.118   0.019  0.00  0.00    -0.033 A 
ATOM     11  C8  <0> d           0.002  -0.004   0.002  0.00  0.00     0.101 C 
ATOM     12  N3  <0> d           0.018  -1.140  -0.004  0.00  0.00    -0.191 NA
ATOM     13  H2  <0> d           0.461   6.400   0.031  0.00  0.00     0.089 H 
ATOM     14  H3  <0> d          -2.134   6.650   0.058  0.00  0.00     0.111 H 
ATOM     15  H4  <0> d           2.123   1.621  -0.009  0.00  0.00     0.117 H 
ATOM     16  H5  <0> d          -2.174   1.585   0.021  0.00  0.00     0.089 H 
ENDROOT
TORSDOF 0
