REMARK  1 active torsions:
REMARK  status: ('A' for Active; 'I' for Inactive)
REMARK    1  A    between atoms: C4_4  and  N1_8 
ROOT
ATOM      1  C1  <0> d          -1.220   1.750   0.017  0.00  0.00    -0.059 A 
ATOM      2  C2  <0> d          -0.013   1.076   0.008  0.00  0.00    -0.042 A 
ATOM      3  C3  <0> d           1.175   1.783   0.000  0.00  0.00     0.142 A 
ATOM      4  C4  <0> d           1.155   3.174   0.008  0.00  0.00     0.066 A 
ATOM      5  C5  <0> d          -0.058   3.847   0.023  0.00  0.00    -0.034 A 
ATOM      6  C6  <0> d          -1.243   3.134   0.031  0.00  0.00     0.036 A 
ATOM      7 Cl1  <0> d          -2.761   3.975   0.049  0.00  0.00    -0.084 Cl
ATOM      8  F1  <0> d           2.355   1.123  -0.015  0.00  0.00    -0.204 F 
ATOM      9  H1  <0> d          -2.147   1.196   0.018  0.00  0.00     0.086 H 
ATOM     10  H2  <0> d           0.002  -0.004   0.002  0.00  0.00     0.088 H 
ATOM     11  H3  <0> d          -0.077   4.927   0.029  0.00  0.00     0.089 H 
ENDROOT
BRANCH   4  12
ATOM     12  N1  <0> d           2.355   3.892   0.001  0.00  0.00    -0.397 N 
ATOM     13  H4  <0> d           3.203   3.420  -0.009  0.00  0.00     0.156 HD
ATOM     14  H5  <0> d           2.340   4.862   0.006  0.00  0.00     0.156 HD
ENDBRANCH   4  12
TORSDOF 1
