REMARK  2 active torsions:
REMARK  status: ('A' for Active; 'I' for Inactive)
REMARK    1  A    between atoms: C1_1  and  C2_2 
REMARK    2  A    between atoms: C3_4  and  C5_7 
ROOT
ATOM      1  C5  <0> d          -1.526  -3.275  -0.009  0.00  0.00     0.056 C 
ATOM      2  C6  <0> d          -2.453  -3.208   1.133  0.00  0.00     0.065 C 
ATOM      3  N2  <0> d          -3.168  -3.157   2.014  0.00  0.00    -0.197 NA
ATOM      4  H5  <0> d          -2.096  -3.307  -0.938  0.00  0.00     0.064 H 
ATOM      5  H6  <0> d          -0.913  -4.173   0.072  0.00  0.00     0.064 H 
ENDROOT
BRANCH   1   6
ATOM      6  C3  <0> d          -0.638  -2.058  -0.007  0.00  0.00     0.072 A 
ATOM      7  N1  <0> d          -1.046  -0.777   0.003  0.00  0.00    -0.231 NA
ATOM      8  C2  <0> d           0.002  -0.004   0.002  0.00  0.00     0.141 A 
ATOM      9  O1  <0> d           1.101  -0.769  -0.013  0.00  0.00    -0.306 OA
ATOM     10  C4  <0> d           0.706  -2.057  -0.014  0.00  0.00     0.045 A 
ATOM     11  H4  <0> d           1.348  -2.926  -0.022  0.00  0.00     0.126 H 
BRANCH   8  12
ATOM     12  C1  <0> d          -0.018   1.503   0.010  0.00  0.00    -0.015 C 
ATOM     13  H1  <0> d           1.004   1.880   0.003  0.00  0.00     0.038 H 
ATOM     14  H2  <0> d          -0.545   1.864  -0.873  0.00  0.00     0.038 H 
ATOM     15  H3  <0> d          -0.529   1.854   0.907  0.00  0.00     0.038 H 
ENDBRANCH   8  12
ENDBRANCH   1   6
TORSDOF 2
