REMARK  1 active torsions:
REMARK  status: ('A' for Active; 'I' for Inactive)
REMARK    1  A    between atoms: C7_8  and  O1_11 
ROOT
ATOM      1  C1  <0> d          -2.397  -0.041   0.025  0.00  0.00    -0.080 A 
ATOM      2  C2  <0> d          -1.191  -0.713   0.010  0.00  0.00    -0.076 A 
ATOM      3  C3  <0> d           0.002  -0.004   0.002  0.00  0.00    -0.044 A 
ATOM      4  C4  <0> d          -0.017   1.373   0.010  0.00  0.00     0.016 A 
ATOM      5  C5  <0> d          -1.230   2.050   0.029  0.00  0.00     0.125 A 
ATOM      6  C6  <0> d          -2.418   1.341   0.033  0.00  0.00    -0.045 A 
ATOM      7  F1  <0> d          -1.250   3.400   0.037  0.00  0.00    -0.205 F 
ATOM      8  C7  <0> d           1.486   1.466  -0.004  0.00  0.00     0.068 A 
ATOM      9  H1  <0> d           1.904   1.903   0.902  0.00  0.00     0.091 H 
ATOM     10  C8  <0> d           1.507  -0.056  -0.013  0.00  0.00    -0.012 A 
ATOM     11  H2  <0> d          -3.324  -0.595   0.032  0.00  0.00     0.083 H 
ATOM     12  H3  <0> d          -1.176  -1.793   0.004  0.00  0.00     0.084 H 
ATOM     13  H4  <0> d          -3.362   1.867   0.044  0.00  0.00     0.088 H 
ATOM     14  H5  <0> d           1.937  -0.491   0.889  0.00  0.00     0.044 H 
ATOM     15  H6  <0> d           1.920  -0.482  -0.927  0.00  0.00     0.044 H 
ENDROOT
BRANCH   8  16
ATOM     16  O1  <0> d           2.012   2.052  -1.197  0.00  0.00    -0.390 OA
ATOM     17  H7  <0> d           1.962   3.018  -1.216  0.00  0.00     0.210 HD
ENDBRANCH   8  16
TORSDOF 1
