REMARK  3 active torsions:
REMARK  status: ('A' for Active; 'I' for Inactive)
REMARK    1  A    between atoms: C1_1  and  C2_2 
REMARK    2  A    between atoms: C2_2  and  C3_3 
REMARK    3  A    between atoms: C8_8  and  C9_9 
ROOT
ATOM      1  C9  <0> d          -1.497  -0.308  -2.426  0.00  0.00    -0.077 C 
ATOM      2  C10 <0> d          -0.991  -0.017  -3.445  0.00  0.00    -0.149 C 
ATOM      3  H10 <0> d          -0.537   0.242  -4.356  0.00  0.00     0.166 H 
ENDROOT
BRANCH   1   4
ATOM      4  C8  <0> d          -2.115  -0.662  -1.184  0.00  0.00     0.023 A 
ATOM      5  C3  <0> d          -1.412  -0.526   0.013  0.00  0.00    -0.040 A 
ATOM      6  C4  <0> d          -2.015  -0.864   1.207  0.00  0.00    -0.075 A 
ATOM      7  C5  <0> d          -3.313  -1.343   1.218  0.00  0.00    -0.082 A 
ATOM      8  H6  <0> d          -1.473  -0.754   2.135  0.00  0.00     0.084 H 
ATOM      9  C6  <0> d          -4.014  -1.486   0.034  0.00  0.00    -0.082 A 
ATOM     10  H7  <0> d          -3.780  -1.606   2.156  0.00  0.00     0.083 H 
ATOM     11  C7  <0> d          -3.423  -1.151  -1.166  0.00  0.00    -0.064 A 
ATOM     12  H8  <0> d          -5.027  -1.860   0.050  0.00  0.00     0.083 H 
ATOM     13  H9  <0> d          -3.971  -1.264  -2.090  0.00  0.00     0.085 H 
BRANCH   5  14
ATOM     14  C2  <0> d           0.002  -0.004   0.002  0.00  0.00    -0.043 C 
ATOM     15  H4  <0> d           0.512  -0.356  -0.895  0.00  0.00     0.039 H 
ATOM     16  H5  <0> d           0.529  -0.365   0.885  0.00  0.00     0.039 H 
BRANCH  14  17
ATOM     17  C1  <0> d          -0.019   1.526   0.010  0.00  0.00    -0.073 C 
ATOM     18  H1  <0> d           1.004   1.903   0.003  0.00  0.00     0.028 H 
ATOM     19  H2  <0> d          -0.546   1.887  -0.873  0.00  0.00     0.028 H 
ATOM     20  H3  <0> d          -0.529   1.877   0.907  0.00  0.00     0.028 H 
ENDBRANCH  14  17
ENDBRANCH   5  14
ENDBRANCH   1   4
TORSDOF 3
