REMARK  5 active torsions:
REMARK  status: ('A' for Active; 'I' for Inactive)
REMARK    1  A    between atoms: C1_1  and  C2_2 
REMARK    2  A    between atoms: C2_2  and  C3_3 
REMARK    3  A    between atoms: C3_3  and  C4_4 
REMARK    4  A    between atoms: C4_4  and  C5_5 
REMARK    5  A    between atoms: C5_5  and  C6_7 
ROOT
ATOM      1  C6  <0> d          -0.018   1.468   0.010  0.00  0.00     0.069 C 
ATOM      2  C7  <0> d           0.002  -0.004   0.002  0.00  0.00     0.066 C 
ATOM      3  N1  <0> d           0.018  -1.140  -0.004  0.00  0.00    -0.197 NA
ATOM      4  H10 <0> d          -0.533   1.823   0.915  0.00  0.00     0.066 H 
ATOM      5  H11 <0> d          -0.550   1.832  -0.881  0.00  0.00     0.066 H 
ENDROOT
BRANCH   1   6
ATOM      6  C5  <0> d           1.396   1.989  -0.001  0.00  0.00     0.139 C 
ATOM      7  O1  <0> d           2.324   1.217  -0.014  0.00  0.00    -0.297 OA
BRANCH   6   8
ATOM      8  C4  <0> d           1.651   3.475   0.005  0.00  0.00    -0.009 C 
ATOM      9  H8  <0> d           1.211   3.919   0.910  0.00  0.00     0.044 H 
ATOM     10  H9  <0> d           1.194   3.929  -0.886  0.00  0.00     0.044 H 
BRANCH   8  11
ATOM     11  C3  <0> d           3.159   3.733  -0.008  0.00  0.00    -0.059 C 
ATOM     12  H6  <0> d           3.599   3.289  -0.913  0.00  0.00     0.033 H 
ATOM     13  H7  <0> d           3.617   3.279   0.883  0.00  0.00     0.033 H 
BRANCH  11  14
ATOM     14  C2  <0> d           3.418   5.241  -0.002  0.00  0.00    -0.068 C 
ATOM     15  H4  <0> d           2.978   5.685   0.902  0.00  0.00     0.032 H 
ATOM     16  H5  <0> d           2.961   5.695  -0.894  0.00  0.00     0.032 H 
BRANCH  14  17
ATOM     17  C1  <0> d           4.926   5.499  -0.015  0.00  0.00    -0.077 C 
ATOM     18  H1  <0> d           5.112   6.583  -0.011  0.00  0.00     0.027 H 
ATOM     19  H2  <0> d           5.367   5.055  -0.920  0.00  0.00     0.027 H 
ATOM     20  H3  <0> d           5.384   5.045   0.876  0.00  0.00     0.027 H 
ENDBRANCH  14  17
ENDBRANCH  11  14
ENDBRANCH   8  11
ENDBRANCH   6   8
ENDBRANCH   1   6
TORSDOF 5
