REMARK  6 active torsions:
REMARK  status: ('A' for Active; 'I' for Inactive)
REMARK    1  A    between atoms: C1_1  and  C2_2 
REMARK    2  A    between atoms: C2_2  and  C3_3 
REMARK    3  A    between atoms: C3_3  and  C4_4 
REMARK    4  A    between atoms: C4_4  and  O1_5 
REMARK    5  A    between atoms: O1_5  and  C5_6 
REMARK    6  A    between atoms: C7_9  and  C8_11 
ROOT
ATOM      1  C4  <0> d           3.500   0.705   0.979  0.00  0.00     0.020 C 
ATOM      2  H10 <0> d           3.828   1.567   0.380  0.00  0.00     0.074 H 
ATOM      3  H11 <0> d           3.738  -0.226   0.443  0.00  0.00     0.074 H 
ENDROOT
BRANCH   1   4
ATOM      4  C3  <0> d           4.224   0.716   2.327  0.00  0.00    -0.045 C 
ATOM      5  H8  <0> d           3.897  -0.146   2.926  0.00  0.00     0.036 H 
ATOM      6  H9  <0> d           3.986   1.647   2.863  0.00  0.00     0.036 H 
BRANCH   4   7
ATOM      7  C2  <0> d           5.734   0.633   2.095  0.00  0.00    -0.067 C 
ATOM      8  H6  <0> d           6.061   1.496   1.496  0.00  0.00     0.032 H 
ATOM      9  H7  <0> d           5.972  -0.297   1.559  0.00  0.00     0.032 H 
BRANCH   7  10
ATOM     10  C1  <0> d           6.458   0.645   3.443  0.00  0.00    -0.076 C 
ATOM     11  H3  <0> d           7.544   0.585   3.277  0.00  0.00     0.027 H 
ATOM     12  H4  <0> d           6.131  -0.218   4.043  0.00  0.00     0.027 H 
ATOM     13  H5  <0> d           6.220   1.575   3.979  0.00  0.00     0.027 H 
ENDBRANCH   7  10
ENDBRANCH   4   7
ENDBRANCH   1   4
BRANCH   1  14
ATOM     14  O1  <0> d           2.090   0.783   1.195  0.00  0.00    -0.385 OA
BRANCH  14  15
ATOM     15  C5  <0> d           1.317   0.779  -0.006  0.00  0.00     0.052 A 
ATOM     16  H1  <0> d           2.237   0.795  -0.608  0.00  0.00     0.084 H 
ATOM     17  C7  <0> d          -0.019   1.526   0.010  0.00  0.00     0.058 A 
ATOM     18  C6  <0> d           0.002  -0.004   0.002  0.00  0.00    -0.025 A 
ATOM     19  H2  <0> d          -0.476   2.300   0.644  0.00  0.00     0.060 H 
ATOM     20  H12 <0> d          -0.056  -0.632  -0.899  0.00  0.00     0.038 H 
ATOM     21  H13 <0> d          -0.039  -0.642   0.897  0.00  0.00     0.038 H 
BRANCH  17  22
ATOM     22  C8  <0> d          -0.442   2.223  -1.257  0.00  0.00     0.179 C 
ATOM     23  O2  <0> d           0.265   2.178  -2.236  0.00  0.00    -0.648 OA
ATOM     24  O3  <0> d          -1.604   2.893  -1.298  0.00  0.00    -0.648 OA
ENDBRANCH  17  22
ENDBRANCH  14  15
ENDBRANCH   1  14
TORSDOF 6
