REMARK  0 active torsions:
REMARK  status: ('A' for Active; 'I' for Inactive)
ROOT
ATOM      1  C1  <0> d          -0.017   1.379   0.010  0.00  0.00    -0.082 A 
ATOM      2  C2  <0> d           1.170   2.089   0.002  0.00  0.00    -0.081 A 
ATOM      3  C3  <0> d           2.378   1.420  -0.013  0.00  0.00    -0.057 A 
ATOM      4  C4  <0> d           2.400   0.032  -0.021  0.00  0.00     0.041 A 
ATOM      5  C5  <0> d           1.207  -0.679  -0.013  0.00  0.00    -0.031 A 
ATOM      6  C6  <0> d           0.002  -0.004   0.002  0.00  0.00    -0.075 A 
ATOM      7  C7  <0> d           1.231  -2.185  -0.021  0.00  0.00    -0.031 C 
ATOM      8  C8  <0> d           2.428  -2.673  -0.839  0.00  0.00     0.013 C 
ATOM      9  C9  <0> d           3.672  -1.943  -0.411  0.00  0.00     0.222 C 
ATOM     10  O1  <0> d           4.736  -2.526  -0.405  0.00  0.00    -0.273 OA
ATOM     11  N1  <0> d           3.619  -0.652  -0.036  0.00  0.00    -0.327 N 
ATOM     12  H1  <0> d          -0.960   1.905   0.026  0.00  0.00     0.083 H 
ATOM     13  H2  <0> d           1.151   3.169   0.008  0.00  0.00     0.083 H 
ATOM     14  H3  <0> d           3.304   1.976  -0.020  0.00  0.00     0.086 H 
ATOM     15  H4  <0> d          -0.926  -0.556   0.008  0.00  0.00     0.084 H 
ATOM     16  H5  <0> d           1.317  -2.552   1.002  0.00  0.00     0.040 H 
ATOM     17  H6  <0> d           0.310  -2.561  -0.465  0.00  0.00     0.040 H 
ATOM     18  H7  <0> d           2.562  -3.743  -0.680  0.00  0.00     0.047 H 
ATOM     19  H8  <0> d           2.243  -2.485  -1.897  0.00  0.00     0.047 H 
ATOM     20  H9  <0> d           4.433  -0.192   0.225  0.00  0.00     0.169 HD
ENDROOT
TORSDOF 0
