REMARK  2 active torsions:
REMARK  status: ('A' for Active; 'I' for Inactive)
REMARK    1  A    between atoms: C1_1  and  C2_2 
REMARK    2  A    between atoms: C7_10  and  C8_12 
ROOT
ATOM      1  C2  <0> d           1.407  -0.545  -0.015  0.00  0.00    -0.036 A 
ATOM      2  H1  <0> d           1.580  -1.191   0.859  0.00  0.00     0.046 H 
ATOM      3  C3  <0> d           0.002  -0.004   0.002  0.00  0.00    -0.102 A 
ATOM      4  C4  <0> d          -0.015   1.295   0.009  0.00  0.00    -0.101 A 
ATOM      5  C5  <0> d           1.374   1.875  -0.001  0.00  0.00    -0.020 A 
ATOM      6  H2  <0> d           1.156   2.796   0.559  0.00  0.00     0.048 H 
ATOM      7  C6  <0> d           2.341   0.678  -0.023  0.00  0.00    -0.027 A 
ATOM      8  H3  <0> d           3.219   0.263   0.494  0.00  0.00     0.043 H 
ATOM      9  C7  <0> d           2.273   1.635  -1.215  0.00  0.00     0.042 A 
ATOM     10  H4  <0> d           2.112   1.526  -2.298  0.00  0.00     0.058 H 
ATOM     11  H8  <0> d          -0.943  -0.567   0.009  0.00  0.00     0.076 H 
ATOM     12  H9  <0> d          -0.975   1.832   0.021  0.00  0.00     0.077 H 
ENDROOT
BRANCH   1  13
ATOM     13  C1  <0> d           1.631  -1.387  -1.273  0.00  0.00    -0.069 C 
ATOM     14  H5  <0> d           0.958  -2.258  -1.256  0.00  0.00     0.028 H 
ATOM     15  H6  <0> d           2.675  -1.731  -1.303  0.00  0.00     0.028 H 
ATOM     16  H7  <0> d           1.419  -0.778  -2.164  0.00  0.00     0.028 H 
ENDBRANCH   1  13
BRANCH   9  17
ATOM     17  C8  <0> d           3.433   2.577  -1.417  0.00  0.00     0.178 C 
ATOM     18  O1  <0> d           4.368   2.556  -0.653  0.00  0.00    -0.648 OA
ATOM     19  O2  <0> d           3.426   3.438  -2.446  0.00  0.00    -0.648 OA
ENDBRANCH   9  17
TORSDOF 2
