REMARK  4 active torsions:
REMARK  status: ('A' for Active; 'I' for Inactive)
REMARK    1  A    between atoms: C1_1  and  C2_2 
REMARK    2  A    between atoms: C2_2  and  C3_3 
REMARK    3  A    between atoms: C7_7  and  C9_10 
REMARK    4  A    between atoms: C8_8  and  O1_9 
ROOT
ATOM      1  C3  <0> d           1.170   2.086   0.002  0.00  0.00    -0.025 A 
ATOM      2  C4  <0> d          -0.017   1.378   0.010  0.00  0.00    -0.074 A 
ATOM      3  C5  <0> d           0.002  -0.004   0.002  0.00  0.00    -0.082 A 
ATOM      4  C6  <0> d           1.208  -0.681  -0.013  0.00  0.00    -0.074 A 
ATOM      5  C7  <0> d           2.396   0.022  -0.021  0.00  0.00    -0.028 A 
ATOM      6  C8  <0> d           2.380   1.409  -0.014  0.00  0.00     0.077 A 
ATOM      7  H6  <0> d          -0.960   1.905   0.017  0.00  0.00     0.084 H 
ATOM      8  H7  <0> d          -0.926  -0.556   0.008  0.00  0.00     0.083 H 
ATOM      9  H8  <0> d           1.220  -1.761  -0.018  0.00  0.00     0.084 H 
ENDROOT
BRANCH   1  10
ATOM     10  C2  <0> d           1.149   3.593   0.010  0.00  0.00    -0.042 C 
ATOM     11  H4  <0> d           0.216   3.941   0.455  0.00  0.00     0.039 H 
ATOM     12  H5  <0> d           1.991   3.965   0.593  0.00  0.00     0.039 H 
BRANCH  10  13
ATOM     13  C1  <0> d           1.254   4.112  -1.425  0.00  0.00    -0.073 C 
ATOM     14  H1  <0> d           0.411   3.740  -2.009  0.00  0.00     0.028 H 
ATOM     15  H2  <0> d           1.238   5.202  -1.420  0.00  0.00     0.028 H 
ATOM     16  H3  <0> d           2.186   3.764  -1.870  0.00  0.00     0.028 H 
ENDBRANCH  10  13
ENDBRANCH   1  10
BRANCH   6  17
ATOM     17  O1  <0> d           3.548   2.104  -0.021  0.00  0.00    -0.360 OA
ATOM     18  H9  <0> d           3.878   2.309  -0.907  0.00  0.00     0.217 HD
ENDBRANCH   6  17
BRANCH   5  19
ATOM     19  C9  <0> d           3.710  -0.717  -0.037  0.00  0.00    -0.049 C 
ATOM     20  H10 <0> d           4.016  -0.890  -1.068  0.00  0.00     0.033 H 
ATOM     21  H11 <0> d           4.468  -0.122   0.472  0.00  0.00     0.033 H 
ATOM     22  H12 <0> d           3.595  -1.673   0.474  0.00  0.00     0.033 H 
ENDBRANCH   5  19
TORSDOF 4
