REMARK  3 active torsions:
REMARK  status: ('A' for Active; 'I' for Inactive)
REMARK    1  A    between atoms: C1_1  and  O1_2 
REMARK    2  A    between atoms: O1_2  and  C2_3 
REMARK    3  A    between atoms: C2_3  and  C3_5 
ROOT
ATOM      1  C3  <0> d           1.161   1.816   0.001  0.00  0.00     0.080 A 
ATOM      2  C4  <0> d          -0.013   1.076   0.008  0.00  0.00    -0.060 A 
ATOM      3  C5  <0> d          -1.192   1.776   0.017  0.00  0.00    -0.075 A 
ATOM      4  C6  <0> d          -1.158   3.135   0.030  0.00  0.00    -0.044 A 
ATOM      5  S1  <0> d           0.539   3.488   0.016  0.00  0.00    -0.096 SA
ATOM      6  H4  <0> d           0.002  -0.004   0.002  0.00  0.00     0.085 H 
ATOM      7  H5  <0> d          -2.138   1.253   0.019  0.00  0.00     0.084 H 
ATOM      8  H6  <0> d          -1.987   3.827   0.041  0.00  0.00     0.095 H 
ENDROOT
BRANCH   1   9
ATOM      9  C2  <0> d           2.547   1.347  -0.015  0.00  0.00     0.299 C 
ATOM     10  O2  <0> d           2.786   0.154  -0.023  0.00  0.00    -0.259 OA
BRANCH   9  11
ATOM     11  O1  <0> d           3.561   2.237  -0.020  0.00  0.00    -0.322 OA
BRANCH  11  12
ATOM     12  C1  <0> d           4.910   1.701  -0.035  0.00  0.00     0.013 C 
ATOM     13  H1  <0> d           5.627   2.522  -0.038  0.00  0.00     0.067 H 
ATOM     14  H2  <0> d           5.066   1.085   0.850  0.00  0.00     0.067 H 
ATOM     15  H3  <0> d           5.049   1.094  -0.929  0.00  0.00     0.067 H 
ENDBRANCH  11  12
ENDBRANCH   9  11
ENDBRANCH   1   9
TORSDOF 3
