REMARK  2 active torsions:
REMARK  status: ('A' for Active; 'I' for Inactive)
REMARK    1  A    between atoms: C1_1  and  O1_2 
REMARK    2  A    between atoms: O1_2  and  C2_3 
ROOT
ATOM      1  C2  <0> d           0.002  -0.004   0.002  0.00  0.00     0.038 C 
ATOM      2  C3  <0> d           0.004  -0.505  -1.443  0.00  0.00    -0.035 C 
ATOM      3  C4  <0> d           0.118  -2.033  -1.453  0.00  0.00    -0.007 C 
ATOM      4  C5  <0> d          -0.991  -2.603  -0.597  0.00  0.00     0.127 C 
ATOM      5  O2  <0> d          -1.719  -3.467  -1.023  0.00  0.00    -0.298 OA
ATOM      6  C6  <0> d          -1.166  -2.062   0.805  0.00  0.00    -0.007 C 
ATOM      7  C7  <0> d          -1.233  -0.533   0.732  0.00  0.00    -0.035 C 
ATOM      8  H4  <0> d           0.901  -0.357   0.508  0.00  0.00     0.083 H 
ATOM      9  H5  <0> d          -0.923  -0.206  -1.933  0.00  0.00     0.037 H 
ATOM     10  H6  <0> d           0.852  -0.073  -1.976  0.00  0.00     0.037 H 
ATOM     11  H7  <0> d           1.008  -2.303  -1.085  0.00  0.00     0.044 H 
ATOM     12  H8  <0> d           0.019  -2.401  -2.474  0.00  0.00     0.044 H 
ATOM     13  H9  <0> d          -0.391  -2.345   1.370  0.00  0.00     0.044 H 
ATOM     14  H10 <0> d          -2.090  -2.450   1.234  0.00  0.00     0.044 H 
ATOM     15  H11 <0> d          -1.263  -0.122   1.742  0.00  0.00     0.037 H 
ATOM     16  H12 <0> d          -2.131  -0.234   0.192  0.00  0.00     0.037 H 
ENDROOT
BRANCH   1  17
ATOM     17  O1  <0> d          -0.017   1.425   0.010  0.00  0.00    -0.391 OA
BRANCH  17  18
ATOM     18  C1  <0> d           1.280   2.024   0.001  0.00  0.00     0.004 C 
ATOM     19  H1  <0> d           1.834   1.705   0.884  0.00  0.00     0.066 H 
ATOM     20  H2  <0> d           1.817   1.714  -0.896  0.00  0.00     0.066 H 
ATOM     21  H3  <0> d           1.179   3.109   0.007  0.00  0.00     0.066 H 
ENDBRANCH  17  18
ENDBRANCH   1  17
TORSDOF 2
