REMARK  3 active torsions:
REMARK  status: ('A' for Active; 'I' for Inactive)
REMARK    1  A    between atoms: C1_1  and  O1_2 
REMARK    2  A    between atoms: O1_2  and  C2_3 
REMARK    3  A    between atoms: C5_6  and  C6_8 
ROOT
ATOM      1  C2  <0> d           1.242   1.809  -0.000  0.00  0.00     0.185 A 
ATOM      2  C3  <0> d           2.098   0.751  -0.014  0.00  0.00    -0.024 A 
ATOM      3  C4  <0> d           1.320  -0.411  -0.013  0.00  0.00    -0.039 A 
ATOM      4  C5  <0> d           0.002  -0.004   0.002  0.00  0.00     0.154 A 
ATOM      5  O2  <0> d          -0.016   1.348   0.009  0.00  0.00    -0.281 OA
ATOM      6  H4  <0> d           3.177   0.800  -0.025  0.00  0.00     0.091 H 
ATOM      7  H5  <0> d           1.681  -1.429  -0.022  0.00  0.00     0.088 H 
ENDROOT
BRANCH   1   8
ATOM      8  O1  <0> d           1.602   3.114   0.003  0.00  0.00    -0.335 OA
BRANCH   8   9
ATOM      9  C1  <0> d           0.547   4.078   0.018  0.00  0.00     0.012 C 
ATOM     10  H1  <0> d          -0.059   3.939   0.914  0.00  0.00     0.067 H 
ATOM     11  H2  <0> d           0.973   5.082   0.019  0.00  0.00     0.067 H 
ATOM     12  H3  <0> d          -0.076   3.949  -0.866  0.00  0.00     0.067 H 
ENDBRANCH   8   9
ENDBRANCH   1   8
BRANCH   4  13
ATOM     13  C6  <0> d          -1.132  -0.853   0.009  0.00  0.00     0.234 C 
ATOM     14  O3  <0> d          -0.987  -2.061   0.002  0.00  0.00    -0.642 OA
ATOM     15  O4  <0> d          -2.372  -0.322   0.024  0.00  0.00    -0.642 OA
ENDBRANCH   4  13
TORSDOF 3
