REMARK  9 active torsions:
REMARK  status: ('A' for Active; 'I' for Inactive)
REMARK    1  A    between atoms: C1_1  and  C2_2 
REMARK    2  A    between atoms: C2_2  and  C3_4 
REMARK    3  A    between atoms: C2_2  and  O3_10 
REMARK    4  A    between atoms: C3_4  and  C4_5 
REMARK    5  A    between atoms: C4_5  and  O1_6 
REMARK    6  A    between atoms: C4_5  and  O2_8 
REMARK    7  A    between atoms: O1_6  and  C5_7 
REMARK    8  A    between atoms: O2_8  and  C6_9 
REMARK    9  A    between atoms: O3_10  and  C7_11 
ROOT
ATOM      1  C3  <0> d          -0.331   0.408  -0.121  0.00  0.00     0.005 C 
ATOM      2  H5  <0> d          -0.120  -0.619  -0.416  0.00  0.00     0.044 H 
ATOM      3  H6  <0> d           0.596   0.897   0.181  0.00  0.00     0.044 H 
ENDROOT
BRANCH   1   4
ATOM      4  C2  <0> d          -1.315   0.411   1.051  0.00  0.00     0.039 C 
ATOM      5  H1  <0> d          -1.594   1.438   1.288  0.00  0.00     0.082 H 
BRANCH   4   6
ATOM      6  C1  <0> d          -0.655  -0.233   2.272  0.00  0.00    -0.052 C 
ATOM      7  H2  <0> d           0.236   0.332   2.545  0.00  0.00     0.030 H 
ATOM      8  H3  <0> d          -1.356  -0.232   3.107  0.00  0.00     0.030 H 
ATOM      9  H4  <0> d          -0.376  -1.260   2.034  0.00  0.00     0.030 H 
ENDBRANCH   4   6
BRANCH   4  10
ATOM     10  O3  <0> d          -2.483  -0.330   0.693  0.00  0.00    -0.391 OA
BRANCH  10  11
ATOM     11  C7  <0> d          -3.677   0.123   1.334  0.00  0.00     0.004 C 
ATOM     12  H14 <0> d          -4.518  -0.491   1.011  0.00  0.00     0.066 H 
ATOM     13  H15 <0> d          -3.563   0.041   2.415  0.00  0.00     0.066 H 
ATOM     14  H16 <0> d          -3.861   1.163   1.066  0.00  0.00     0.066 H 
ENDBRANCH  10  11
ENDBRANCH   4  10
ENDBRANCH   1   4
BRANCH   1  15
ATOM     15  C4  <0> d          -0.943   1.163  -1.303  0.00  0.00     0.132 C 
ATOM     16  H7  <0> d          -1.912   0.729  -1.548  0.00  0.00     0.129 H 
BRANCH  15  17
ATOM     17  O1  <0> d          -1.111   2.538  -0.954  0.00  0.00    -0.366 OA
BRANCH  17  18
ATOM     18  C5  <0> d          -2.150   3.199  -1.680  0.00  0.00     0.007 C 
ATOM     19  H8  <0> d          -1.988   3.063  -2.750  0.00  0.00     0.066 H 
ATOM     20  H9  <0> d          -3.114   2.775  -1.402  0.00  0.00     0.066 H 
ATOM     21  H10 <0> d          -2.138   4.263  -1.444  0.00  0.00     0.066 H 
ENDBRANCH  17  18
ENDBRANCH  15  17
BRANCH  15  22
ATOM     22  O2  <0> d          -0.075   1.061  -2.434  0.00  0.00    -0.366 OA
BRANCH  22  23
ATOM     23  C6  <0> d          -0.680   1.453  -3.667  0.00  0.00     0.007 C 
ATOM     24  H11 <0> d          -0.737   2.541  -3.715  0.00  0.00     0.066 H 
ATOM     25  H12 <0> d          -0.081   1.084  -4.500  0.00  0.00     0.066 H 
ATOM     26  H13 <0> d          -1.685   1.034  -3.729  0.00  0.00     0.066 H 
ENDBRANCH  22  23
ENDBRANCH  15  22
ENDBRANCH   1  15
TORSDOF 9
