REMARK  2 active torsions:
REMARK  status: ('A' for Active; 'I' for Inactive)
REMARK    1  A    between atoms: C1_1  and  C2_2 
REMARK    2  A    between atoms: N1_5  and  C7_9 
ROOT
ATOM      1  C2  <0> d           0.039  -2.751  -0.009  0.00  0.00    -0.055 A 
ATOM      2  C3  <0> d           0.041  -2.035   1.196  0.00  0.00    -0.062 A 
ATOM      3  C4  <0> d           0.022  -0.681   1.178  0.00  0.00    -0.017 A 
ATOM      4  N1  <0> d           0.002  -0.004   0.002  0.00  0.00    -0.329 N 
ATOM      5  C5  <0> d          -0.006  -0.663  -1.172  0.00  0.00     0.247 A 
ATOM      6  O1  <0> d          -0.029  -0.040  -2.221  0.00  0.00    -0.268 OA
ATOM      7  C6  <0> d           0.019  -2.068  -1.190  0.00  0.00    -0.011 A 
ATOM      8  H4  <0> d           0.056  -2.562   2.139  0.00  0.00     0.086 H 
ATOM      9  H5  <0> d           0.024  -0.135   2.110  0.00  0.00     0.111 H 
ATOM     10  H6  <0> d           0.017  -2.603  -2.128  0.00  0.00     0.092 H 
ENDROOT
BRANCH   1  11
ATOM     11  C1  <0> d           0.059  -4.258   0.000  0.00  0.00    -0.051 C 
ATOM     12  H1  <0> d          -0.964  -4.634   0.012  0.00  0.00     0.033 H 
ATOM     13  H2  <0> d           0.569  -4.620  -0.892  0.00  0.00     0.033 H 
ATOM     14  H3  <0> d           0.585  -4.609   0.888  0.00  0.00     0.033 H 
ENDBRANCH   1  11
BRANCH   4  15
ATOM     15  C7  <0> d          -0.018   1.461   0.010  0.00  0.00    -0.012 C 
ATOM     16  H7  <0> d           1.005   1.838   0.002  0.00  0.00     0.057 H 
ATOM     17  H8  <0> d          -0.545   1.822  -0.873  0.00  0.00     0.057 H 
ATOM     18  H9  <0> d          -0.528   1.812   0.907  0.00  0.00     0.057 H 
ENDBRANCH   4  15
TORSDOF 2
