REMARK  2 active torsions:
REMARK  status: ('A' for Active; 'I' for Inactive)
REMARK    1  A    between atoms: C2_2  and  C3_3 
REMARK    2  A    between atoms: C6_6  and  C7_8 
ROOT
ATOM      1  C1  <0> d           0.018  -1.178  -0.004  0.00  0.00    -0.148 C 
ATOM      2  C2  <0> d           0.002  -0.004   0.002  0.00  0.00    -0.070 C 
ATOM      3  H1  <0> d           0.032  -2.228  -0.010  0.00  0.00     0.167 H 
ENDROOT
BRANCH   2   4
ATOM      4  C3  <0> d          -0.017   1.428   0.010  0.00  0.00     0.058 A 
ATOM      5  S1  <0> d           1.357   2.568   0.003  0.00  0.00    -0.074 SA
ATOM      6  C6  <0> d           0.425   4.091   0.017  0.00  0.00     0.082 A 
ATOM      7  C5  <0> d          -0.888   3.631   0.035  0.00  0.00    -0.058 A 
ATOM      8  C4  <0> d          -1.111   2.286   0.031  0.00  0.00    -0.057 A 
ATOM      9  H3  <0> d          -1.714   4.326   0.051  0.00  0.00     0.086 H 
ATOM     10  H2  <0> d          -2.117   1.895   0.044  0.00  0.00     0.086 H 
BRANCH   6  11
ATOM     11  C7  <0> d           0.900   5.425   0.017  0.00  0.00     0.216 C 
ATOM     12  O1  <0> d           0.107   6.358   0.034  0.00  0.00    -0.643 OA
ATOM     13  O2  <0> d           2.106   5.645  -0.000  0.00  0.00    -0.643 OA
ENDBRANCH   6  11
ENDBRANCH   2   4
TORSDOF 2
