REMARK  6 active torsions:
REMARK  status: ('A' for Active; 'I' for Inactive)
REMARK    1  A    between atoms: C1_1  and  C2_2 
REMARK    2  A    between atoms: C2_2  and  C3_3 
REMARK    3  A    between atoms: C3_3  and  C4_5 
REMARK    4  A    between atoms: C3_3  and  O1_9 
REMARK    5  A    between atoms: C4_5  and  C5_6 
REMARK    6  A    between atoms: C5_6  and  C6_7 
ROOT
ATOM      1  C3  <0> d           0.011   1.072   2.506  0.00  0.00     0.035 C 
ATOM      2  H1  <0> d           1.057   1.375   2.454  0.00  0.00     0.082 H 
ENDROOT
BRANCH   1   3
ATOM      3  C2  <0> d          -0.729   1.579   1.267  0.00  0.00    -0.044 C 
ATOM      4  H5  <0> d          -0.744   2.669   1.273  0.00  0.00     0.036 H 
ATOM      5  H6  <0> d          -1.751   1.202   1.275  0.00  0.00     0.036 H 
BRANCH   3   6
ATOM      6  C1  <0> d          -0.013   1.086   0.008  0.00  0.00    -0.074 C 
ATOM      7  H2  <0> d           0.002  -0.004   0.002  0.00  0.00     0.027 H 
ATOM      8  H3  <0> d           1.010   1.463   0.000  0.00  0.00     0.027 H 
ATOM      9  H4  <0> d          -0.540   1.447  -0.875  0.00  0.00     0.027 H 
ENDBRANCH   3   6
ENDBRANCH   1   3
BRANCH   1  10
ATOM     10  C4  <0> d          -0.630   1.667   3.762  0.00  0.00    -0.038 C 
ATOM     11  H7  <0> d          -0.648   2.754   3.681  0.00  0.00     0.037 H 
ATOM     12  H8  <0> d          -1.649   1.293   3.861  0.00  0.00     0.037 H 
BRANCH  10  13
ATOM     13  C5  <0> d           0.184   1.261   4.992  0.00  0.00    -0.048 C 
ATOM     14  H9  <0> d           0.203   0.174   5.073  0.00  0.00     0.038 H 
ATOM     15  H10 <0> d           1.203   1.635   4.892  0.00  0.00     0.038 H 
BRANCH  13  16
ATOM     16  C6  <0> d          -0.447   1.847   6.228  0.00  0.00    -0.112 C 
ATOM     17  C7  <0> d          -0.780   1.066   7.226  0.00  0.00    -0.125 C 
ATOM     18  H12 <0> d          -0.602   0.003   7.162  0.00  0.00     0.066 H 
ATOM     19  H13 <0> d          -1.233   1.486   8.112  0.00  0.00     0.066 H 
ATOM     20  H11 <0> d          -0.625   2.910   6.292  0.00  0.00     0.075 H 
ENDBRANCH  13  16
ENDBRANCH  10  13
ENDBRANCH   1  10
BRANCH   1  21
ATOM     21  O1  <0> d          -0.070  -0.353   2.560  0.00  0.00    -0.396 OA
ATOM     22  H14 <0> d          -0.973  -0.695   2.607  0.00  0.00     0.210 HD
ENDBRANCH   1  21
TORSDOF 6
