REMARK  1 active torsions:
REMARK  status: ('A' for Active; 'I' for Inactive)
REMARK    1  A    between atoms: C7_9  and  C8_10 
ROOT
ATOM      1  C8  <0> d          -0.018   1.468   0.010  0.00  0.00     0.054 C 
ATOM      2  C9  <0> d           0.002  -0.004   0.002  0.00  0.00     0.065 C 
ATOM      3  N3  <0> d           0.018  -1.140  -0.004  0.00  0.00    -0.197 NA
ATOM      4  H6  <0> d          -0.550   1.832  -0.881  0.00  0.00     0.064 H 
ATOM      5  H7  <0> d           1.014   1.849   0.002  0.00  0.00     0.064 H 
ENDROOT
BRANCH   1   6
ATOM      6  C7  <0> d          -0.723   1.954   1.250  0.00  0.00     0.048 A 
ATOM      7  N1  <0> d          -2.044   2.297   1.351  0.00  0.00    -0.308 N 
ATOM      8  C3  <0> d          -3.066   2.311   0.447  0.00  0.00    -0.013 A 
ATOM      9  C4  <0> d          -2.260   2.680   2.650  0.00  0.00     0.133 A 
ATOM     10  C2  <0> d          -4.304   2.703   0.815  0.00  0.00    -0.067 A 
ATOM     11  H3  <0> d          -2.883   2.007  -0.573  0.00  0.00     0.112 H 
ATOM     12  C1  <0> d          -4.557   3.101   2.138  0.00  0.00    -0.078 A 
ATOM     13  H2  <0> d          -5.104   2.709   0.090  0.00  0.00     0.085 H 
ATOM     14  C5  <0> d          -3.547   3.092   3.050  0.00  0.00    -0.038 A 
ATOM     15  H1  <0> d          -5.548   3.415   2.430  0.00  0.00     0.083 H 
ATOM     16  H4  <0> d          -3.730   3.396   4.070  0.00  0.00     0.089 H 
ATOM     17  N2  <0> d          -1.113   2.572   3.305  0.00  0.00    -0.241 NA
ATOM     18  C6  <0> d          -0.171   2.127   2.471  0.00  0.00     0.028 A 
ATOM     19  H5  <0> d           0.861   1.939   2.728  0.00  0.00     0.117 H 
ENDBRANCH   1   6
TORSDOF 1
