REMARK  2 active torsions:
REMARK  status: ('A' for Active; 'I' for Inactive)
REMARK    1  A    between atoms: C1_1  and  C2_2 
REMARK    2  A    between atoms: C6_6  and  C8_9 
ROOT
ATOM      1  C8  <0> d           0.052  -2.824   2.417  0.00  0.00    -0.076 C 
ATOM      2  C9  <0> d           0.065  -3.421   3.428  0.00  0.00    -0.149 C 
ATOM      3  H7  <0> d           0.076  -3.955   4.332  0.00  0.00     0.166 H 
ENDROOT
BRANCH   1   4
ATOM      4  C6  <0> d           0.036  -2.096   1.185  0.00  0.00     0.039 A 
ATOM      5  C5  <0> d           0.040  -2.778  -0.032  0.00  0.00    -0.063 A 
ATOM      6  C4  <0> d           0.025  -2.071  -1.217  0.00  0.00    -0.081 A 
ATOM      7  H6  <0> d           0.054  -3.858  -0.047  0.00  0.00     0.085 H 
ATOM      8  C3  <0> d           0.006  -0.688  -1.201  0.00  0.00    -0.075 A 
ATOM      9  H5  <0> d           0.028  -2.598  -2.159  0.00  0.00     0.083 H 
ATOM     10  C2  <0> d           0.002  -0.004   0.002  0.00  0.00    -0.039 A 
ATOM     11  H4  <0> d          -0.007  -0.139  -2.131  0.00  0.00     0.084 H 
ATOM     12  C7  <0> d           0.023  -0.700   1.195  0.00  0.00     0.058 A 
ATOM     13 Cl1  <0> d           0.025   0.160   2.703  0.00  0.00    -0.082 Cl
BRANCH  10  14
ATOM     14  C1  <0> d          -0.018   1.503   0.010  0.00  0.00    -0.050 C 
ATOM     15  H1  <0> d           1.004   1.880   0.003  0.00  0.00     0.033 H 
ATOM     16  H2  <0> d          -0.545   1.864  -0.873  0.00  0.00     0.033 H 
ATOM     17  H3  <0> d          -0.529   1.854   0.907  0.00  0.00     0.033 H 
ENDBRANCH  10  14
ENDBRANCH   1   4
TORSDOF 2
