REMARK  4 active torsions:
REMARK  status: ('A' for Active; 'I' for Inactive)
REMARK    1  A    between atoms: C1_1  and  C2_2 
REMARK    2  A    between atoms: C4_4  and  C8_12 
REMARK    3  A    between atoms: C5_7  and  C6_8 
REMARK    4  A    between atoms: C6_8  and  C7_9 
ROOT
ATOM      1  C2  <0> d           0.002  -0.004   0.002  0.00  0.00    -0.037 A 
ATOM      2  C3  <0> d           0.009  -0.832  -1.138  0.00  0.00    -0.054 A 
ATOM      3  C4  <0> d           0.029  -2.110  -0.709  0.00  0.00     0.006 A 
ATOM      4  N1  <0> d           0.035  -2.102   0.654  0.00  0.00    -0.362 N 
ATOM      5  H1  <0> d           0.048  -2.887   1.224  0.00  0.00     0.165 HD
ATOM      6  C5  <0> d           0.023  -0.808   1.085  0.00  0.00     0.025 A 
ATOM      7  H5  <0> d          -0.001  -0.503  -2.167  0.00  0.00     0.087 H 
ENDROOT
BRANCH   6   8
ATOM      8  C6  <0> d           0.030  -0.355   2.522  0.00  0.00     0.054 C 
ATOM      9  H6  <0> d           0.481  -1.127   3.144  0.00  0.00     0.058 H 
ATOM     10  H7  <0> d           0.608   0.566   2.610  0.00  0.00     0.058 H 
BRANCH   8  11
ATOM     11  C7  <0> d          -1.384  -0.105   2.977  0.00  0.00     0.178 C 
ATOM     12  O1  <0> d          -2.312  -0.279   2.205  0.00  0.00    -0.648 OA
ATOM     13  O2  <0> d          -1.601   0.271   4.116  0.00  0.00    -0.648 OA
ENDBRANCH   8  11
ENDBRANCH   6   8
BRANCH   1  14
ATOM     14  C1  <0> d          -0.018   1.503   0.010  0.00  0.00    -0.049 C 
ATOM     15  H2  <0> d           1.004   1.880   0.003  0.00  0.00     0.033 H 
ATOM     16  H3  <0> d          -0.545   1.864  -0.873  0.00  0.00     0.033 H 
ATOM     17  H4  <0> d          -0.529   1.854   0.907  0.00  0.00     0.033 H 
ENDBRANCH   1  14
BRANCH   3  18
ATOM     18  C8  <0> d           0.042  -3.336  -1.585  0.00  0.00    -0.037 C 
ATOM     19  H8  <0> d           1.072  -3.618  -1.801  0.00  0.00     0.035 H 
ATOM     20  H9  <0> d          -0.459  -4.156  -1.070  0.00  0.00     0.035 H 
ATOM     21  H10 <0> d          -0.479  -3.121  -2.518  0.00  0.00     0.035 H 
ENDBRANCH   3  18
TORSDOF 4
