REMARK  1 active torsions:
REMARK  status: ('A' for Active; 'I' for Inactive)
REMARK    1  A    between atoms: C4_5  and  O2_11 
ROOT
ATOM      1  C1  <0> d           0.843   1.647  -2.259  0.00  0.00    -0.038 C 
ATOM      2  C2  <0> d          -0.430   1.968  -1.434  0.00  0.00    -0.036 C 
ATOM      3  C3  <0> d          -0.019   1.554   0.011  0.00  0.00     0.064 C 
ATOM      4  H1  <0> d          -0.592   2.009   0.818  0.00  0.00     0.087 H 
ATOM      5  C4  <0> d           0.002  -0.004   0.002  0.00  0.00     0.063 C 
ATOM      6  H2  <0> d          -0.887  -0.400  -0.490  0.00  0.00     0.087 H 
ATOM      7  C5  <0> d           1.275  -0.325  -0.822  0.00  0.00    -0.015 C 
ATOM      8  C6  <0> d           1.820   1.090  -1.181  0.00  0.00     0.041 C 
ATOM      9  H3  <0> d           2.880   1.133  -1.431  0.00  0.00     0.083 H 
ATOM     10  O1  <0> d           1.414   1.859  -0.002  0.00  0.00    -0.378 OA
ATOM     11  H4  <0> d           1.246   2.551  -2.715  0.00  0.00     0.036 H 
ATOM     12  H5  <0> d           0.634   0.893  -3.018  0.00  0.00     0.036 H 
ATOM     13  H6  <0> d          -1.275   1.373  -1.781  0.00  0.00     0.037 H 
ATOM     14  H7  <0> d          -0.661   3.033  -1.480  0.00  0.00     0.037 H 
ATOM     15  H8  <0> d           1.997  -0.876  -0.219  0.00  0.00     0.040 H 
ATOM     16  H9  <0> d           1.021  -0.884  -1.723  0.00  0.00     0.040 H 
ENDROOT
BRANCH   5  17
ATOM     17  O2  <0> d           0.117  -0.516   1.331  0.00  0.00    -0.393 OA
ATOM     18  H10 <0> d           0.135  -1.482   1.381  0.00  0.00     0.210 HD
ENDBRANCH   5  17
TORSDOF 1
