REMARK  3 active torsions:
REMARK  status: ('A' for Active; 'I' for Inactive)
REMARK    1  A    between atoms: C1_1  and  C2_2 
REMARK    2  A    between atoms: C2_2  and  C3_4 
REMARK    3  A    between atoms: C3_4  and  C7_10 
ROOT
ATOM      1  C3  <0> d           1.430  -0.505  -0.001  0.00  0.00     0.106 C 
ATOM      2  C4  <0> d           2.259   0.731   0.421  0.00  0.00    -0.022 C 
ATOM      3  C5  <0> d           1.328   1.889  -0.001  0.00  0.00     0.030 C 
ATOM      4  O2  <0> d          -0.016   1.334   0.009  0.00  0.00    -0.320 OA
ATOM      5  C6  <0> d           0.002  -0.004   0.002  0.00  0.00     0.274 C 
ATOM      6  O3  <0> d          -0.979  -0.710  -0.002  0.00  0.00    -0.264 OA
ATOM      7  H4  <0> d           2.429   0.738   1.498  0.00  0.00     0.038 H 
ATOM      8  H5  <0> d           3.204   0.771  -0.122  0.00  0.00     0.038 H 
ATOM      9  H6  <0> d           1.585   2.235  -1.002  0.00  0.00     0.075 H 
ATOM     10  H7  <0> d           1.401   2.711   0.713  0.00  0.00     0.075 H 
ENDROOT
BRANCH   1  11
ATOM     11  C2  <0> d           1.601  -1.621   0.997  0.00  0.00     0.141 C 
ATOM     12  O1  <0> d           2.368  -1.494   1.920  0.00  0.00    -0.297 OA
BRANCH  11  13
ATOM     13  C1  <0> d           0.814  -2.897   0.841  0.00  0.00    -0.020 C 
ATOM     14  H1  <0> d           0.233  -2.834   0.030  0.00  0.00     0.037 H 
ATOM     15  H2  <0> d           1.501  -3.736   0.731  0.00  0.00     0.037 H 
ATOM     16  H3  <0> d           0.192  -3.051   1.723  0.00  0.00     0.037 H 
ENDBRANCH  11  13
ENDBRANCH   1  11
BRANCH   1  17
ATOM     17  C7  <0> d           1.833  -0.969  -1.402  0.00  0.00    -0.053 C 
ATOM     18  H8  <0> d           1.725  -0.142  -2.104  0.00  0.00     0.029 H 
ATOM     19  H9  <0> d           2.871  -1.301  -1.390  0.00  0.00     0.029 H 
ATOM     20  H10 <0> d           1.191  -1.794  -1.711  0.00  0.00     0.029 H 
ENDBRANCH   1  17
TORSDOF 3
