REMARK  2 active torsions:
REMARK  status: ('A' for Active; 'I' for Inactive)
REMARK    1  A    between atoms: C1_1  and  C2_2 
REMARK    2  A    between atoms: C2_2  and  C3_4 
ROOT
ATOM      1  C3  <0> d          -0.000  -0.735  -1.279  0.00  0.00     0.101 A 
ATOM      2  C4  <0> d           0.013  -2.130  -1.280  0.00  0.00    -0.050 A 
ATOM      3  C5  <0> d           0.010  -2.802  -2.491  0.00  0.00    -0.058 A 
ATOM      4  C6  <0> d          -0.005  -2.057  -3.662  0.00  0.00     0.051 A 
ATOM      5  C7  <0> d          -0.018  -0.671  -3.586  0.00  0.00     0.024 A 
ATOM      6  N1  <0> d          -0.020  -0.058  -2.423  0.00  0.00    -0.256 NA
ATOM      7 Cl1  <0> d          -0.009  -2.850  -5.206  0.00  0.00    -0.083 Cl
ATOM      8  H4  <0> d           0.026  -2.679  -0.350  0.00  0.00     0.087 H 
ATOM      9  H5  <0> d           0.021  -3.882  -2.524  0.00  0.00     0.086 H 
ATOM     10  H6  <0> d          -0.030  -0.088  -4.495  0.00  0.00     0.117 H 
ENDROOT
BRANCH   1  11
ATOM     11  C2  <0> d           0.002  -0.004   0.002  0.00  0.00     0.174 C 
ATOM     12  O1  <0> d           0.020  -0.616   1.048  0.00  0.00    -0.291 OA
BRANCH  11  13
ATOM     13  C1  <0> d          -0.018   1.503   0.010  0.00  0.00    -0.015 C 
ATOM     14  H1  <0> d           1.004   1.880   0.003  0.00  0.00     0.038 H 
ATOM     15  H2  <0> d          -0.545   1.864  -0.873  0.00  0.00     0.038 H 
ATOM     16  H3  <0> d          -0.529   1.854   0.907  0.00  0.00     0.038 H 
ENDBRANCH  11  13
ENDBRANCH   1  11
TORSDOF 2
