REMARK  4 active torsions:
REMARK  status: ('A' for Active; 'I' for Inactive)
REMARK    1  A    between atoms: C1_1  and  C2_2 
REMARK    2  A    between atoms: C3_3  and  N4_10 
REMARK    3  A    between atoms: C4_4  and  N3_9 
REMARK    4  A    between atoms: C5_6  and  C6_8 
ROOT
ATOM      1  C2  <0> d           2.377   1.280  -0.013  0.00  0.00     0.062 A 
ATOM      2  C3  <0> d           1.202   2.018   0.001  0.00  0.00     0.096 A 
ATOM      3  C4  <0> d          -0.016   1.324   0.009  0.00  0.00     0.151 A 
ATOM      4  N1  <0> d           0.002  -0.004   0.002  0.00  0.00    -0.214 NA
ATOM      5  C5  <0> d           1.144  -0.663  -0.012  0.00  0.00     0.124 A 
ATOM      6  N2  <0> d           2.307  -0.044  -0.020  0.00  0.00    -0.236 NA
ENDROOT
BRANCH   1   7
ATOM      7  C1  <0> d           3.714   1.974  -0.022  0.00  0.00    -0.033 C 
ATOM      8  H1  <0> d           3.562   3.063  -0.015  0.00  0.00     0.035 H 
ATOM      9  H2  <0> d           4.270   1.687  -0.927  0.00  0.00     0.035 H 
ATOM     10  H3  <0> d           4.287   1.678   0.869  0.00  0.00     0.035 H 
ENDBRANCH   1   7
BRANCH   2  11
ATOM     11  N4  <0> d           1.233   3.418   0.008  0.00  0.00    -0.394 N 
ATOM     12  H9  <0> d           0.292   3.988   0.020  0.00  0.00     0.156 HD
ATOM     13  H10 <0> d           2.197   3.947   0.002  0.00  0.00     0.156 HD
ENDBRANCH   2  11
BRANCH   5  14
ATOM     14  C6  <0> d           1.118  -2.170  -0.020  0.00  0.00    -0.019 C 
ATOM     15  H4  <0> d           2.149  -2.554  -0.032  0.00  0.00     0.037 H 
ATOM     16  H5  <0> d           0.585  -2.523  -0.915  0.00  0.00     0.037 H 
ATOM     17  H6  <0> d           0.602  -2.532   0.881  0.00  0.00     0.037 H 
ENDBRANCH   5  14
BRANCH   3  18
ATOM     18  N3  <0> d          -1.221   2.014   0.019  0.00  0.00    -0.382 N 
ATOM     19  H7  <0> d          -2.171   1.460   0.025  0.00  0.00     0.157 HD
ATOM     20  H8  <0> d          -1.225   3.114   0.020  0.00  0.00     0.157 HD
ENDBRANCH   3  18
TORSDOF 4
