REMARK  2 active torsions:
REMARK  status: ('A' for Active; 'I' for Inactive)
REMARK    1  A    between atoms: C1_1  and  C2_2 
REMARK    2  A    between atoms: C3_3  and  C4_7 
ROOT
ATOM      1  C2  <0> d          -0.016   1.307   0.009  0.00  0.00     0.079 A 
ATOM      2  C3  <0> d           1.253   1.877   0.000  0.00  0.00     0.127 A 
ATOM      3  S1  <0> d           2.257   0.402  -0.017  0.00  0.00     0.043 SA
ATOM      4  N1  <0> d           1.097  -0.672  -0.012  0.00  0.00    -0.110 NA
ATOM      5  N2  <0> d           0.002  -0.004   0.002  0.00  0.00    -0.146 NA
ENDROOT
BRANCH   1   6
ATOM      6  C1  <0> d          -1.286   2.117   0.020  0.00  0.00    -0.032 C 
ATOM      7  H1  <0> d          -1.587   2.308   1.050  0.00  0.00     0.035 H 
ATOM      8  H2  <0> d          -1.117   3.066  -0.490  0.00  0.00     0.035 H 
ATOM      9  H3  <0> d          -2.074   1.565  -0.493  0.00  0.00     0.035 H 
ENDBRANCH   1   6
BRANCH   2  10
ATOM     10  C4  <0> d           1.654   3.292   0.004  0.00  0.00     0.220 C 
ATOM     11  O1  <0> d           0.806   4.163   0.017  0.00  0.00    -0.643 OA
ATOM     12  O2  <0> d           2.961   3.622  -0.007  0.00  0.00    -0.643 OA
ENDBRANCH   2  10
TORSDOF 2
