REMARK  1 active torsions:
REMARK  status: ('A' for Active; 'I' for Inactive)
REMARK    1  A    between atoms: N2_8  and  N4_10 
ROOT
ATOM      1  C1  <0> d           3.223   3.046  -0.014  0.00  0.00    -0.081 A 
ATOM      2  C2  <0> d           4.011   1.894  -0.027  0.00  0.00    -0.081 A 
ATOM      3  C3  <0> d           3.461   0.652  -0.028  0.00  0.00    -0.051 A 
ATOM      4  C4  <0> d           2.062   0.515  -0.015  0.00  0.00     0.110 A 
ATOM      5  C5  <0> d           1.231   1.728  -0.000  0.00  0.00     0.110 A 
ATOM      6  C6  <0> d           1.865   2.983  -0.000  0.00  0.00    -0.051 A 
ATOM      7  N1  <0> d          -0.015   1.283   0.009  0.00  0.00    -0.136 NA
ATOM      8  N2  <0> d           0.002  -0.004   0.002  0.00  0.00    -0.109 N 
ATOM      9  N3  <0> d           1.196  -0.486  -0.012  0.00  0.00    -0.136 NA
ATOM     10  H1  <0> d           3.704   4.013  -0.014  0.00  0.00     0.083 H 
ATOM     11  H2  <0> d           5.086   1.993  -0.037  0.00  0.00     0.083 H 
ATOM     12  H3  <0> d           4.093  -0.223  -0.039  0.00  0.00     0.087 H 
ATOM     13  H4  <0> d           1.279   3.889   0.010  0.00  0.00     0.087 H 
ENDROOT
BRANCH   8  14
ATOM     14  N4  <0> d          -1.125  -0.776   0.009  0.00  0.00    -0.208 NA
ATOM     15  H5  <0> d          -1.433  -0.975  -0.931  0.00  0.00     0.146 HD
ATOM     16  H6  <0> d          -0.977  -1.627   0.529  0.00  0.00     0.146 HD
ENDBRANCH   8  14
TORSDOF 1
