REMARK  2 active torsions:
REMARK  status: ('A' for Active; 'I' for Inactive)
REMARK    1  A    between atoms: C1_1  and  C2_2 
REMARK       I    between atoms: C2_2  and  N1_4 
REMARK    2  A    between atoms: N1_4  and  C3_5 
ROOT
ATOM      1  C3  <0> d          -1.228   1.647   0.017  0.00  0.00     0.149 A 
ATOM      2  C4  <0> d          -2.455   1.077   0.019  0.00  0.00    -0.032 A 
ATOM      3  C5  <0> d          -3.396   2.132   0.030  0.00  0.00    -0.057 A 
ATOM      4  C6  <0> d          -2.695   3.280   0.034  0.00  0.00     0.021 A 
ATOM      5  O2  <0> d          -1.383   2.982   0.031  0.00  0.00    -0.306 OA
ATOM      6  H5  <0> d          -2.674   0.019   0.015  0.00  0.00     0.090 H 
ATOM      7  H6  <0> d          -4.471   2.035   0.035  0.00  0.00     0.086 H 
ATOM      8  H7  <0> d          -3.116   4.275   0.042  0.00  0.00     0.123 H 
ENDROOT
BRANCH   1   9
ATOM      9  N1  <0> d          -0.011   0.966   0.007  0.00  0.00    -0.308 N 
ATOM     10  C2  <0> d           1.147   1.655  -0.000  0.00  0.00     0.219 C 
ATOM     11  O1  <0> d           1.130   2.868   0.007  0.00  0.00    -0.274 OA
ATOM     12  H4  <0> d           0.002  -0.004   0.002  0.00  0.00     0.170 HD
BRANCH  10  13
ATOM     13  C1  <0> d           2.462   0.920  -0.017  0.00  0.00    -0.002 C 
ATOM     14  H1  <0> d           2.277  -0.154  -0.021  0.00  0.00     0.040 H 
ATOM     15  H2  <0> d           3.021   1.196  -0.910  0.00  0.00     0.040 H 
ATOM     16  H3  <0> d           3.038   1.186   0.870  0.00  0.00     0.040 H 
ENDBRANCH  10  13
ENDBRANCH   1   9
TORSDOF 2
