REMARK  5 active torsions:
REMARK  status: ('A' for Active; 'I' for Inactive)
REMARK    1  A    between atoms: C1_1  and  C2_2 
REMARK    2  A    between atoms: C2_2  and  C3_3 
REMARK    3  A    between atoms: C2_2  and  S1_4 
REMARK    4  A    between atoms: S1_4  and  C4_5 
REMARK    5  A    between atoms: C5_7  and  N4_11 
ROOT
ATOM      1  C2  <0> d           1.732   2.220  -0.003  0.00  0.00    -0.009 C 
ATOM      2  H5  <0> d           2.393   1.817   0.778  0.00  0.00     0.056 H 
ENDROOT
BRANCH   1   3
ATOM      3  C1  <0> d           2.368   1.768  -1.319  0.00  0.00    -0.064 C 
ATOM      4  H2  <0> d           2.276   0.676  -1.414  0.00  0.00     0.028 H 
ATOM      5  H3  <0> d           3.432   2.049  -1.327  0.00  0.00     0.028 H 
ATOM      6  H4  <0> d           1.854   2.254  -2.160  0.00  0.00     0.028 H 
ENDBRANCH   1   3
BRANCH   1   7
ATOM      7  C3  <0> d           1.860   3.739   0.130  0.00  0.00    -0.064 C 
ATOM      8  H6  <0> d           1.403   4.065   1.076  0.00  0.00     0.028 H 
ATOM      9  H7  <0> d           1.345   4.226  -0.712  0.00  0.00     0.028 H 
ATOM     10  H8  <0> d           2.924   4.020   0.121  0.00  0.00     0.028 H 
ENDBRANCH   1   7
BRANCH   1  11
ATOM     11  S1  <0> d          -0.022   1.758   0.012  0.00  0.00    -0.084 SA
BRANCH  11  12
ATOM     12  C4  <0> d           0.002  -0.004   0.002  0.00  0.00     0.226 A 
ATOM     13  N3  <0> d           1.079  -0.752  -0.012  0.00  0.00    -0.132 NA
ATOM     14  N2  <0> d           0.650  -2.088  -0.015  0.00  0.00    -0.105 N 
ATOM     15  C5  <0> d          -0.699  -2.057  -0.002  0.00  0.00     0.716 A 
ATOM     16  H1  <0> d           1.178  -3.054  -0.025  0.00  0.00     0.208 HD
ATOM     17  N1  <0> d          -1.076  -0.796   0.013  0.00  0.00    -0.035 NA
BRANCH  15  18
ATOM     18  N4  <0> d          -1.537  -3.157   0.000  0.00  0.00    -0.231 N 
ATOM     19  H9  <0> d          -1.114  -4.172  -0.013  0.00  0.00     0.174 HD
ATOM     20  H10 <0> d          -2.628  -3.016   0.016  0.00  0.00     0.174 HD
ENDBRANCH  15  18
ENDBRANCH  11  12
ENDBRANCH   1  11
TORSDOF 5
