REMARK  4 active torsions:
REMARK  status: ('A' for Active; 'I' for Inactive)
REMARK    1  A    between atoms: C1_1  and  C2_2 
REMARK    2  A    between atoms: C2_2  and  C3_3 
REMARK    3  A    between atoms: C4_4  and  C5_5 
REMARK    4  A    between atoms: C5_5  and  C6_6 
ROOT
ATOM      1  C3  <0> d          -3.323   0.933   1.005  0.00  0.00    -0.106 C 
ATOM      2  C4  <0> d          -2.508   0.987  -0.019  0.00  0.00    -0.097 C 
ATOM      3  H6  <0> d          -4.048   0.136   1.078  0.00  0.00     0.076 H 
ATOM      4  H7  <0> d          -2.638   0.308  -0.848  0.00  0.00     0.077 H 
ENDROOT
BRANCH   1   5
ATOM      5  C2  <0> d          -3.250   1.985   2.082  0.00  0.00    -0.053 C 
ATOM      6  H4  <0> d          -2.916   1.529   3.014  0.00  0.00     0.038 H 
ATOM      7  H5  <0> d          -2.545   2.761   1.784  0.00  0.00     0.038 H 
BRANCH   5   8
ATOM      8  C1  <0> d          -4.635   2.604   2.285  0.00  0.00    -0.073 C 
ATOM      9  H1  <0> d          -4.969   3.061   1.353  0.00  0.00     0.027 H 
ATOM     10  H2  <0> d          -5.340   1.828   2.583  0.00  0.00     0.027 H 
ATOM     11  H3  <0> d          -4.582   3.365   3.064  0.00  0.00     0.027 H 
ENDBRANCH   5   8
ENDBRANCH   1   5
BRANCH   2  12
ATOM     12  C5  <0> d          -1.388   1.995  -0.039  0.00  0.00     0.030 C 
ATOM     13  H8  <0> d          -1.331   2.494   0.929  0.00  0.00     0.055 H 
ATOM     14  H9  <0> d          -1.578   2.733  -0.818  0.00  0.00     0.055 H 
BRANCH  12  15
ATOM     15  C6  <0> d          -0.085   1.293  -0.319  0.00  0.00     0.176 C 
ATOM     16  O1  <0> d          -0.067   0.096  -0.485  0.00  0.00    -0.648 OA
ATOM     17  O2  <0> d           1.056   1.997  -0.389  0.00  0.00    -0.648 OA
ENDBRANCH  12  15
ENDBRANCH   2  12
TORSDOF 4
