REMARK  2 active torsions:
REMARK  status: ('A' for Active; 'I' for Inactive)
REMARK    1  A    between atoms: C3_4  and  O4_10 
REMARK    2  A    between atoms: C4_6  and  O3_9 
ROOT
ATOM      1  C1  <0> d           1.286   2.017   0.001  0.00  0.00     0.043 C 
ATOM      2  C2  <0> d           2.049   1.532  -1.236  0.00  0.00     0.043 C 
ATOM      3  O1  <0> d           2.068   0.101  -1.243  0.00  0.00    -0.354 OA
ATOM      4  C3  <0> d           0.765  -0.489  -1.234  0.00  0.00     0.175 C 
ATOM      5  H1  <0> d           0.856  -1.575  -1.203  0.00  0.00     0.136 H 
ATOM      6  C4  <0> d           0.002  -0.004   0.002  0.00  0.00     0.175 C 
ATOM      7  H2  <0> d           0.498  -0.367   0.903  0.00  0.00     0.136 H 
ATOM      8  O2  <0> d          -0.017   1.427   0.010  0.00  0.00    -0.354 OA
ATOM      9  H3  <0> d           1.194   3.103  -0.031  0.00  0.00     0.077 H 
ATOM     10  H4  <0> d           1.826   1.722   0.901  0.00  0.00     0.077 H 
ATOM     11  H5  <0> d           3.070   1.910  -1.205  0.00  0.00     0.077 H 
ATOM     12  H6  <0> d           1.552   1.894  -2.136  0.00  0.00     0.077 H 
ENDROOT
BRANCH   4  13
ATOM     13  O4  <0> d           0.057  -0.103  -2.414  0.00  0.00    -0.367 OA
ATOM     14  H8  <0> d           0.484  -0.379  -3.237  0.00  0.00     0.212 HD
ENDBRANCH   4  13
BRANCH   6  15
ATOM     15  O3  <0> d          -1.338  -0.500  -0.038  0.00  0.00    -0.367 OA
ATOM     16  H7  <0> d          -1.881  -0.226   0.714  0.00  0.00     0.212 HD
ENDBRANCH   6  15
TORSDOF 2
