REMARK  0 active torsions:
REMARK  status: ('A' for Active; 'I' for Inactive)
ROOT
ATOM      1  C1  <0> d          -0.017   1.372   0.010  0.00  0.00     0.057 C 
ATOM      2  N1  <0> d           1.164   1.896   0.001  0.00  0.00    -0.266 NA
ATOM      3  C2  <0> d           2.175   0.809  -0.006  0.00  0.00     0.149 C 
ATOM      4  H1  <0> d           3.037   1.033   0.623  0.00  0.00     0.097 H 
ATOM      5  C3  <0> d           1.331  -0.369   0.539  0.00  0.00     0.122 C 
ATOM      6  H2  <0> d           1.329  -0.387   1.629  0.00  0.00     0.111 H 
ATOM      7  N2  <0> d           0.002  -0.004   0.002  0.00  0.00    -0.361 N 
ATOM      8  N3  <0> d           1.811  -1.630  -0.008  0.00  0.00    -0.199 N 
ATOM      9  C4  <0> d           2.145  -1.730  -1.325  0.00  0.00     0.720 C 
ATOM     10  N4  <0> d           2.530  -0.653  -1.989  0.00  0.00    -0.024 NA
ATOM     11  C5  <0> d           2.561   0.565  -1.440  0.00  0.00     0.288 C 
ATOM     12  O1  <0> d           2.932   1.512  -2.105  0.00  0.00    -0.268 OA
ATOM     13  N5  <0> d           2.084  -2.937  -1.955  0.00  0.00    -0.116 NA
ATOM     14  H3  <0> d          -0.926   1.954   0.026  0.00  0.00     0.142 H 
ATOM     15  H4  <0> d          -0.702  -0.603  -0.291  0.00  0.00     0.162 HD
ATOM     16  H5  <0> d           2.323  -3.006  -2.893  0.00  0.00     0.206 HD
ATOM     17  H6  <0> d           1.893  -2.404   0.570  0.00  0.00     0.180 HD
ENDROOT
TORSDOF 0
