REMARK  1 active torsions:
REMARK  status: ('A' for Active; 'I' for Inactive)
REMARK    1  A    between atoms: C1_1  and  C2_2 
ROOT
ATOM      1  C2  <0> d           1.862   2.995  -0.000  0.00  0.00     0.034 A 
ATOM      2  C3  <0> d           3.203   3.146  -0.012  0.00  0.00    -0.059 A 
ATOM      3  C4  <0> d           4.046   2.021  -0.026  0.00  0.00    -0.079 A 
ATOM      4  C5  <0> d           3.505   0.773  -0.027  0.00  0.00    -0.053 A 
ATOM      5  C6  <0> d           2.104   0.633  -0.015  0.00  0.00     0.079 A 
ATOM      6  N1  <0> d           1.304   1.750  -0.001  0.00  0.00    -0.219 N 
ATOM      7  N2  <0> d          -0.015   1.283   0.009  0.00  0.00    -0.061 NA
ATOM      8  N3  <0> d           0.002  -0.004   0.002  0.00  0.00    -0.142 NA
ATOM      9  C7  <0> d           1.248  -0.455  -0.012  0.00  0.00     0.053 A 
ATOM     10  H4  <0> d           3.631   4.137  -0.011  0.00  0.00     0.086 H 
ATOM     11  H5  <0> d           5.119   2.147  -0.037  0.00  0.00     0.083 H 
ATOM     12  H6  <0> d           4.142  -0.099  -0.038  0.00  0.00     0.087 H 
ATOM     13  H7  <0> d           1.545  -1.493  -0.020  0.00  0.00     0.121 H 
ENDROOT
BRANCH   1  14
ATOM     14  C1  <0> d           0.974   4.212   0.015  0.00  0.00    -0.035 C 
ATOM     15  H1  <0> d           0.769   4.501   1.046  0.00  0.00     0.035 H 
ATOM     16  H2  <0> d           1.473   5.033  -0.500  0.00  0.00     0.035 H 
ATOM     17  H3  <0> d           0.036   3.984  -0.492  0.00  0.00     0.035 H 
ENDBRANCH   1  14
TORSDOF 1
