REMARK  4 active torsions:
REMARK  status: ('A' for Active; 'I' for Inactive)
REMARK    1  A    between atoms: C1_1  and  C2_2 
REMARK    2  A    between atoms: C2_2  and  C3_3 
REMARK    3  A    between atoms: C3_3  and  C4_5 
REMARK    4  A    between atoms: C3_3  and  N1_6 
ROOT
ATOM      1  C3  <0> d           0.718  -0.497  -1.257  0.00  0.00     0.030 C 
ATOM      2  H1  <0> d           1.710  -0.049  -1.310  0.00  0.00     0.075 H 
ENDROOT
BRANCH   1   3
ATOM      3  C2  <0> d           0.002  -0.004   0.002  0.00  0.00    -0.048 C 
ATOM      4  H5  <0> d           0.529  -0.365   0.885  0.00  0.00     0.035 H 
ATOM      5  H6  <0> d          -1.020  -0.381   0.010  0.00  0.00     0.035 H 
BRANCH   3   6
ATOM      6  C1  <0> d          -0.019   1.526   0.010  0.00  0.00    -0.075 C 
ATOM      7  H2  <0> d           1.004   1.903   0.003  0.00  0.00     0.027 H 
ATOM      8  H3  <0> d          -0.546   1.887  -0.873  0.00  0.00     0.027 H 
ATOM      9  H4  <0> d          -0.529   1.877   0.907  0.00  0.00     0.027 H 
ENDBRANCH   3   6
ENDBRANCH   1   3
BRANCH   1  10
ATOM     10  C4  <0> d          -0.089  -0.097  -2.493  0.00  0.00    -0.055 C 
ATOM     11  H7  <0> d          -1.081  -0.545  -2.440  0.00  0.00     0.030 H 
ATOM     12  H8  <0> d          -0.183   0.989  -2.530  0.00  0.00     0.030 H 
ATOM     13  H9  <0> d           0.421  -0.448  -3.390  0.00  0.00     0.030 H 
ENDBRANCH   1  10
BRANCH   1  14
ATOM     14  N1  <0> d           0.844  -1.956  -1.207  0.00  0.00    -0.275 N 
ATOM     15  N2  <0> d           1.954  -2.673  -0.742  0.00  0.00    -0.183 NA
ATOM     16  C7  <0> d           1.692  -3.950  -0.852  0.00  0.00     0.044 A 
ATOM     17  C6  <0> d           0.411  -4.088  -1.398  0.00  0.00     0.070 A 
ATOM     18  H11 <0> d           2.352  -4.758  -0.573  0.00  0.00     0.120 H 
ATOM     19  C5  <0> d          -0.088  -2.848  -1.607  0.00  0.00     0.021 A 
ATOM     20 Cl1  <0> d          -0.395  -5.586  -1.745  0.00  0.00    -0.081 Cl
ATOM     21  H10 <0> d          -1.059  -2.613  -2.019  0.00  0.00     0.116 H 
ENDBRANCH   1  14
TORSDOF 4
