REMARK  1 active torsions:
REMARK  status: ('A' for Active; 'I' for Inactive)
REMARK    1  A    between atoms: C2_2  and  C4_7 
REMARK       I    between atoms: C4_7  and  N3_9 
ROOT
ATOM      1  C1  <0> d           2.132   0.716  -0.014  0.00  0.00     0.012 A 
ATOM      2  C2  <0> d           1.351  -0.423  -0.013  0.00  0.00     0.067 A 
ATOM      3  C3  <0> d           0.002  -0.004   0.002  0.00  0.00     0.038 A 
ATOM      4  N1  <0> d          -0.016   1.300   0.009  0.00  0.00    -0.187 NA
ATOM      5  N2  <0> d           1.302   1.772  -0.001  0.00  0.00    -0.289 N 
ATOM      6  H1  <0> d           1.579   2.732   0.002  0.00  0.00     0.188 HD
ATOM      7  H2  <0> d           3.211   0.751  -0.024  0.00  0.00     0.115 H 
ATOM      8  H3  <0> d          -0.863  -0.650   0.006  0.00  0.00     0.119 H 
ENDROOT
BRANCH   2   9
ATOM      9  C4  <0> d           1.835  -1.815  -0.025  0.00  0.00     0.252 C 
ATOM     10  O1  <0> d           3.030  -2.044  -0.037  0.00  0.00    -0.268 OA
ATOM     11  N3  <0> d           0.954  -2.835  -0.023  0.00  0.00    -0.366 N 
ATOM     12  H4  <0> d           0.002  -2.653  -0.013  0.00  0.00     0.159 HD
ATOM     13  H5  <0> d           1.273  -3.751  -0.031  0.00  0.00     0.159 HD
ENDBRANCH   2   9
TORSDOF 1
