REMARK  5 active torsions:
REMARK  status: ('A' for Active; 'I' for Inactive)
REMARK    1  A    between atoms: C1_1  and  C2_2 
REMARK    2  A    between atoms: C1_1  and  C4_5 
REMARK    3  A    between atoms: C2_2  and  C3_3 
REMARK    4  A    between atoms: C3_3  and  O1_4 
REMARK    5  A    between atoms: C4_5  and  C5_6 
ROOT
ATOM      1  C1  <0> d           0.007   1.381   2.508  0.00  0.00    -0.055 C 
ATOM      2  H1  <0> d           0.022   0.291   2.502  0.00  0.00     0.033 H 
ATOM      3  H2  <0> d           1.030   1.759   2.500  0.00  0.00     0.033 H 
ENDROOT
BRANCH   1   4
ATOM      4  C2  <0> d          -0.709   1.875   3.767  0.00  0.00    -0.045 C 
ATOM      5  H3  <0> d          -0.724   2.965   3.773  0.00  0.00     0.036 H 
ATOM      6  H4  <0> d          -1.732   1.498   3.775  0.00  0.00     0.036 H 
BRANCH   4   7
ATOM      7  C3  <0> d           0.031   1.368   5.006  0.00  0.00     0.017 C 
ATOM      8  H5  <0> d           0.046   0.278   5.000  0.00  0.00     0.073 H 
ATOM      9  H6  <0> d           1.053   1.745   4.999  0.00  0.00     0.073 H 
BRANCH   7  10
ATOM     10  O1  <0> d          -0.638   1.829   6.182  0.00  0.00    -0.401 OA
ATOM     11  H7  <0> d          -0.223   1.544   7.008  0.00  0.00     0.209 HD
ENDBRANCH   7  10
ENDBRANCH   4   7
ENDBRANCH   1   4
BRANCH   1  12
ATOM     12  C4  <0> d          -0.733   1.888   1.268  0.00  0.00     0.026 C 
ATOM     13  H8  <0> d          -0.748   2.978   1.274  0.00  0.00     0.046 H 
ATOM     14  H9  <0> d          -1.756   1.511   1.276  0.00  0.00     0.046 H 
BRANCH  12  15
ATOM     15  C5  <0> d          -0.017   1.395   0.010  0.00  0.00     0.387 C 
ATOM     16  F1  <0> d           0.002  -0.004   0.002  0.00  0.00    -0.171 F 
ATOM     17  F2  <0> d           1.296   1.879  -0.000  0.00  0.00    -0.171 F 
ATOM     18  F3  <0> d          -0.694   1.858  -1.124  0.00  0.00    -0.171 F 
ENDBRANCH  12  15
ENDBRANCH   1  12
TORSDOF 5
