REMARK  4 active torsions:
REMARK  status: ('A' for Active; 'I' for Inactive)
REMARK    1  A    between atoms: C3_3  and  C5_6 
REMARK    2  A    between atoms: C5_6  and  C6_8 
REMARK    3  A    between atoms: C6_8  and  O2_9 
REMARK    4  A    between atoms: C6_8  and  O3_10 
ROOT
ATOM      1  C1  <0> d          -4.307   2.128   2.029  0.00  0.00    -0.075 A 
ATOM      2  C2  <0> d          -2.962   2.105   2.290  0.00  0.00    -0.062 A 
ATOM      3  C3  <0> d          -2.126   1.688   1.260  0.00  0.00     0.055 A 
ATOM      4  S1  <0> d          -3.295   1.329  -0.039  0.00  0.00    -0.098 SA
ATOM      5  C4  <0> d          -4.754   1.737   0.804  0.00  0.00    -0.044 A 
ATOM      6  H1  <0> d          -5.006   2.447   2.789  0.00  0.00     0.084 H 
ATOM      7  H2  <0> d          -2.569   2.402   3.251  0.00  0.00     0.085 H 
ATOM      8  H3  <0> d          -5.771   1.693   0.444  0.00  0.00     0.095 H 
ENDROOT
BRANCH   3   9
ATOM      9  C5  <0> d          -0.718   1.572   1.248  0.00  0.00     0.220 C 
ATOM     10  O1  <0> d          -0.076   1.864   2.237  0.00  0.00    -0.286 OA
BRANCH   9  11
ATOM     11  C6  <0> d          -0.013   1.086   0.008  0.00  0.00     0.189 C 
ATOM     12  H4  <0> d           0.001   0.086   0.003  0.00  0.00     0.141 H 
BRANCH  11  13
ATOM     13  O2  <0> d           1.328   1.580  -0.002  0.00  0.00    -0.365 OA
ATOM     14  H5  <0> d           1.843   1.306  -0.774  0.00  0.00     0.213 HD
ENDBRANCH  11  13
BRANCH  11  15
ATOM     15  O3  <0> d          -0.704   1.559  -1.150  0.00  0.00    -0.365 OA
ATOM     16  H6  <0> d          -0.756   2.523  -1.210  0.00  0.00     0.213 HD
ENDBRANCH  11  15
ENDBRANCH   9  11
ENDBRANCH   3   9
TORSDOF 4
