REMARK  2 active torsions:
REMARK  status: ('A' for Active; 'I' for Inactive)
REMARK    1  A    between atoms: C1_1  and  C2_2 
REMARK    2  A    between atoms: C2_2  and  C3_3 
ROOT
ATOM      1  C3  <0> d           0.002  -0.004   0.002  0.00  0.00     0.054 A 
ATOM      2  C4  <0> d           1.286  -0.421  -0.013  0.00  0.00    -0.051 A 
ATOM      3  C5  <0> d           2.094   0.728  -0.014  0.00  0.00    -0.037 A 
ATOM      4  C6  <0> d           1.250   1.801  -0.000  0.00  0.00     0.155 A 
ATOM      5  O1  <0> d          -0.016   1.336   0.009  0.00  0.00    -0.304 OA
ATOM      6  C7  <0> d           1.640   3.179   0.003  0.00  0.00     0.125 C 
ATOM      7  N1  <0> d           1.950   4.272   0.005  0.00  0.00    -0.189 NA
ATOM      8  H6  <0> d           1.628  -1.446  -0.021  0.00  0.00     0.087 H 
ATOM      9  H7  <0> d           3.174   0.757  -0.024  0.00  0.00     0.088 H 
ENDROOT
BRANCH   1  10
ATOM     10  C2  <0> d          -1.211  -0.898   0.009  0.00  0.00    -0.024 C 
ATOM     11  H4  <0> d          -2.036  -0.395  -0.494  0.00  0.00     0.042 H 
ATOM     12  H5  <0> d          -0.980  -1.828  -0.511  0.00  0.00     0.042 H 
BRANCH  10  13
ATOM     13  C1  <0> d          -1.607  -1.208   1.454  0.00  0.00    -0.071 C 
ATOM     14  H1  <0> d          -0.782  -1.712   1.958  0.00  0.00     0.028 H 
ATOM     15  H2  <0> d          -1.838  -0.279   1.975  0.00  0.00     0.028 H 
ATOM     16  H3  <0> d          -2.485  -1.855   1.459  0.00  0.00     0.028 H 
ENDBRANCH  10  13
ENDBRANCH   1  10
TORSDOF 2
