REMARK  4 active torsions:
REMARK  status: ('A' for Active; 'I' for Inactive)
REMARK    1  A    between atoms: C1_1  and  N1_2 
REMARK    2  A    between atoms: N1_2  and  C2_3 
REMARK    3  A    between atoms: C4_6  and  N5_10 
REMARK    4  A    between atoms: C5_8  and  N4_9 
ROOT
ATOM      1  C2  <0> d          -0.017   1.381   0.010  0.00  0.00     0.092 A 
ATOM      2  C3  <0> d           0.002  -0.004   0.002  0.00  0.00     0.050 A 
ATOM      3  N2  <0> d           1.168  -0.635  -0.013  0.00  0.00    -0.073 NA
ATOM      4  C4  <0> d           2.308   0.038  -0.020  0.00  0.00     0.722 A 
ATOM      5  N3  <0> d           2.335   1.363  -0.013  0.00  0.00    -0.043 NA
ATOM      6  C5  <0> d           1.207   2.064   0.002  0.00  0.00     0.168 A 
ATOM      7  H5  <0> d          -0.922  -0.563   0.007  0.00  0.00     0.119 H 
ENDROOT
BRANCH   1   8
ATOM      8  N1  <0> d          -1.232   2.084   0.019  0.00  0.00    -0.390 N 
ATOM      9  H4  <0> d          -1.232   3.054   0.025  0.00  0.00     0.159 HD
BRANCH   8  10
ATOM     10  C1  <0> d          -2.501   1.353   0.021  0.00  0.00    -0.021 C 
ATOM     11  H1  <0> d          -2.564   0.731  -0.872  0.00  0.00     0.056 H 
ATOM     12  H2  <0> d          -2.555   0.721   0.908  0.00  0.00     0.056 H 
ATOM     13  H3  <0> d          -3.329   2.061   0.029  0.00  0.00     0.056 H 
ENDBRANCH   8  10
ENDBRANCH   1   8
BRANCH   6  14
ATOM     14  N4  <0> d           1.240   3.452   0.008  0.00  0.00    -0.382 N 
ATOM     15  H6  <0> d           0.412   3.957   0.019  0.00  0.00     0.157 HD
ATOM     16  H7  <0> d           2.091   3.917   0.003  0.00  0.00     0.157 HD
ENDBRANCH   6  14
BRANCH   4  17
ATOM     17  N5  <0> d           3.505  -0.661  -0.035  0.00  0.00    -0.231 N 
ATOM     18  H8  <0> d           3.500  -1.631  -0.040  0.00  0.00     0.174 HD
ATOM     19  H9  <0> d           4.347  -0.180  -0.040  0.00  0.00     0.174 HD
ENDBRANCH   4  17
TORSDOF 4
