REMARK  5 active torsions:
REMARK  status: ('A' for Active; 'I' for Inactive)
REMARK    1  A    between atoms: C1_1  and  C2_2 
REMARK    2  A    between atoms: C2_2  and  C3_4 
REMARK    3  A    between atoms: C3_4  and  C4_5 
REMARK    4  A    between atoms: C3_4  and  C5_6 
REMARK    5  A    between atoms: C3_4  and  O2_7 
ROOT
ATOM      1  C3  <0> d           1.280   1.975   0.000  0.00  0.00     0.110 C 
ENDROOT
BRANCH   1   2
ATOM      2  C2  <0> d          -0.014   1.203   0.009  0.00  0.00     0.156 C 
ATOM      3  O1  <0> d           0.002  -0.004   0.002  0.00  0.00    -0.295 OA
BRANCH   2   4
ATOM      4  C1  <0> d          -1.329   1.939   0.019  0.00  0.00    -0.018 C 
ATOM      5  H1  <0> d          -1.616   2.097   0.964  0.00  0.00     0.037 H 
ATOM      6  H2  <0> d          -1.214   2.896  -0.490  0.00  0.00     0.037 H 
ATOM      7  H3  <0> d          -2.083   1.343  -0.495  0.00  0.00     0.037 H 
ENDBRANCH   2   4
ENDBRANCH   1   2
BRANCH   1   8
ATOM      8  C4  <0> d           1.732   2.228   1.440  0.00  0.00    -0.042 C 
ATOM      9  H4  <0> d           1.881   1.274   1.947  0.00  0.00     0.032 H 
ATOM     10  H5  <0> d           2.669   2.786   1.434  0.00  0.00     0.032 H 
ATOM     11  H6  <0> d           0.970   2.804   1.964  0.00  0.00     0.032 H 
ENDBRANCH   1   8
BRANCH   1  12
ATOM     12  C5  <0> d           2.351   1.166  -0.735  0.00  0.00    -0.042 C 
ATOM     13  H7  <0> d           2.029   0.986  -1.761  0.00  0.00     0.032 H 
ATOM     14  H8  <0> d           3.287   1.724  -0.741  0.00  0.00     0.032 H 
ATOM     15  H9  <0> d           2.499   0.213  -0.228  0.00  0.00     0.032 H 
ENDBRANCH   1  12
BRANCH   1  16
ATOM     16  O2  <0> d           1.086   3.224  -0.665  0.00  0.00    -0.383 OA
ATOM     17  H10 <0> d           0.798   3.140  -1.584  0.00  0.00     0.211 HD
ENDBRANCH   1  16
TORSDOF 5
