REMARK  3 active torsions:
REMARK  status: ('A' for Active; 'I' for Inactive)
REMARK    1  A    between atoms: C1_1  and  C2_2 
REMARK    2  A    between atoms: C2_2  and  C6_8 
REMARK    3  A    between atoms: C4_4  and  C5_6 
ROOT
ATOM      1  C2  <0> d          -1.142   1.890   0.519  0.00  0.00    -0.026 A 
ATOM      2  C3  <0> d          -0.713   1.489  -0.895  0.00  0.00    -0.044 A 
ATOM      3  C4  <0> d           0.028   0.924   0.319  0.00  0.00     0.038 A 
ATOM      4  H1  <0> d          -0.138  -0.124   0.566  0.00  0.00     0.057 H 
ATOM      5  H5  <0> d          -0.197   2.238  -1.495  0.00  0.00     0.035 H 
ATOM      6  H6  <0> d          -1.365   0.812  -1.446  0.00  0.00     0.035 H 
ENDROOT
BRANCH   1   7
ATOM      7  C1  <0> d          -0.814   3.311   0.980  0.00  0.00    -0.068 C 
ATOM      8  H2  <0> d          -0.088   3.756   0.300  0.00  0.00     0.028 H 
ATOM      9  H3  <0> d          -1.724   3.911   0.983  0.00  0.00     0.028 H 
ATOM     10  H4  <0> d          -0.397   3.279   1.987  0.00  0.00     0.028 H 
ENDBRANCH   1   7
BRANCH   1  11
ATOM     11  C6  <0> d          -2.454   1.310   1.050  0.00  0.00    -0.046 A 
ATOM     12  C8  <0> d          -3.625   2.275   1.248  0.00  0.00    -0.061 A 
ATOM     13  C7  <0> d          -3.648   1.270   0.093  0.00  0.00    -0.061 A 
ATOM     14  H10 <0> d          -4.293   2.090   2.089  0.00  0.00     0.033 H 
ATOM     15  H11 <0> d          -3.460   3.323   1.000  0.00  0.00     0.033 H 
ATOM     16  H8  <0> d          -3.498   1.657  -0.914  0.00  0.00     0.033 H 
ATOM     17  H9  <0> d          -4.331   0.424   0.176  0.00  0.00     0.033 H 
ATOM     18  H7  <0> d          -2.352   0.490   1.761  0.00  0.00     0.041 H 
ENDBRANCH   1  11
BRANCH   3  19
ATOM     19  C5  <0> d           1.415   1.446   0.592  0.00  0.00     0.177 C 
ATOM     20  O1  <0> d           1.849   2.373  -0.050  0.00  0.00    -0.648 OA
ATOM     21  O2  <0> d           2.168   0.881   1.549  0.00  0.00    -0.648 OA
ENDBRANCH   3  19
TORSDOF 3
