REMARK  4 active torsions:
REMARK  status: ('A' for Active; 'I' for Inactive)
REMARK    1  A    between atoms: C1_1  and  C2_2 
REMARK    2  A    between atoms: C2_2  and  C7_11 
REMARK    3  A    between atoms: C4_4  and  C6_9 
REMARK    4  A    between atoms: C6_9  and  O2_10 
ROOT
ATOM      1  C2  <0> d           0.002  -0.004   0.002  0.00  0.00     0.035 C 
ATOM      2  C3  <0> d          -1.435  -0.565   0.108  0.00  0.00    -0.030 C 
ATOM      3  C4  <0> d          -1.577  -0.782   1.631  0.00  0.00     0.033 C 
ATOM      4  H1  <0> d          -2.034   0.092   2.095  0.00  0.00     0.075 H 
ATOM      5  N1  <0> d          -0.209  -0.964   2.130  0.00  0.00    -0.354 N 
ATOM      6  C5  <0> d           0.698  -0.531   1.238  0.00  0.00     0.226 C 
ATOM      7  O1  <0> d           1.900  -0.559   1.399  0.00  0.00    -0.273 OA
ATOM      8  H5  <0> d          -2.164   0.160  -0.253  0.00  0.00     0.037 H 
ATOM      9  H6  <0> d          -1.526  -1.509  -0.430  0.00  0.00     0.037 H 
ATOM     10  H7  <0> d           0.013  -1.349   2.993  0.00  0.00     0.163 HD
ENDROOT
BRANCH   1  11
ATOM     11  C1  <0> d          -0.019   1.526   0.010  0.00  0.00    -0.061 C 
ATOM     12  H2  <0> d           1.004   1.903   0.003  0.00  0.00     0.029 H 
ATOM     13  H3  <0> d          -0.546   1.887  -0.873  0.00  0.00     0.029 H 
ATOM     14  H4  <0> d          -0.529   1.877   0.907  0.00  0.00     0.029 H 
ENDBRANCH   1  11
BRANCH   1  15
ATOM     15  C7  <0> d           0.690  -0.522  -1.262  0.00  0.00    -0.061 C 
ATOM     16  H11 <0> d           1.712  -0.143  -1.301  0.00  0.00     0.029 H 
ATOM     17  H12 <0> d           0.708  -1.612  -1.246  0.00  0.00     0.029 H 
ATOM     18  H13 <0> d           0.142  -0.180  -2.140  0.00  0.00     0.029 H 
ENDBRANCH   1  15
BRANCH   3  19
ATOM     19  C6  <0> d          -2.416  -2.030   1.912  0.00  0.00     0.035 C 
ATOM     20  H8  <0> d          -3.375  -1.946   1.401  0.00  0.00     0.077 H 
ATOM     21  H9  <0> d          -1.888  -2.912   1.550  0.00  0.00     0.077 H 
BRANCH  19  22
ATOM     22  O2  <0> d          -2.635  -2.150   3.319  0.00  0.00    -0.399 OA
ATOM     23  H10 <0> d          -3.161  -2.921   3.571  0.00  0.00     0.209 HD
ENDBRANCH  19  22
ENDBRANCH   3  19
TORSDOF 4
