REMARK  3 active torsions:
REMARK  status: ('A' for Active; 'I' for Inactive)
REMARK    1  A    between atoms: C4_5  and  C6_8 
REMARK    2  A    between atoms: C6_8  and  C7_9 
REMARK    3  A    between atoms: C7_9  and  O2_10 
ROOT
ATOM      1  C1  <0> d           3.786   5.885   0.062  0.00  0.00    -0.061 C 
ATOM      2  C2  <0> d           4.457   5.476  -1.253  0.00  0.00    -0.045 C 
ATOM      3  C3  <0> d           4.515   3.949  -1.335  0.00  0.00     0.020 C 
ATOM      4  O1  <0> d           3.193   3.417  -1.232  0.00  0.00    -0.386 OA
ATOM      5  C4  <0> d           2.534   3.726  -0.002  0.00  0.00     0.040 C 
ATOM      6  H1  <0> d           3.119   3.339   0.832  0.00  0.00     0.083 H 
ATOM      7  C5  <0> d           2.396   5.245   0.133  0.00  0.00    -0.041 C 
ATOM      8  H2  <0> d           3.691   6.970   0.102  0.00  0.00     0.033 H 
ATOM      9  H3  <0> d           4.389   5.541   0.902  0.00  0.00     0.033 H 
ATOM     10  H4  <0> d           3.880   5.864  -2.092  0.00  0.00     0.036 H 
ATOM     11  H5  <0> d           5.468   5.882  -1.287  0.00  0.00     0.036 H 
ATOM     12  H6  <0> d           4.953   3.652  -2.288  0.00  0.00     0.074 H 
ATOM     13  H7  <0> d           5.127   3.564  -0.519  0.00  0.00     0.074 H 
ATOM     14  H8  <0> d           1.777   5.628  -0.678  0.00  0.00     0.036 H 
ATOM     15  H9  <0> d           1.932   5.485   1.090  0.00  0.00     0.036 H 
ENDROOT
BRANCH   5  16
ATOM     16  C6  <0> d           1.145   3.085   0.008  0.00  0.00    -0.021 C 
ATOM     17  H10 <0> d           0.591   3.404  -0.875  0.00  0.00     0.040 H 
ATOM     18  H11 <0> d           0.608   3.395   0.904  0.00  0.00     0.040 H 
BRANCH  16  19
ATOM     19  C7  <0> d           1.286   1.562  -0.002  0.00  0.00     0.019 C 
ATOM     20  H12 <0> d           1.840   1.243   0.881  0.00  0.00     0.074 H 
ATOM     21  H13 <0> d           1.823   1.252  -0.899  0.00  0.00     0.074 H 
BRANCH  19  22
ATOM     22  O2  <0> d          -0.011   0.963   0.007  0.00  0.00    -0.401 OA
ATOM     23  H14 <0> d           0.002  -0.004   0.002  0.00  0.00     0.209 HD
ENDBRANCH  19  22
ENDBRANCH  16  19
ENDBRANCH   5  16
TORSDOF 3
