REMARK  3 active torsions:
REMARK  status: ('A' for Active; 'I' for Inactive)
REMARK    1  A    between atoms: C1_1  and  C2_2 
REMARK    2  A    between atoms: C1_1  and  O1_6 
REMARK    3  A    between atoms: O1_6  and  C3_7 
REMARK       I    between atoms: C3_7  and  N1_9 
ROOT
ATOM      1  C1  <0> d          -0.733   1.888   1.268  0.00  0.00     0.120 C 
ATOM      2  H1  <0> d          -0.748   2.978   1.274  0.00  0.00     0.089 H 
ATOM      3  H2  <0> d          -1.756   1.511   1.276  0.00  0.00     0.089 H 
ENDROOT
BRANCH   1   4
ATOM      4  C2  <0> d          -0.017   1.395   0.010  0.00  0.00     0.409 C 
ATOM      5  F1  <0> d           0.002  -0.004   0.002  0.00  0.00    -0.169 F 
ATOM      6  F2  <0> d           1.296   1.879  -0.000  0.00  0.00    -0.169 F 
ATOM      7  F3  <0> d          -0.694   1.858  -1.124  0.00  0.00    -0.169 F 
ENDBRANCH   1   4
BRANCH   1   8
ATOM      8  O1  <0> d          -0.031   1.407   2.445  0.00  0.00    -0.295 OA
BRANCH   8   9
ATOM      9  C3  <0> d          -0.536   1.756   3.643  0.00  0.00     0.358 C 
ATOM     10  O2  <0> d          -1.536   2.443   3.705  0.00  0.00    -0.239 OA
ATOM     11  N1  <0> d           0.068   1.342   4.775  0.00  0.00    -0.346 N 
ATOM     12  H3  <0> d           0.867   0.793   4.726  0.00  0.00     0.161 HD
ATOM     13  H4  <0> d          -0.296   1.593   5.638  0.00  0.00     0.161 HD
ENDBRANCH   8   9
ENDBRANCH   1   8
TORSDOF 3
