REMARK  4 active torsions:
REMARK  status: ('A' for Active; 'I' for Inactive)
REMARK    1  A    between atoms: C1_1  and  C2_2 
REMARK    2  A    between atoms: C2_2  and  N1_3 
REMARK    3  A    between atoms: N1_3  and  C3_4 
REMARK    4  A    between atoms: C3_4  and  C4_5 
REMARK       I    between atoms: C4_5  and  N2_7 
ROOT
ATOM      1  C1  <0> d          -0.019   1.526   0.010  0.00  0.00     0.039 C 
ATOM      2  C5  <0> d           1.362   2.035  -0.000  0.00  0.00     0.060 C 
ATOM      3  N3  <0> d           2.428   2.429  -0.008  0.00  0.00    -0.197 NA
ATOM      4  H1  <0> d          -0.546   1.887  -0.873  0.00  0.00     0.057 H 
ATOM      5  H2  <0> d          -0.529   1.877   0.907  0.00  0.00     0.057 H 
ENDROOT
BRANCH   1   6
ATOM      6  C2  <0> d           0.002  -0.004   0.002  0.00  0.00     0.123 C 
ATOM      7  H3  <0> d           0.512  -0.356  -0.895  0.00  0.00     0.081 H 
ATOM      8  H4  <0> d           0.529  -0.365   0.885  0.00  0.00     0.081 H 
BRANCH   6   9
ATOM      9  N1  <0> d          -1.376  -0.512   0.012  0.00  0.00     0.093 N 
ATOM     10  H5  <0> d          -1.890  -0.148   0.801  0.00  0.00     0.316 HD
BRANCH   9  11
ATOM     11  C3  <0> d          -1.395  -1.981   0.005  0.00  0.00     0.183 C 
ATOM     12  H6  <0> d          -0.895  -2.347  -0.892  0.00  0.00     0.094 H 
ATOM     13  H7  <0> d          -0.878  -2.356   0.888  0.00  0.00     0.094 H 
BRANCH  11  14
ATOM     14  C4  <0> d          -2.823  -2.465   0.016  0.00  0.00     0.243 C 
ATOM     15  O1  <0> d          -3.734  -1.665   0.029  0.00  0.00    -0.272 OA
ATOM     16  N2  <0> d          -3.086  -3.787   0.011  0.00  0.00    -0.369 N 
ATOM     17  H8  <0> d          -2.357  -4.427   0.001  0.00  0.00     0.159 HD
ATOM     18  H9  <0> d          -4.005  -4.098   0.018  0.00  0.00     0.159 HD
ENDBRANCH  11  14
ENDBRANCH   9  11
ENDBRANCH   6   9
ENDBRANCH   1   6
TORSDOF 4
