REMARK  1 active torsions:
REMARK  status: ('A' for Active; 'I' for Inactive)
REMARK    1  A    between atoms: C6_7  and  O2_11 
ROOT
ATOM      1  C1  <0> d          -0.019   1.520   0.010  0.00  0.00    -0.065 C 
ATOM      2  C2  <0> d           1.411   2.093  -0.000  0.00  0.00    -0.065 C 
ATOM      3  C3  <0> d           2.273   1.354  -1.020  0.00  0.00    -0.059 C 
ATOM      4  C4  <0> d           1.867   1.784  -2.439  0.00  0.00    -0.007 C 
ATOM      5  C5  <0> d           0.591   1.084  -2.780  0.00  0.00     0.155 C 
ATOM      6  O1  <0> d          -0.303   1.679  -3.332  0.00  0.00    -0.295 OA
ATOM      7  C6  <0> d           0.435  -0.377  -2.427  0.00  0.00     0.092 C 
ATOM      8  H1  <0> d           1.391  -0.772  -2.082  0.00  0.00     0.095 H 
ATOM      9  C7  <0> d          -0.600  -0.514  -1.322  0.00  0.00    -0.035 C 
ATOM     10  C8  <0> d           0.002  -0.004   0.002  0.00  0.00    -0.062 C 
ATOM     11  H2  <0> d          -0.536   1.866   0.905  0.00  0.00     0.033 H 
ATOM     12  H3  <0> d          -0.553   1.876  -0.871  0.00  0.00     0.033 H 
ATOM     13  H4  <0> d           1.374   3.151  -0.259  0.00  0.00     0.033 H 
ATOM     14  H5  <0> d           1.851   1.982   0.991  0.00  0.00     0.033 H 
ATOM     15  H6  <0> d           3.323   1.596  -0.853  0.00  0.00     0.033 H 
ATOM     16  H7  <0> d           2.126   0.280  -0.910  0.00  0.00     0.033 H 
ATOM     17  H8  <0> d           1.716   2.863  -2.468  0.00  0.00     0.044 H 
ATOM     18  H9  <0> d           2.645   1.500  -3.148  0.00  0.00     0.044 H 
ATOM     19  H10 <0> d          -1.481   0.077  -1.572  0.00  0.00     0.037 H 
ATOM     20  H11 <0> d          -0.881  -1.562  -1.214  0.00  0.00     0.037 H 
ATOM     21  H12 <0> d           1.030  -0.355   0.093  0.00  0.00     0.033 H 
ATOM     22  H13 <0> d          -0.587  -0.381   0.839  0.00  0.00     0.033 H 
ENDROOT
BRANCH   7  23
ATOM     23  O2  <0> d           0.005  -1.104  -3.579  0.00  0.00    -0.388 OA
ATOM     24  H14 <0> d           0.618  -1.055  -4.326  0.00  0.00     0.210 HD
ENDBRANCH   7  23
TORSDOF 1
