REMARK  1 active torsions:
REMARK  status: ('A' for Active; 'I' for Inactive)
REMARK    1  A    between atoms: C1_1  and  C2_2 
ROOT
ATOM      1  C2  <0> d           0.013   4.137   0.380  0.00  0.00     0.042 C 
ATOM      2  H1  <0> d          -0.157   4.013   1.449  0.00  0.00     0.083 H 
ATOM      3  C3  <0> d          -1.165   3.545  -0.404  0.00  0.00    -0.037 C 
ATOM      4  C4  <0> d          -1.348   2.088   0.032  0.00  0.00    -0.036 C 
ATOM      5  C5  <0> d          -0.017   1.381   0.010  0.00  0.00    -0.025 A 
ATOM      6  C6  <0> d           0.002  -0.004   0.002  0.00  0.00    -0.074 A 
ATOM      7  C7  <0> d           1.204  -0.685  -0.009  0.00  0.00    -0.082 A 
ATOM      8  C8  <0> d           2.395   0.017  -0.013  0.00  0.00    -0.080 A 
ATOM      9  C9  <0> d           2.383   1.396  -0.008  0.00  0.00    -0.050 A 
ATOM     10  C10 <0> d           1.174   2.085   0.002  0.00  0.00     0.075 A 
ATOM     11  O1  <0> d           1.202   3.443  -0.002  0.00  0.00    -0.346 OA
ATOM     12  H5  <0> d          -2.071   4.109  -0.187  0.00  0.00     0.037 H 
ATOM     13  H6  <0> d          -0.953   3.585  -1.472  0.00  0.00     0.037 H 
ATOM     14  H7  <0> d          -2.036   1.589  -0.650  0.00  0.00     0.040 H 
ATOM     15  H8  <0> d          -1.756   2.060   1.043  0.00  0.00     0.040 H 
ATOM     16  H9  <0> d          -0.927  -0.554   0.005  0.00  0.00     0.084 H 
ATOM     17  H10 <0> d           1.212  -1.765  -0.015  0.00  0.00     0.083 H 
ATOM     18  H11 <0> d           3.335  -0.515  -0.020  0.00  0.00     0.083 H 
ATOM     19  H12 <0> d           3.314   1.943  -0.011  0.00  0.00     0.087 H 
ENDROOT
BRANCH   1  20
ATOM     20  C1  <0> d           0.156   5.624   0.050  0.00  0.00    -0.052 C 
ATOM     21  H2  <0> d           0.317   5.745  -1.022  0.00  0.00     0.030 H 
ATOM     22  H3  <0> d          -0.753   6.150   0.342  0.00  0.00     0.030 H 
ATOM     23  H4  <0> d           1.006   6.037   0.593  0.00  0.00     0.030 H 
ENDBRANCH   1  20
TORSDOF 1
