REMARK  0 active torsions:
REMARK  status: ('A' for Active; 'I' for Inactive)
REMARK       I    between atoms: N1_3  and  C4_6 
REMARK       I    between atoms: C4_6  and  N3_8 
ROOT
ATOM      1  C1  <0> d          -4.469   0.426   0.026  0.00  0.00     0.019 A 
ATOM      2  C2  <0> d          -3.614   1.464   0.033  0.00  0.00     0.007 A 
ATOM      3  N1  <0> d          -2.345   0.934   0.018  0.00  0.00    -0.268 N 
ATOM      4  C3  <0> d          -2.482  -0.422   0.012  0.00  0.00     0.074 A 
ATOM      5  N2  <0> d          -3.753  -0.710   0.017  0.00  0.00    -0.254 NA
ATOM      6  C4  <0> d          -1.187   1.624   0.017  0.00  0.00     0.325 C 
ATOM      7  O1  <0> d          -1.204   2.839   0.023  0.00  0.00    -0.247 OA
ATOM      8  N3  <0> d          -0.011   0.966   0.007  0.00  0.00    -0.351 N 
ATOM      9  H1  <0> d          -5.547   0.495   0.032  0.00  0.00     0.117 H 
ATOM     10  H2  <0> d          -3.873   2.513   0.045  0.00  0.00     0.114 H 
ATOM     11  H3  <0> d          -1.673  -1.138   0.004  0.00  0.00     0.144 H 
ATOM     12  H4  <0> d           0.002  -0.004   0.002  0.00  0.00     0.160 HD
ATOM     13  H5  <0> d           0.822   1.462   0.002  0.00  0.00     0.160 HD
ENDROOT
TORSDOF 0
