REMARK  2 active torsions:
REMARK  status: ('A' for Active; 'I' for Inactive)
REMARK    1  A    between atoms: C1_1  and  C2_2 
REMARK    2  A    between atoms: C4_4  and  O1_8 
ROOT
ATOM      1  C2  <0> d           2.368   1.345  -0.013  0.00  0.00    -0.042 A 
ATOM      2  C3  <0> d           1.190   2.075   0.002  0.00  0.00    -0.043 A 
ATOM      3  C4  <0> d          -0.017   1.383   0.010  0.00  0.00     0.083 A 
ATOM      4  C5  <0> d           0.002  -0.004   0.002  0.00  0.00     0.034 A 
ATOM      5  N1  <0> d           1.145  -0.661  -0.012  0.00  0.00    -0.270 NA
ATOM      6  C6  <0> d           2.306  -0.036  -0.020  0.00  0.00     0.008 A 
ATOM      7  H4  <0> d           1.208   3.155   0.007  0.00  0.00     0.088 H 
ATOM      8  H5  <0> d          -0.929  -0.551   0.008  0.00  0.00     0.119 H 
ATOM      9  H6  <0> d           3.220  -0.610  -0.031  0.00  0.00     0.115 H 
ENDROOT
BRANCH   1  10
ATOM     10  C1  <0> d           3.700   2.048  -0.022  0.00  0.00    -0.050 C 
ATOM     11  H1  <0> d           4.012   2.223  -1.052  0.00  0.00     0.033 H 
ATOM     12  H2  <0> d           3.611   3.002   0.497  0.00  0.00     0.033 H 
ATOM     13  H3  <0> d           4.442   1.428   0.482  0.00  0.00     0.033 H 
ENDBRANCH   1  10
BRANCH   3  14
ATOM     14  O1  <0> d          -1.197   2.057   0.019  0.00  0.00    -0.359 OA
ATOM     15  H7  <0> d          -1.535   2.247   0.905  0.00  0.00     0.217 HD
ENDBRANCH   3  14
TORSDOF 2
