REMARK  5 active torsions:
REMARK  status: ('A' for Active; 'I' for Inactive)
REMARK    1  A    between atoms: C1_1  and  C2_2 
REMARK    2  A    between atoms: C2_2  and  C3_3 
REMARK    3  A    between atoms: C2_2  and  C4_4 
REMARK    4  A    between atoms: C4_4  and  C5_6 
REMARK    5  A    between atoms: C4_4  and  O1_12 
ROOT
ATOM      1  C4  <0> d          -0.729   1.579   1.267  0.00  0.00     0.063 C 
ATOM      2  H1  <0> d          -1.751   1.202   1.275  0.00  0.00     0.091 H 
ENDROOT
BRANCH   1   3
ATOM      3  C2  <0> d          -0.013   1.086   0.008  0.00  0.00    -0.032 C 
ATOM      4  H5  <0> d           0.002  -0.004   0.002  0.00  0.00     0.043 H 
BRANCH   3   5
ATOM      5  C1  <0> d           1.423   1.615  -0.003  0.00  0.00    -0.071 C 
ATOM      6  H2  <0> d           1.950   1.254   0.880  0.00  0.00     0.028 H 
ATOM      7  H3  <0> d           1.933   1.264  -0.900  0.00  0.00     0.028 H 
ATOM      8  H4  <0> d           1.408   2.705   0.003  0.00  0.00     0.028 H 
ENDBRANCH   3   5
BRANCH   3   9
ATOM      9  C3  <0> d          -0.753   1.593  -1.232  0.00  0.00    -0.071 C 
ATOM     10  H6  <0> d          -0.242   1.241  -2.128  0.00  0.00     0.028 H 
ATOM     11  H7  <0> d          -1.775   1.215  -1.224  0.00  0.00     0.028 H 
ATOM     12  H8  <0> d          -0.767   2.683  -1.226  0.00  0.00     0.028 H 
ENDBRANCH   3   9
ENDBRANCH   1   3
BRANCH   1  13
ATOM     13  C5  <0> d           0.000   1.080   2.488  0.00  0.00    -0.029 A 
ATOM     14  C10 <0> d          -0.411  -0.084   3.110  0.00  0.00    -0.074 A 
ATOM     15  C9  <0> d           0.258  -0.542   4.230  0.00  0.00    -0.082 A 
ATOM     16  H13 <0> d          -1.254  -0.636   2.721  0.00  0.00     0.084 H 
ATOM     17  C8  <0> d           1.337   0.164   4.727  0.00  0.00    -0.083 A 
ATOM     18  H12 <0> d          -0.063  -1.451   4.716  0.00  0.00     0.083 H 
ATOM     19  C7  <0> d           1.749   1.328   4.104  0.00  0.00    -0.082 A 
ATOM     20  H11 <0> d           1.859  -0.193   5.603  0.00  0.00     0.083 H 
ATOM     21  C6  <0> d           1.083   1.783   2.982  0.00  0.00    -0.074 A 
ATOM     22  H10 <0> d           2.592   1.879   4.493  0.00  0.00     0.083 H 
ATOM     23  H9  <0> d           1.406   2.690   2.493  0.00  0.00     0.084 H 
ENDBRANCH   1  13
BRANCH   1  24
ATOM     24  O1  <0> d          -0.748   3.008   1.275  0.00  0.00    -0.391 OA
ATOM     25  H14 <0> d           0.130   3.413   1.268  0.00  0.00     0.210 HD
ENDBRANCH   1  24
TORSDOF 5
