REMARK  2 active torsions:
REMARK  status: ('A' for Active; 'I' for Inactive)
REMARK    1  A    between atoms: C4_4  and  C7_7 
REMARK    2  A    between atoms: C7_7  and  C8_8 
ROOT
ATOM      1  C1  <0> d          -0.017   1.378   0.010  0.00  0.00    -0.083 A 
ATOM      2  C2  <0> d           1.171   2.086   0.002  0.00  0.00    -0.082 A 
ATOM      3  C3  <0> d           2.377   1.411  -0.013  0.00  0.00    -0.076 A 
ATOM      4  C4  <0> d           2.396   0.029  -0.020  0.00  0.00    -0.052 A 
ATOM      5  C5  <0> d           1.208  -0.679  -0.012  0.00  0.00    -0.076 A 
ATOM      6  C6  <0> d           0.002  -0.004   0.002  0.00  0.00    -0.082 A 
ATOM      7  H1  <0> d          -0.959   1.905   0.026  0.00  0.00     0.083 H 
ATOM      8  H2  <0> d           1.156   3.165   0.008  0.00  0.00     0.083 H 
ATOM      9  H3  <0> d           3.305   1.963  -0.020  0.00  0.00     0.084 H 
ATOM     10  H4  <0> d           1.223  -1.759  -0.018  0.00  0.00     0.084 H 
ATOM     11  H5  <0> d          -0.926  -0.557   0.008  0.00  0.00     0.083 H 
ENDROOT
BRANCH   4  12
ATOM     12  C7  <0> d           3.711  -0.707  -0.038  0.00  0.00     0.004 C 
ATOM     13  H6  <0> d           3.588  -1.659  -0.555  0.00  0.00     0.050 H 
ATOM     14  H7  <0> d           4.457  -0.105  -0.556  0.00  0.00     0.050 H 
BRANCH  12  15
ATOM     15  C8  <0> d           4.164  -0.959   1.377  0.00  0.00     0.056 A 
ATOM     16  O1  <0> d           4.933  -0.140   2.114  0.00  0.00    -0.327 OA
ATOM     17  C11 <0> d           5.133  -0.684   3.326  0.00  0.00     0.019 A 
ATOM     18  C10 <0> d           4.497  -1.868   3.371  0.00  0.00    -0.059 A 
ATOM     19  H10 <0> d           5.710  -0.246   4.127  0.00  0.00     0.123 H 
ATOM     20  C9  <0> d           3.873  -2.046   2.115  0.00  0.00    -0.052 A 
ATOM     21  H9  <0> d           4.469  -2.552   4.206  0.00  0.00     0.086 H 
ATOM     22  H8  <0> d           3.276  -2.892   1.807  0.00  0.00     0.087 H 
ENDBRANCH  12  15
ENDBRANCH   4  12
TORSDOF 2
