REMARK  3 active torsions:
REMARK  status: ('A' for Active; 'I' for Inactive)
REMARK    1  A    between atoms: C1_1  and  O1_2 
REMARK    2  A    between atoms: O1_2  and  C2_3 
REMARK    3  A    between atoms: C2_3  and  C3_4 
ROOT
ATOM      1  C2  <0> d          -0.733   1.888   1.268  0.00  0.00     0.413 C 
ATOM      2  F3  <0> d          -0.056   1.425   2.402  0.00  0.00    -0.169 F 
ATOM      3  F4  <0> d          -0.752   3.287   1.276  0.00  0.00    -0.169 F 
ENDROOT
BRANCH   1   4
ATOM      4  O1  <0> d          -2.074   1.394   1.279  0.00  0.00    -0.327 OA
BRANCH   4   5
ATOM      5  C1  <0> d          -2.834   1.799   2.419  0.00  0.00     0.010 C 
ATOM      6  H1  <0> d          -3.839   1.383   2.352  0.00  0.00     0.066 H 
ATOM      7  H2  <0> d          -2.350   1.436   3.326  0.00  0.00     0.066 H 
ATOM      8  H3  <0> d          -2.892   2.887   2.449  0.00  0.00     0.066 H 
ENDBRANCH   4   5
ENDBRANCH   1   4
BRANCH   1   9
ATOM      9  C3  <0> d          -0.017   1.395   0.010  0.00  0.00     0.296 C 
ATOM     10  F1  <0> d           0.002  -0.004   0.002  0.00  0.00    -0.205 F 
ATOM     11  F2  <0> d           1.296   1.879  -0.000  0.00  0.00    -0.205 F 
ATOM     12  H4  <0> d          -0.544   1.756  -0.873  0.00  0.00     0.159 H 
ENDBRANCH   1   9
TORSDOF 3
