REMARK  3 active torsions:
REMARK  status: ('A' for Active; 'I' for Inactive)
REMARK    1  A    between atoms: C1_1  and  C2_2 
REMARK    2  A    between atoms: C4_4  and  C6_9 
REMARK    3  A    between atoms: C5_6  and  N3_8 
REMARK       I    between atoms: C6_9  and  N4_11 
ROOT
ATOM      1  C2  <0> d           0.002  -0.004   0.002  0.00  0.00     0.052 A 
ATOM      2  C3  <0> d           0.006  -0.700  -1.199  0.00  0.00    -0.025 A 
ATOM      3  C4  <0> d           0.026  -2.094  -1.159  0.00  0.00     0.145 A 
ATOM      4  N1  <0> d           0.040  -2.705   0.022  0.00  0.00    -0.058 NA
ATOM      5  C5  <0> d           0.035  -2.004   1.144  0.00  0.00     0.721 A 
ATOM      6  N2  <0> d           0.022  -0.678   1.138  0.00  0.00    -0.068 NA
ATOM      7  H4  <0> d          -0.006  -0.173  -2.143  0.00  0.00     0.090 H 
ENDROOT
BRANCH   3   8
ATOM      8  C6  <0> d           0.030  -2.883  -2.417  0.00  0.00     0.268 C 
ATOM      9  O1  <0> d           0.017  -2.316  -3.491  0.00  0.00    -0.266 OA
ATOM     10  N4  <0> d           0.049  -4.230  -2.366  0.00  0.00    -0.365 N 
ATOM     11  H7  <0> d           0.060  -4.683  -1.509  0.00  0.00     0.159 HD
ATOM     12  H8  <0> d           0.052  -4.746  -3.188  0.00  0.00     0.159 HD
ENDBRANCH   3   8
BRANCH   1  13
ATOM     13  C1  <0> d          -0.018   1.503   0.010  0.00  0.00    -0.035 C 
ATOM     14  H1  <0> d           1.004   1.880   0.003  0.00  0.00     0.035 H 
ATOM     15  H2  <0> d          -0.545   1.864  -0.873  0.00  0.00     0.035 H 
ATOM     16  H3  <0> d          -0.529   1.854   0.907  0.00  0.00     0.035 H 
ENDBRANCH   1  13
BRANCH   5  17
ATOM     17  N3  <0> d           0.050  -2.672   2.356  0.00  0.00    -0.231 N 
ATOM     18  H5  <0> d           0.063  -3.642   2.375  0.00  0.00     0.174 HD
ATOM     19  H6  <0> d           0.047  -2.171   3.187  0.00  0.00     0.174 HD
ENDBRANCH   5  17
TORSDOF 3
