REMARK  5 active torsions:
REMARK  status: ('A' for Active; 'I' for Inactive)
REMARK    1  A    between atoms: C1_1  and  C2_2 
REMARK    2  A    between atoms: C1_1  and  C4_5 
REMARK    3  A    between atoms: C2_2  and  C3_3 
REMARK    4  A    between atoms: C4_5  and  C5_7 
REMARK    5  A    between atoms: C4_5  and  O3_9 
ROOT
ATOM      1  C1  <0> d          -0.013   1.086   0.008  0.00  0.00    -0.023 C 
ATOM      2  H2  <0> d           0.002  -0.004   0.002  0.00  0.00     0.038 H 
ATOM      3  H3  <0> d           1.010   1.463   0.000  0.00  0.00     0.038 H 
ENDROOT
BRANCH   1   4
ATOM      4  C2  <0> d          -0.753   1.593  -1.232  0.00  0.00     0.018 C 
ATOM      5  H4  <0> d          -1.775   1.215  -1.224  0.00  0.00     0.049 H 
ATOM      6  H5  <0> d          -0.767   2.683  -1.226  0.00  0.00     0.049 H 
BRANCH   4   7
ATOM      7  C3  <0> d          -0.047   1.107  -2.471  0.00  0.00     0.172 C 
ATOM      8  O1  <0> d           0.945   0.425  -2.374  0.00  0.00    -0.648 OA
ATOM      9  O4  <0> d          -0.522   1.431  -3.684  0.00  0.00    -0.648 OA
ENDBRANCH   4   7
ENDBRANCH   1   4
BRANCH   1  10
ATOM     10  C4  <0> d          -0.729   1.579   1.267  0.00  0.00     0.119 C 
ATOM     11  H1  <0> d          -1.776   1.277   1.232  0.00  0.00     0.100 H 
BRANCH  10  12
ATOM     12  C5  <0> d          -0.074   0.981   2.485  0.00  0.00     0.203 C 
ATOM     13  O2  <0> d           0.492   1.694   3.279  0.00  0.00    -0.646 OA
ATOM     14  O5  <0> d          -0.119  -0.346   2.688  0.00  0.00    -0.646 OA
ENDBRANCH  10  12
BRANCH  10  15
ATOM     15  O3  <0> d          -0.647   3.004   1.334  0.00  0.00    -0.385 OA
ATOM     16  H6  <0> d           0.258   3.345   1.368  0.00  0.00     0.210 HD
ENDBRANCH  10  15
ENDBRANCH   1  10
TORSDOF 5
