REMARK  1 active torsions:
REMARK  status: ('A' for Active; 'I' for Inactive)
REMARK    1  A    between atoms: C2_2  and  C3_3 
ROOT
ATOM      1  C1  <0> d           0.018  -1.178  -0.004  0.00  0.00    -0.149 C 
ATOM      2  C2  <0> d           0.002  -0.004   0.002  0.00  0.00    -0.071 C 
ATOM      3  H1  <0> d           0.032  -2.228  -0.010  0.00  0.00     0.166 H 
ENDROOT
BRANCH   2   4
ATOM      4  C3  <0> d          -0.017   1.428   0.010  0.00  0.00     0.094 A 
ATOM      5  C8  <0> d           1.181   2.146   0.002  0.00  0.00     0.141 A 
ATOM      6  C7  <0> d           1.156   3.527   0.004  0.00  0.00    -0.007 A 
ATOM      7  F1  <0> d           2.363   1.491  -0.013  0.00  0.00    -0.204 F 
ATOM      8  C6  <0> d          -0.055   4.201   0.026  0.00  0.00     0.122 A 
ATOM      9  H3  <0> d           2.081   4.084  -0.006  0.00  0.00     0.093 H 
ATOM     10  C5  <0> d          -1.247   3.495   0.039  0.00  0.00    -0.007 A 
ATOM     11  F2  <0> d          -0.073   5.551   0.033  0.00  0.00    -0.206 F 
ATOM     12  C4  <0> d          -1.235   2.113   0.031  0.00  0.00     0.141 A 
ATOM     13  H2  <0> d          -2.187   4.025   0.055  0.00  0.00     0.093 H 
ATOM     14  F3  <0> d          -2.398   1.426   0.043  0.00  0.00    -0.204 F 
ENDBRANCH   2   4
TORSDOF 1
