REMARK  2 active torsions:
REMARK  status: ('A' for Active; 'I' for Inactive)
REMARK    1  A    between atoms: C1_1  and  C2_2 
REMARK    2  A    between atoms: C2_2  and  C3_3 
ROOT
ATOM      1  C3  <0> d          -1.412  -0.526   0.013  0.00  0.00     0.056 A 
ATOM      2  C4  <0> d          -1.833  -1.411  -0.967  0.00  0.00    -0.056 A 
ATOM      3  C5  <0> d          -3.145  -1.864  -0.915  0.00  0.00    -0.062 A 
ATOM      4  C6  <0> d          -3.952  -1.403   0.113  0.00  0.00     0.024 A 
ATOM      5  N1  <0> d          -3.464  -0.559   1.003  0.00  0.00    -0.163 NA
ATOM      6  N2  <0> d          -2.250  -0.145   0.958  0.00  0.00    -0.155 NA
ATOM      7  H6  <0> d          -1.162  -1.738  -1.748  0.00  0.00     0.086 H 
ATOM      8  H7  <0> d          -3.525  -2.554  -1.654  0.00  0.00     0.085 H 
ATOM      9  H8  <0> d          -4.978  -1.732   0.185  0.00  0.00     0.117 H 
ENDROOT
BRANCH   1  10
ATOM     10  C2  <0> d           0.002  -0.004   0.002  0.00  0.00    -0.026 C 
ATOM     11  H4  <0> d           0.512  -0.356  -0.895  0.00  0.00     0.041 H 
ATOM     12  H5  <0> d           0.529  -0.365   0.885  0.00  0.00     0.041 H 
BRANCH  10  13
ATOM     13  C1  <0> d          -0.019   1.526   0.010  0.00  0.00    -0.071 C 
ATOM     14  H1  <0> d           1.004   1.903   0.003  0.00  0.00     0.028 H 
ATOM     15  H2  <0> d          -0.546   1.887  -0.873  0.00  0.00     0.028 H 
ATOM     16  H3  <0> d          -0.529   1.877   0.907  0.00  0.00     0.028 H 
ENDBRANCH  10  13
ENDBRANCH   1  10
TORSDOF 2
