REMARK  2 active torsions:
REMARK  status: ('A' for Active; 'I' for Inactive)
REMARK    1  A    between atoms: C1_1  and  C2_2 
REMARK    2  A    between atoms: C2_2  and  C3_4 
ROOT
ATOM      1  C3  <0> d          -1.252   0.609   2.210  0.00  0.00     0.070 A 
ATOM      2  C4  <0> d          -1.926   0.835   3.411  0.00  0.00    -0.044 A 
ATOM      3  C5  <0> d          -2.280  -0.330   4.048  0.00  0.00     0.012 A 
ATOM      4  N1  <0> d          -1.970  -1.483   3.521  0.00  0.00    -0.223 NA
ATOM      5  S1  <0> d          -1.211  -1.172   2.173  0.00  0.00     0.014 SA
ATOM      6  H4  <0> d          -2.147   1.819   3.797  0.00  0.00     0.088 H 
ATOM      7  H5  <0> d          -2.811  -0.291   4.987  0.00  0.00     0.115 H 
ENDROOT
BRANCH   1   8
ATOM      8  C2  <0> d          -0.718   1.572   1.248  0.00  0.00     0.164 C 
ATOM      9  O1  <0> d          -0.843   2.762   1.448  0.00  0.00    -0.292 OA
BRANCH   8  10
ATOM     10  C1  <0> d          -0.013   1.086   0.008  0.00  0.00    -0.016 C 
ATOM     11  H1  <0> d           0.001   0.086   0.003  0.00  0.00     0.038 H 
ATOM     12  H2  <0> d           1.010   1.463   0.000  0.00  0.00     0.038 H 
ATOM     13  H3  <0> d          -0.540   1.447  -0.875  0.00  0.00     0.038 H 
ENDBRANCH   8  10
ENDBRANCH   1   8
TORSDOF 2
