REMARK  4 active torsions:
REMARK  status: ('A' for Active; 'I' for Inactive)
REMARK    1  A    between atoms: C1_1  and  C2_2 
REMARK    2  A    between atoms: C2_2  and  C3_3 
REMARK    3  A    between atoms: C8_8  and  O1_9 
REMARK    4  A    between atoms: O1_9  and  C9_10 
ROOT
ATOM      1  C3  <0> d          -1.425   3.409   2.465  0.00  0.00    -0.025 A 
ATOM      2  C4  <0> d          -1.531   4.776   2.627  0.00  0.00    -0.074 A 
ATOM      3  C5  <0> d          -1.003   5.630   1.677  0.00  0.00    -0.082 A 
ATOM      4  C6  <0> d          -0.367   5.117   0.561  0.00  0.00    -0.080 A 
ATOM      5  C7  <0> d          -0.253   3.751   0.396  0.00  0.00    -0.050 A 
ATOM      6  C8  <0> d          -0.787   2.892   1.346  0.00  0.00     0.074 A 
ATOM      7  H6  <0> d          -2.026   5.179   3.498  0.00  0.00     0.084 H 
ATOM      8  H7  <0> d          -1.087   6.699   1.806  0.00  0.00     0.083 H 
ATOM      9  H8  <0> d           0.045   5.786  -0.180  0.00  0.00     0.083 H 
ATOM     10  H9  <0> d           0.247   3.351  -0.473  0.00  0.00     0.087 H 
ENDROOT
BRANCH   1  11
ATOM     11  C2  <0> d          -2.000   2.479   3.502  0.00  0.00    -0.042 C 
ATOM     12  H4  <0> d          -2.805   2.983   4.035  0.00  0.00     0.039 H 
ATOM     13  H5  <0> d          -2.391   1.586   3.013  0.00  0.00     0.039 H 
BRANCH  11  14
ATOM     14  C1  <0> d          -0.904   2.079   4.492  0.00  0.00    -0.073 C 
ATOM     15  H1  <0> d          -0.513   2.971   4.981  0.00  0.00     0.028 H 
ATOM     16  H2  <0> d          -1.321   1.406   5.242  0.00  0.00     0.028 H 
ATOM     17  H3  <0> d          -0.099   1.574   3.958  0.00  0.00     0.028 H 
ENDBRANCH  11  14
ENDBRANCH   1  11
BRANCH   6  18
ATOM     18  O1  <0> d          -0.682   1.547   1.184  0.00  0.00    -0.355 OA
BRANCH  18  19
ATOM     19  C9  <0> d          -0.013   1.086   0.008  0.00  0.00     0.010 C 
ATOM     20  H10 <0> d           0.002  -0.004   0.002  0.00  0.00     0.066 H 
ATOM     21  H11 <0> d           1.010   1.463   0.000  0.00  0.00     0.066 H 
ATOM     22  H12 <0> d          -0.540   1.447  -0.875  0.00  0.00     0.066 H 
ENDBRANCH  18  19
ENDBRANCH   6  18
TORSDOF 4
