REMARK  5 active torsions:
REMARK  status: ('A' for Active; 'I' for Inactive)
REMARK    1  A    between atoms: C1_1  and  C2_2 
REMARK    2  A    between atoms: C2_2  and  C3_3 
REMARK    3  A    between atoms: C4_4  and  C5_5 
REMARK    4  A    between atoms: C6_6  and  C7_7 
REMARK    5  A    between atoms: C7_7  and  O1_8 
ROOT
ATOM      1  C3  <0> d           0.002  -0.004   0.002  0.00  0.00    -0.102 C 
ATOM      2  C4  <0> d           0.018  -1.178  -0.004  0.00  0.00    -0.079 C 
ENDROOT
BRANCH   2   3
ATOM      3  C5  <0> d           0.037  -2.610  -0.012  0.00  0.00    -0.035 C 
ATOM      4  C6  <0> d          -1.104  -3.290  -0.005  0.00  0.00    -0.073 C 
ATOM      5  H7  <0> d          -1.089  -4.370  -0.011  0.00  0.00     0.081 H 
ATOM      6  H6  <0> d           0.980  -3.137  -0.024  0.00  0.00     0.097 H 
BRANCH   4   7
ATOM      7  C7  <0> d          -2.419  -2.554   0.011  0.00  0.00     0.032 C 
ATOM      8  H8  <0> d          -2.857  -2.614   1.008  0.00  0.00     0.080 H 
ATOM      9  H9  <0> d          -2.254  -1.509  -0.251  0.00  0.00     0.080 H 
BRANCH   7  10
ATOM     10  O1  <0> d          -3.309  -3.148  -0.936  0.00  0.00    -0.397 OA
ATOM     11  H10 <0> d          -4.177  -2.724  -0.979  0.00  0.00     0.209 HD
ENDBRANCH   7  10
ENDBRANCH   4   7
ENDBRANCH   2   3
BRANCH   1  12
ATOM     12  C2  <0> d          -0.018   1.468   0.010  0.00  0.00    -0.012 C 
ATOM     13  H4  <0> d          -0.545   1.829  -0.873  0.00  0.00     0.051 H 
ATOM     14  H5  <0> d          -0.528   1.819   0.907  0.00  0.00     0.051 H 
BRANCH  12  15
ATOM     15  C1  <0> d           1.417   1.997  -0.001  0.00  0.00    -0.067 C 
ATOM     16  H1  <0> d           1.403   3.087   0.005  0.00  0.00     0.028 H 
ATOM     17  H2  <0> d           1.945   1.636   0.882  0.00  0.00     0.028 H 
ATOM     18  H3  <0> d           1.928   1.646  -0.897  0.00  0.00     0.028 H 
ENDBRANCH  12  15
ENDBRANCH   1  12
TORSDOF 5
