REMARK  1 active torsions:
REMARK  status: ('A' for Active; 'I' for Inactive)
REMARK    1  A    between atoms: C3_3  and  C8_12 
ROOT
ATOM      1  C1  <0> d          -0.018   1.514   0.010  0.00  0.00    -0.060 C 
ATOM      2  C2  <0> d           1.507   1.849  -0.002  0.00  0.00    -0.051 C 
ATOM      3  C3  <0> d           2.178   0.621  -0.686  0.00  0.00     0.041 C 
ATOM      4  H1  <0> d           2.812   0.943  -1.512  0.00  0.00     0.057 H 
ATOM      5  C4  <0> d           1.020  -0.195  -1.197  0.00  0.00     0.021 C 
ATOM      6  H2  <0> d           0.597   0.217  -2.113  0.00  0.00     0.053 H 
ATOM      7  C5  <0> d           0.002  -0.004   0.002  0.00  0.00    -0.037 C 
ATOM      8  H3  <0> d           0.332  -0.439   0.946  0.00  0.00     0.041 H 
ATOM      9  C6  <0> d          -0.751  -0.955  -0.878  0.00  0.00    -0.005 C 
ATOM     10  C7  <0> d           0.629  -1.592  -0.965  0.00  0.00     0.132 C 
ATOM     11  O1  <0> d           1.133  -2.686  -0.879  0.00  0.00    -0.298 OA
ATOM     12  H4  <0> d          -0.494   1.893   0.915  0.00  0.00     0.033 H 
ATOM     13  H5  <0> d          -0.511   1.903  -0.881  0.00  0.00     0.033 H 
ATOM     14  H6  <0> d           1.692   2.753  -0.582  0.00  0.00     0.034 H 
ATOM     15  H7  <0> d           1.878   1.966   1.016  0.00  0.00     0.034 H 
ATOM     16  H8  <0> d          -1.491  -1.564  -0.358  0.00  0.00     0.044 H 
ATOM     17  H9  <0> d          -1.123  -0.516  -1.804  0.00  0.00     0.044 H 
ENDROOT
BRANCH   3  18
ATOM     18  C8  <0> d           2.981  -0.168   0.317  0.00  0.00     0.177 C 
ATOM     19  O2  <0> d           3.052   0.211   1.474  0.00  0.00    -0.648 OA
ATOM     20  O3  <0> d           3.560  -1.183  -0.029  0.00  0.00    -0.648 OA
ENDBRANCH   3  18
TORSDOF 1
