REMARK  2 active torsions:
REMARK  status: ('A' for Active; 'I' for Inactive)
REMARK    1  A    between atoms: C3_3  and  N3_8 
REMARK    2  A    between atoms: C5_6  and  N2_7 
ROOT
ATOM      1  C1  <0> d          -0.017   1.389   0.010  0.00  0.00    -0.053 A 
ATOM      2  C2  <0> d           1.190   2.065   0.002  0.00  0.00    -0.037 A 
ATOM      3  C3  <0> d           2.374   1.336  -0.013  0.00  0.00     0.120 A 
ATOM      4  N1  <0> d           2.355   0.013  -0.020  0.00  0.00    -0.242 NA
ATOM      5  C4  <0> d           1.222  -0.664  -0.013  0.00  0.00     0.029 A 
ATOM      6  C5  <0> d           0.002  -0.004   0.002  0.00  0.00     0.043 A 
ATOM      7  H1  <0> d          -0.952   1.929   0.026  0.00  0.00     0.087 H 
ATOM      8  H2  <0> d           1.213   3.145   0.007  0.00  0.00     0.089 H 
ATOM      9  H3  <0> d           1.245  -1.743  -0.019  0.00  0.00     0.118 H 
ENDROOT
BRANCH   3  10
ATOM     10  N3  <0> d           3.596   2.007  -0.022  0.00  0.00    -0.384 N 
ATOM     11  H6  <0> d           3.616   2.977  -0.017  0.00  0.00     0.157 HD
ATOM     12  H7  <0> d           4.425   1.504  -0.033  0.00  0.00     0.157 HD
ENDBRANCH   3  10
BRANCH   6  13
ATOM     13  N2  <0> d          -1.196  -0.729   0.010  0.00  0.00    -0.398 N 
ATOM     14  H4  <0> d          -2.046  -0.262   0.021  0.00  0.00     0.156 HD
ATOM     15  H5  <0> d          -1.176  -1.699   0.005  0.00  0.00     0.156 HD
ENDBRANCH   6  13
TORSDOF 2
