REMARK  1 active torsions:
REMARK  status: ('A' for Active; 'I' for Inactive)
REMARK    1  A    between atoms: C1_1  and  C2_2 
ROOT
ATOM      1  C2  <0> d          -1.346   4.458   0.038  0.00  0.00    -0.047 A 
ATOM      2  C3  <0> d          -0.579   5.609   0.037  0.00  0.00    -0.059 A 
ATOM      3  C4  <0> d           0.803   5.505   0.023  0.00  0.00     0.005 A 
ATOM      4  N1  <0> d           1.407   4.336   0.011  0.00  0.00    -0.242 NA
ATOM      5  C5  <0> d           0.724   3.199   0.012  0.00  0.00     0.138 A 
ATOM      6  C6  <0> d          -0.684   3.228   0.025  0.00  0.00     0.017 A 
ATOM      7  C7  <0> d          -1.122   1.831   0.017  0.00  0.00    -0.054 A 
ATOM      8  C8  <0> d          -0.013   1.076   0.008  0.00  0.00    -0.020 A 
ATOM      9  N2  <0> d           1.098   1.877   0.002  0.00  0.00    -0.350 N 
ATOM     10  H1  <0> d           2.014   1.558  -0.009  0.00  0.00     0.166 HD
ATOM     11  H5  <0> d          -1.053   6.579   0.046  0.00  0.00     0.086 H 
ATOM     12  H6  <0> d           1.399   6.406   0.023  0.00  0.00     0.114 H 
ATOM     13  H7  <0> d          -2.142   1.477   0.019  0.00  0.00     0.087 H 
ATOM     14  H8  <0> d           0.002  -0.004   0.002  0.00  0.00     0.111 H 
ENDROOT
BRANCH   1  15
ATOM     15  C1  <0> d          -2.851   4.529   0.053  0.00  0.00    -0.050 C 
ATOM     16  H2  <0> d          -3.204   4.541   1.084  0.00  0.00     0.033 H 
ATOM     17  H3  <0> d          -3.177   5.438  -0.453  0.00  0.00     0.033 H 
ATOM     18  H4  <0> d          -3.261   3.660  -0.462  0.00  0.00     0.033 H 
ENDBRANCH   1  15
TORSDOF 1
