REMARK  0 active torsions:
REMARK  status: ('A' for Active; 'I' for Inactive)
ROOT
ATOM      1  C1  <0> d          -0.017   1.373   0.010  0.00  0.00    -0.034 A 
ATOM      2  C2  <0> d           1.200   2.049   0.002  0.00  0.00     0.134 A 
ATOM      3  C3  <0> d           2.371   1.313  -0.013  0.00  0.00     0.042 A 
ATOM      4  N1  <0> d           2.351  -0.004  -0.020  0.00  0.00    -0.240 NA
ATOM      5  C4  <0> d           1.212  -0.690  -0.013  0.00  0.00     0.136 A 
ATOM      6  C5  <0> d           0.002  -0.004   0.002  0.00  0.00    -0.000 A 
ATOM      7  C6  <0> d          -1.085  -1.052   0.006  0.00  0.00     0.037 A 
ATOM      8  C7  <0> d          -0.327  -2.364  -0.008  0.00  0.00     0.227 A 
ATOM      9  O1  <0> d          -0.812  -3.475  -0.010  0.00  0.00    -0.273 OA
ATOM     10  N2  <0> d           0.982  -2.063  -0.019  0.00  0.00    -0.311 N 
ATOM     11  F1  <0> d           1.237   3.399   0.008  0.00  0.00    -0.205 F 
ATOM     12  H1  <0> d          -0.951   1.914   0.026  0.00  0.00     0.089 H 
ATOM     13  H2  <0> d           3.321   1.828  -0.020  0.00  0.00     0.119 H 
ATOM     14  H3  <0> d          -1.691  -0.971   0.908  0.00  0.00     0.054 H 
ATOM     15  H4  <0> d          -1.708  -0.961  -0.883  0.00  0.00     0.054 H 
ATOM     16  H5  <0> d           1.688  -2.728  -0.029  0.00  0.00     0.170 HD
ENDROOT
TORSDOF 0
