REMARK  2 active torsions:
REMARK  status: ('A' for Active; 'I' for Inactive)
REMARK    1  A    between atoms: C1_1  and  N1_2 
REMARK    2  A    between atoms: N1_2  and  C2_3 
ROOT
ATOM      1  C2  <0> d           2.400   0.030  -0.021  0.00  0.00     0.029 A 
ATOM      2  C3  <0> d           1.207  -0.680  -0.013  0.00  0.00    -0.055 A 
ATOM      3  C4  <0> d           0.002  -0.004   0.002  0.00  0.00    -0.042 A 
ATOM      4  C5  <0> d          -0.017   1.380   0.010  0.00  0.00     0.138 A 
ATOM      5  C6  <0> d           1.173   2.091   0.002  0.00  0.00     0.074 A 
ATOM      6  C7  <0> d           2.380   1.419  -0.013  0.00  0.00    -0.034 A 
ATOM      7 Cl1  <0> d           1.146   3.827   0.012  0.00  0.00    -0.081 Cl
ATOM      8  F1  <0> d          -1.196   2.039   0.019  0.00  0.00    -0.204 F 
ATOM      9  H5  <0> d           1.220  -1.760  -0.019  0.00  0.00     0.087 H 
ATOM     10  H6  <0> d          -0.926  -0.556   0.007  0.00  0.00     0.088 H 
ATOM     11  H7  <0> d           3.307   1.973  -0.019  0.00  0.00     0.089 H 
ENDROOT
BRANCH   1  12
ATOM     12  N1  <0> d           3.621  -0.652  -0.035  0.00  0.00    -0.394 N 
ATOM     13  H4  <0> d           3.636  -1.752  -0.041  0.00  0.00     0.159 HD
BRANCH  12  14
ATOM     14  C1  <0> d           4.879   0.098  -0.043  0.00  0.00    -0.021 C 
ATOM     15  H1  <0> d           5.725  -0.605  -0.055  0.00  0.00     0.056 H 
ATOM     16  H2  <0> d           4.937   0.727   0.857  0.00  0.00     0.056 H 
ATOM     17  H3  <0> d           4.920   0.736  -0.939  0.00  0.00     0.056 H 
ENDBRANCH  12  14
ENDBRANCH   1  12
TORSDOF 2
