REMARK  2 active torsions:
REMARK  status: ('A' for Active; 'I' for Inactive)
REMARK    1  A    between atoms: C1_1  and  N1_2 
REMARK    2  A    between atoms: C4_5  and  N3_9 
ROOT
ATOM      1  N1  <0> d          -3.565   2.968   0.036  0.00  0.00    -0.312 N 
ATOM      2  C2  <0> d          -3.593   1.606   0.028  0.00  0.00    -0.013 A 
ATOM      3  C3  <0> d          -2.425   0.920   0.019  0.00  0.00    -0.029 A 
ATOM      4  C4  <0> d          -1.212   1.637   0.017  0.00  0.00     0.107 A 
ATOM      5  N2  <0> d          -1.234   2.964   0.030  0.00  0.00    -0.182 NA
ATOM      6  C5  <0> d          -2.390   3.624   0.035  0.00  0.00     0.349 A 
ATOM      7  O1  <0> d          -2.385   4.844   0.042  0.00  0.00    -0.244 OA
ATOM      8  H4  <0> d          -4.536   1.079   0.030  0.00  0.00     0.111 H 
ATOM      9  H5  <0> d          -2.424  -0.160   0.012  0.00  0.00     0.090 H 
ENDROOT
BRANCH   1  10
ATOM     10  C1  <0> d          -4.821   3.722   0.047  0.00  0.00    -0.010 C 
ATOM     11  H1  <0> d          -5.128   3.904   1.077  0.00  0.00     0.057 H 
ATOM     12  H2  <0> d          -4.677   4.675  -0.462  0.00  0.00     0.057 H 
ATOM     13  H3  <0> d          -5.593   3.149  -0.467  0.00  0.00     0.057 H 
ENDBRANCH   1  10
BRANCH   4  14
ATOM     14  N3  <0> d          -0.011   0.966   0.007  0.00  0.00    -0.287 NA
ATOM     15  H6  <0> d           0.055   0.391   0.823  0.00  0.00     0.125 HD
ATOM     16  H7  <0> d           0.822   1.462   0.002  0.00  0.00     0.125 HD
ENDBRANCH   4  14
TORSDOF 2
