REMARK  4 active torsions:
REMARK  status: ('A' for Active; 'I' for Inactive)
REMARK    1  A    between atoms: C1_1  and  C2_2 
REMARK    2  A    between atoms: C3_3  and  C6_8 
REMARK    3  A    between atoms: C4_4  and  C5_7 
REMARK    4  A    between atoms: C6_8  and  O2_9 
ROOT
ATOM      1  C2  <0> d          -0.718   1.572   1.248  0.00  0.00     0.069 A 
ATOM      2  C3  <0> d          -0.129   1.855   2.501  0.00  0.00     0.023 A 
ATOM      3  C4  <0> d          -1.171   2.253   3.270  0.00  0.00     0.085 A 
ATOM      4  O1  <0> d          -2.261   2.193   2.493  0.00  0.00    -0.217 OA
ATOM      5  N1  <0> d          -1.990   1.819   1.375  0.00  0.00    -0.133 NA
ENDROOT
BRANCH   2   6
ATOM      6  C6  <0> d           1.322   1.742   2.892  0.00  0.00     0.045 C 
ATOM      7  H7  <0> d           1.396   1.507   3.953  0.00  0.00     0.081 H 
ATOM      8  H8  <0> d           1.794   0.949   2.311  0.00  0.00     0.081 H 
BRANCH   6   9
ATOM      9  O2  <0> d           1.984   2.981   2.631  0.00  0.00    -0.396 OA
ATOM     10  H9  <0> d           2.924   2.981   2.859  0.00  0.00     0.209 HD
ENDBRANCH   6   9
ENDBRANCH   2   6
BRANCH   1  11
ATOM     11  C1  <0> d          -0.013   1.086   0.008  0.00  0.00    -0.033 C 
ATOM     12  H1  <0> d           0.002  -0.004   0.002  0.00  0.00     0.035 H 
ATOM     13  H2  <0> d           1.010   1.463   0.000  0.00  0.00     0.035 H 
ATOM     14  H3  <0> d          -0.540   1.447  -0.875  0.00  0.00     0.035 H 
ENDBRANCH   1  11
BRANCH   3  15
ATOM     15  C5  <0> d          -1.115   2.679   4.715  0.00  0.00    -0.029 C 
ATOM     16  H4  <0> d          -0.946   3.754   4.771  0.00  0.00     0.036 H 
ATOM     17  H5  <0> d          -2.058   2.433   5.203  0.00  0.00     0.036 H 
ATOM     18  H6  <0> d          -0.300   2.157   5.216  0.00  0.00     0.036 H 
ENDBRANCH   3  15
TORSDOF 4
