REMARK  8 active torsions:
REMARK  status: ('A' for Active; 'I' for Inactive)
REMARK    1  A    between atoms: C1_1  and  C2_2 
REMARK    2  A    between atoms: C2_2  and  C3_3 
REMARK    3  A    between atoms: C2_2  and  C4_4 
REMARK    4  A    between atoms: C4_4  and  C5_5 
REMARK    5  A    between atoms: C5_5  and  C6_7 
REMARK    6  A    between atoms: C5_5  and  O1_10 
REMARK    7  A    between atoms: C6_7  and  C7_8 
REMARK    8  A    between atoms: C6_7  and  C8_9 
ROOT
ATOM      1  C5  <0> d           0.011   1.072   2.506  0.00  0.00     0.038 C 
ATOM      2  H1  <0> d           1.034   1.450   2.499  0.00  0.00     0.083 H 
ENDROOT
BRANCH   1   3
ATOM      3  C4  <0> d           0.032  -0.457   2.498  0.00  0.00    -0.038 C 
ATOM      4  H9  <0> d          -0.986  -0.835   2.595  0.00  0.00     0.037 H 
ATOM      5  H10 <0> d           0.462  -0.810   1.560  0.00  0.00     0.037 H 
BRANCH   3   6
ATOM      6  C2  <0> d           0.877  -0.963   3.669  0.00  0.00    -0.059 C 
ATOM      7  H5  <0> d           0.500  -0.538   4.599  0.00  0.00     0.039 H 
BRANCH   6   8
ATOM      8  C1  <0> d           0.797  -2.489   3.735  0.00  0.00    -0.073 C 
ATOM      9  H2  <0> d           1.174  -2.913   2.805  0.00  0.00     0.028 H 
ATOM     10  H3  <0> d           1.399  -2.849   4.569  0.00  0.00     0.028 H 
ATOM     11  H4  <0> d          -0.240  -2.792   3.878  0.00  0.00     0.028 H 
ENDBRANCH   6   8
BRANCH   6  12
ATOM     12  C3  <0> d           2.333  -0.537   3.468  0.00  0.00    -0.073 C 
ATOM     13  H6  <0> d           2.936  -0.897   4.302  0.00  0.00     0.028 H 
ATOM     14  H7  <0> d           2.711  -0.961   2.537  0.00  0.00     0.028 H 
ATOM     15  H8  <0> d           2.390   0.551   3.421  0.00  0.00     0.028 H 
ENDBRANCH   6  12
ENDBRANCH   3   6
ENDBRANCH   1   3
BRANCH   1  16
ATOM     16  C6  <0> d          -0.729   1.579   1.267  0.00  0.00    -0.036 C 
ATOM     17  H11 <0> d          -1.751   1.202   1.275  0.00  0.00     0.042 H 
BRANCH  16  18
ATOM     18  C7  <0> d          -0.013   1.086   0.008  0.00  0.00    -0.071 C 
ATOM     19  H12 <0> d           0.002  -0.004   0.002  0.00  0.00     0.028 H 
ATOM     20  H13 <0> d           1.010   1.463   0.000  0.00  0.00     0.028 H 
ATOM     21  H14 <0> d          -0.540   1.447  -0.875  0.00  0.00     0.028 H 
ENDBRANCH  16  18
BRANCH  16  22
ATOM     22  C8  <0> d          -0.750   3.109   1.275  0.00  0.00    -0.071 C 
ATOM     23  H15 <0> d          -1.277   3.470   0.392  0.00  0.00     0.028 H 
ATOM     24  H16 <0> d          -1.260   3.461   2.172  0.00  0.00     0.028 H 
ATOM     25  H17 <0> d           0.273   3.486   1.268  0.00  0.00     0.028 H 
ENDBRANCH  16  22
ENDBRANCH   1  16
BRANCH   1  26
ATOM     26  O1  <0> d          -0.658   1.533   3.682  0.00  0.00    -0.395 OA
ATOM     27  H18 <0> d          -1.575   1.235   3.755  0.00  0.00     0.210 HD
ENDBRANCH   1  26
TORSDOF 8
