REMARK  0 active torsions:
REMARK  status: ('A' for Active; 'I' for Inactive)
ROOT
ATOM      1  C1  <0> d           0.528   5.926   0.029  0.00  0.00    -0.081 A 
ATOM      2  C2  <0> d          -0.860   5.862   0.041  0.00  0.00    -0.081 A 
ATOM      3  C3  <0> d          -1.502   4.658   0.041  0.00  0.00    -0.053 A 
ATOM      4  C4  <0> d          -0.759   3.470   0.028  0.00  0.00     0.086 A 
ATOM      5  C5  <0> d           0.647   3.536   0.015  0.00  0.00     0.063 A 
ATOM      6  C6  <0> d           1.281   4.772   0.015  0.00  0.00    -0.055 A 
ATOM      7  N1  <0> d           1.093   2.232   0.004  0.00  0.00    -0.330 N 
ATOM      8  H1  <0> d           2.046   1.930  -0.007  0.00  0.00     0.168 HD
ATOM      9  C7  <0> d          -0.017   1.428   0.010  0.00  0.00     0.211 A 
ATOM     10  N2  <0> d          -1.099   2.168   0.018  0.00  0.00    -0.219 NA
ATOM     11  C8  <0> d           0.002  -0.004   0.002  0.00  0.00     0.139 C 
ATOM     12  N3  <0> d           0.018  -1.140  -0.004  0.00  0.00    -0.188 NA
ATOM     13  H2  <0> d           1.020   6.887   0.029  0.00  0.00     0.083 H 
ATOM     14  H3  <0> d          -1.436   6.775   0.051  0.00  0.00     0.083 H 
ATOM     15  H4  <0> d          -2.582   4.621   0.050  0.00  0.00     0.087 H 
ATOM     16  H5  <0> d           2.360   4.828   0.005  0.00  0.00     0.087 H 
ENDROOT
TORSDOF 0
