REMARK  1 active torsions:
REMARK  status: ('A' for Active; 'I' for Inactive)
REMARK    1  A    between atoms: C3_3  and  C4_4 
ROOT
ATOM      1  C1  <0> d          -1.636  -1.566   1.274  0.00  0.00    -0.052 A 
ATOM      2  C2  <0> d          -1.205  -2.303   0.003  0.00  0.00    -0.052 A 
ATOM      3  C3  <0> d          -1.293  -0.775   0.010  0.00  0.00     0.030 A 
ATOM      4  H1  <0> d          -0.925  -1.529   2.100  0.00  0.00     0.034 H 
ATOM      5  H2  <0> d          -2.686  -1.627   1.560  0.00  0.00     0.034 H 
ATOM      6  H3  <0> d          -1.972  -2.848  -0.546  0.00  0.00     0.034 H 
ATOM      7  H4  <0> d          -0.211  -2.750  -0.008  0.00  0.00     0.034 H 
ATOM      8  H5  <0> d          -2.117  -0.316  -0.535  0.00  0.00     0.056 H 
ENDROOT
BRANCH   3   9
ATOM      9  C4  <0> d           0.002  -0.004   0.002  0.00  0.00     0.177 C 
ATOM     10  O1  <0> d           1.056  -0.594  -0.011  0.00  0.00    -0.648 OA
ATOM     11  O2  <0> d          -0.016   1.338   0.009  0.00  0.00    -0.648 OA
ENDBRANCH   3   9
TORSDOF 1
