REMARK  5 active torsions:
REMARK  status: ('A' for Active; 'I' for Inactive)
REMARK    1  A    between atoms: C1_1  and  C2_2 
REMARK    2  A    between atoms: C2_2  and  C3_3 
REMARK    3  A    between atoms: C2_2  and  C4_4 
REMARK    4  A    between atoms: C4_4  and  C5_6 
REMARK    5  A    between atoms: C4_4  and  O1_9 
ROOT
ATOM      1  C5  <0> d          -0.013   1.086   0.008  0.00  0.00     0.039 C 
ATOM      2  C6  <0> d          -0.725   1.573  -1.185  0.00  0.00     0.061 C 
ATOM      3  N1  <0> d          -1.274   1.950  -2.105  0.00  0.00    -0.197 NA
ATOM      4  H9  <0> d           0.002  -0.004   0.002  0.00  0.00     0.058 H 
ATOM      5  H10 <0> d           1.010   1.463   0.000  0.00  0.00     0.058 H 
ENDROOT
BRANCH   1   6
ATOM      6  C4  <0> d          -0.729   1.579   1.267  0.00  0.00     0.050 C 
ATOM      7  H1  <0> d          -0.822   2.665   1.230  0.00  0.00     0.084 H 
BRANCH   6   8
ATOM      8  C2  <0> d           0.079   1.179   2.503  0.00  0.00    -0.035 C 
ATOM      9  H5  <0> d           0.172   0.093   2.540  0.00  0.00     0.042 H 
BRANCH   8  10
ATOM     10  C1  <0> d           1.471   1.808   2.429  0.00  0.00    -0.071 C 
ATOM     11  H2  <0> d           1.981   1.456   1.532  0.00  0.00     0.028 H 
ATOM     12  H3  <0> d           1.378   2.893   2.392  0.00  0.00     0.028 H 
ATOM     13  H4  <0> d           2.046   1.523   3.309  0.00  0.00     0.028 H 
ENDBRANCH   8  10
BRANCH   8  14
ATOM     14  C3  <0> d          -0.637   1.672   3.762  0.00  0.00    -0.071 C 
ATOM     15  H6  <0> d          -1.630   1.224   3.815  0.00  0.00     0.028 H 
ATOM     16  H7  <0> d          -0.062   1.387   4.643  0.00  0.00     0.028 H 
ATOM     17  H8  <0> d          -0.731   2.757   3.725  0.00  0.00     0.028 H 
ENDBRANCH   8  14
ENDBRANCH   6   8
BRANCH   6  18
ATOM     18  O1  <0> d          -2.030   0.991   1.336  0.00  0.00    -0.394 OA
ATOM     19  H11 <0> d          -2.023   0.025   1.372  0.00  0.00     0.210 HD
ENDBRANCH   6  18
ENDBRANCH   1   6
TORSDOF 5
