REMARK  2 active torsions:
REMARK  status: ('A' for Active; 'I' for Inactive)
REMARK    1  A    between atoms: C1_1  and  C2_2 
REMARK    2  A    between atoms: C7_8  and  N2_12 
ROOT
ATOM      1  C2  <0> d           0.002  -0.004   0.002  0.00  0.00     0.010 A 
ATOM      2  H1  <0> d          -1.015  -0.396   0.022  0.00  0.00     0.072 H 
ATOM      3  C3  <0> d           0.748  -0.520  -1.239  0.00  0.00    -0.021 A 
ATOM      4  C4  <0> d           1.916  -1.304  -0.682  0.00  0.00    -0.030 A 
ATOM      5  C5  <0> d           2.929  -1.995  -1.321  0.00  0.00    -0.072 A 
ATOM      6  C6  <0> d           3.899  -2.644  -0.584  0.00  0.00    -0.057 A 
ATOM      7  C7  <0> d           3.856  -2.601   0.805  0.00  0.00     0.027 A 
ATOM      8  C8  <0> d           2.842  -1.909   1.446  0.00  0.00    -0.032 A 
ATOM      9  C9  <0> d           1.860  -1.252   0.702  0.00  0.00     0.036 A 
ATOM     10  N1  <0> d           0.764  -0.508   1.148  0.00  0.00    -0.385 N 
ATOM     11  H5  <0> d           0.101  -1.170  -1.829  0.00  0.00     0.043 H 
ATOM     12  H6  <0> d           1.103   0.314  -1.844  0.00  0.00     0.043 H 
ATOM     13  H7  <0> d           2.961  -2.028  -2.400  0.00  0.00     0.084 H 
ATOM     14  H8  <0> d           4.689  -3.184  -1.084  0.00  0.00     0.086 H 
ATOM     15  H9  <0> d           2.811  -1.877   2.525  0.00  0.00     0.090 H 
ATOM     16  H10 <0> d           0.539  -0.348   2.078  0.00  0.00     0.160 HD
ENDROOT
BRANCH   1  17
ATOM     17  C1  <0> d          -0.019   1.526   0.010  0.00  0.00    -0.057 C 
ATOM     18  H2  <0> d           1.004   1.903   0.003  0.00  0.00     0.030 H 
ATOM     19  H3  <0> d          -0.546   1.887  -0.873  0.00  0.00     0.030 H 
ATOM     20  H4  <0> d          -0.529   1.877   0.907  0.00  0.00     0.030 H 
ENDBRANCH   1  17
BRANCH   7  21
ATOM     21  N2  <0> d           4.835  -3.257   1.555  0.00  0.00    -0.399 N 
ATOM     22  H11 <0> d           5.545  -3.742   1.106  0.00  0.00     0.156 HD
ATOM     23  H12 <0> d           4.805  -3.227   2.524  0.00  0.00     0.156 HD
ENDBRANCH   7  21
TORSDOF 2
