REMARK  4 active torsions:
REMARK  status: ('A' for Active; 'I' for Inactive)
REMARK    1  A    between atoms: C1_1  and  C2_2 
REMARK    2  A    between atoms: C2_2  and  C3_4 
REMARK    3  A    between atoms: C2_2  and  N1_12 
REMARK    4  A    between atoms: C3_4  and  C4_6 
ROOT
ATOM      1  C4  <0> d           0.041  -0.556   2.522  0.00  0.00     0.012 A 
ATOM      2  C5  <0> d          -1.294  -0.150   2.626  0.00  0.00    -0.069 A 
ATOM      3  C6  <0> d          -1.933  -0.203   3.846  0.00  0.00    -0.082 A 
ATOM      4  C7  <0> d          -1.259  -0.657   4.966  0.00  0.00    -0.083 A 
ATOM      5  C8  <0> d           0.061  -1.061   4.871  0.00  0.00    -0.082 A 
ATOM      6  C9  <0> d           0.714  -1.019   3.657  0.00  0.00    -0.069 A 
ATOM      7  H5  <0> d          -1.821   0.205   1.752  0.00  0.00     0.085 H 
ATOM      8  H6  <0> d          -2.963   0.111   3.928  0.00  0.00     0.083 H 
ATOM      9  H7  <0> d          -1.766  -0.697   5.919  0.00  0.00     0.083 H 
ATOM     10  H8  <0> d           0.581  -1.414   5.750  0.00  0.00     0.083 H 
ATOM     11  H9  <0> d           1.743  -1.339   3.584  0.00  0.00     0.085 H 
ENDROOT
BRANCH   1  12
ATOM     12  C3  <0> d           0.731  -0.503   1.223  0.00  0.00     0.192 C 
ATOM     13  O1  <0> d           1.886  -0.861   1.135  0.00  0.00    -0.290 OA
BRANCH  12  14
ATOM     14  C2  <0> d           0.002  -0.004   0.002  0.00  0.00     0.188 C 
ATOM     15  H1  <0> d          -1.020  -0.381   0.010  0.00  0.00     0.100 H 
BRANCH  14  16
ATOM     16  C1  <0> d          -0.019   1.526   0.010  0.00  0.00    -0.041 C 
ATOM     17  H2  <0> d           1.004   1.903   0.003  0.00  0.00     0.030 H 
ATOM     18  H3  <0> d          -0.546   1.887  -0.873  0.00  0.00     0.030 H 
ATOM     19  H4  <0> d          -0.529   1.877   0.907  0.00  0.00     0.030 H 
ENDBRANCH  14  16
BRANCH  14  20
ATOM     20  N1  <0> d           0.690  -0.478  -1.207  0.00  0.00     0.090 N 
ATOM     21  H10 <0> d           0.773  -1.483  -1.204  0.00  0.00     0.313 HD
ATOM     22  H11 <0> d           0.220  -0.156  -2.039  0.00  0.00     0.313 HD
ENDBRANCH  14  20
ENDBRANCH  12  14
ENDBRANCH   1  12
TORSDOF 4
