REMARK  5 active torsions:
REMARK  status: ('A' for Active; 'I' for Inactive)
REMARK    1  A    between atoms: C1_1  and  C2_2 
REMARK    2  A    between atoms: C4_5  and  C8_10 
REMARK    3  A    between atoms: C5_7  and  C6_8 
REMARK    4  A    between atoms: C5_7  and  C7_9 
REMARK    5  A    between atoms: C8_10  and  C9_12 
ROOT
ATOM      1  C2  <0> d          -2.215   1.596   0.299  0.00  0.00    -0.050 C 
ATOM      2  H1  <0> d          -2.709   0.624   0.304  0.00  0.00     0.040 H 
ATOM      3  C3  <0> d          -1.331   1.831  -0.937  0.00  0.00    -0.051 C 
ATOM      4  C4  <0> d          -0.182   1.193  -0.140  0.00  0.00     0.011 C 
ATOM      5  H2  <0> d          -0.098   0.228  -0.389  0.00  0.00     0.052 H 
ATOM      6  C5  <0> d          -0.921   1.636   1.134  0.00  0.00    -0.034 C 
ATOM      7  H6  <0> d          -1.172   2.885  -1.166  0.00  0.00     0.034 H 
ATOM      8  H7  <0> d          -1.633   1.250  -1.808  0.00  0.00     0.034 H 
ENDROOT
BRANCH   6   9
ATOM      9  C6  <0> d          -0.882   0.599   2.258  0.00  0.00    -0.068 C 
ATOM     10  H8  <0> d           0.154   0.402   2.535  0.00  0.00     0.028 H 
ATOM     11  H9  <0> d          -1.423   0.981   3.124  0.00  0.00     0.028 H 
ATOM     12  H10 <0> d          -1.348  -0.325   1.916  0.00  0.00     0.028 H 
ENDBRANCH   6   9
BRANCH   6  13
ATOM     13  C7  <0> d          -0.540   3.041   1.606  0.00  0.00    -0.068 C 
ATOM     14  H11 <0> d          -0.679   3.749   0.789  0.00  0.00     0.028 H 
ATOM     15  H12 <0> d          -1.173   3.326   2.446  0.00  0.00     0.028 H 
ATOM     16  H13 <0> d           0.504   3.048   1.919  0.00  0.00     0.028 H 
ENDBRANCH   6  13
BRANCH   1  17
ATOM     17  C1  <0> d          -3.173   2.751   0.597  0.00  0.00    -0.072 C 
ATOM     18  H3  <0> d          -4.036   2.687  -0.065  0.00  0.00     0.028 H 
ATOM     19  H4  <0> d          -3.504   2.691   1.633  0.00  0.00     0.028 H 
ATOM     20  H5  <0> d          -2.660   3.699   0.434  0.00  0.00     0.028 H 
ENDBRANCH   1  17
BRANCH   4  21
ATOM     21  C8  <0> d           1.145   1.880  -0.338  0.00  0.00     0.128 C 
ATOM     22  O1  <0> d           1.180   3.030  -0.705  0.00  0.00    -0.298 OA
BRANCH  21  23
ATOM     23  C9  <0> d           2.427   1.132  -0.078  0.00  0.00    -0.021 C 
ATOM     24  H14 <0> d           2.476   0.335  -0.679  0.00  0.00     0.037 H 
ATOM     25  H15 <0> d           3.276   1.788  -0.274  0.00  0.00     0.037 H 
ATOM     26  H16 <0> d           2.453   0.805   0.962  0.00  0.00     0.037 H 
ENDBRANCH  21  23
ENDBRANCH   4  21
TORSDOF 5
