REMARK  2 active torsions:
REMARK  status: ('A' for Active; 'I' for Inactive)
REMARK    1  A    between atoms: C1_1  and  C2_2 
REMARK    2  A    between atoms: C3_3  and  C4_4 
ROOT
ATOM      1  C4  <0> d           2.290   1.474  -0.012  0.00  0.00     0.056 A 
ATOM      2  C5  <0> d           2.383   0.081  -0.020  0.00  0.00    -0.055 A 
ATOM      3  C6  <0> d           1.220  -0.669  -0.013  0.00  0.00    -0.079 A 
ATOM      4  C7  <0> d           0.002  -0.004   0.002  0.00  0.00    -0.066 A 
ATOM      5  C8  <0> d          -0.017   1.378   0.010  0.00  0.00     0.003 A 
ATOM      6  N1  <0> d           1.104   2.071   0.003  0.00  0.00    -0.261 NA
ATOM      7  H6  <0> d           3.348  -0.404  -0.033  0.00  0.00     0.087 H 
ATOM      8  H7  <0> d           1.260  -1.748  -0.020  0.00  0.00     0.083 H 
ATOM      9  H8  <0> d          -0.923  -0.562   0.008  0.00  0.00     0.085 H 
ATOM     10  H9  <0> d          -0.963   1.898   0.017  0.00  0.00     0.114 H 
ENDROOT
BRANCH   1  11
ATOM     11  C3  <0> d           3.522   2.290  -0.020  0.00  0.00    -0.059 C 
ATOM     12  C2  <0> d           3.440   3.614  -0.012  0.00  0.00    -0.104 C 
ATOM     13  H4  <0> d           2.473   4.095   0.000  0.00  0.00     0.076 H 
ATOM     14  H5  <0> d           4.489   1.809  -0.032  0.00  0.00     0.086 H 
BRANCH  12  15
ATOM     15  C1  <0> d           4.696   4.446  -0.020  0.00  0.00    -0.060 C 
ATOM     16  H1  <0> d           5.292   4.214   0.863  0.00  0.00     0.032 H 
ATOM     17  H2  <0> d           5.274   4.224  -0.917  0.00  0.00     0.032 H 
ATOM     18  H3  <0> d           4.431   5.504  -0.012  0.00  0.00     0.032 H 
ENDBRANCH  12  15
ENDBRANCH   1  11
TORSDOF 2
