REMARK  0 active torsions:
REMARK  status: ('A' for Active; 'I' for Inactive)
ROOT
ATOM      1  C1  <0> d           1.325   1.795  -0.001  0.00  0.00    -0.037 C 
ATOM      2  C2  <0> d          -0.013   1.076   0.008  0.00  0.00    -0.106 C 
ATOM      3  C3  <0> d          -1.172   1.659   0.017  0.00  0.00    -0.105 C 
ATOM      4  C4  <0> d          -1.386   3.160   0.118  0.00  0.00    -0.030 C 
ATOM      5  C5  <0> d          -0.077   3.728   0.580  0.00  0.00     0.027 C 
ATOM      6  H1  <0> d           0.169   3.319   1.560  0.00  0.00     0.074 H 
ATOM      7  C6  <0> d           1.022   3.215  -0.398  0.00  0.00     0.046 C 
ATOM      8  H2  <0> d           0.651   3.261  -1.422  0.00  0.00     0.058 H 
ATOM      9  C7  <0> d           1.713   4.456  -0.027  0.00  0.00     0.224 C 
ATOM     10  O1  <0> d           2.859   4.849  -0.082  0.00  0.00    -0.273 OA
ATOM     11  N1  <0> d           0.536   4.995   0.412  0.00  0.00    -0.355 N 
ATOM     12  H3  <0> d           1.773   1.769   0.993  0.00  0.00     0.040 H 
ATOM     13  H4  <0> d           1.995   1.335  -0.728  0.00  0.00     0.040 H 
ATOM     14  H5  <0> d           0.002  -0.004   0.002  0.00  0.00     0.076 H 
ATOM     15  H6  <0> d          -2.048   1.031  -0.048  0.00  0.00     0.076 H 
ATOM     16  H7  <0> d          -2.170   3.383   0.843  0.00  0.00     0.042 H 
ATOM     17  H8  <0> d          -1.650   3.568  -0.858  0.00  0.00     0.042 H 
ATOM     18  H9  <0> d           0.234   5.904   0.560  0.00  0.00     0.162 HD
ENDROOT
TORSDOF 0
