REMARK  2 active torsions:
REMARK  status: ('A' for Active; 'I' for Inactive)
REMARK    1  A    between atoms: C1_1  and  C2_2 
REMARK       I    between atoms: C2_2  and  N1_4 
REMARK    2  A    between atoms: N1_4  and  C3_5 
ROOT
ATOM      1  C3  <0> d          -0.022   1.781   0.012  0.00  0.00     0.076 A 
ATOM      2  C4  <0> d           1.307   2.080   0.001  0.00  0.00    -0.050 A 
ATOM      3  C5  <0> d           2.223   1.045  -0.014  0.00  0.00    -0.074 A 
ATOM      4  C6  <0> d           1.772  -0.233  -0.016  0.00  0.00    -0.043 A 
ATOM      5  S1  <0> d           0.002  -0.004   0.002  0.00  0.00    -0.084 SA
ATOM      6  H5  <0> d           1.639   3.108   0.003  0.00  0.00     0.087 H 
ATOM      7  H6  <0> d           3.283   1.251  -0.023  0.00  0.00     0.084 H 
ATOM      8  H7  <0> d           2.338  -1.153  -0.027  0.00  0.00     0.095 H 
ENDROOT
BRANCH   1   9
ATOM      9  N1  <0> d          -1.119   2.646   0.022  0.00  0.00    -0.322 N 
ATOM     10  C2  <0> d          -2.371   2.147   0.026  0.00  0.00     0.218 C 
ATOM     11  O1  <0> d          -2.546   0.947   0.021  0.00  0.00    -0.274 OA
ATOM     12  H4  <0> d          -0.980   3.606   0.026  0.00  0.00     0.169 HD
BRANCH  10  13
ATOM     13  C1  <0> d          -3.554   3.081   0.037  0.00  0.00    -0.003 C 
ATOM     14  H1  <0> d          -3.203   4.112   0.041  0.00  0.00     0.040 H 
ATOM     15  H2  <0> d          -4.162   2.907  -0.851  0.00  0.00     0.040 H 
ATOM     16  H3  <0> d          -4.153   2.898   0.929  0.00  0.00     0.040 H 
ENDBRANCH  10  13
ENDBRANCH   1   9
TORSDOF 2
