REMARK  0 active torsions:
REMARK  status: ('A' for Active; 'I' for Inactive)
ROOT
ATOM      1  C1  <0> d          -0.781   1.608  -1.226  0.00  0.00    -0.048 C 
ATOM      2  C2  <0> d          -1.585   2.809  -0.657  0.00  0.00    -0.036 C 
ATOM      3  C3  <0> d          -1.931   2.302   0.763  0.00  0.00     0.091 C 
ATOM      4  H1  <0> d          -2.817   1.667   0.754  0.00  0.00     0.087 H 
ATOM      5  C4  <0> d          -2.108   3.476   1.693  0.00  0.00     0.241 C 
ATOM      6  O1  <0> d          -2.571   4.517   1.277  0.00  0.00    -0.271 OA
ATOM      7  N1  <0> d          -1.750   3.364   2.987  0.00  0.00    -0.351 N 
ATOM      8  C5  <0> d          -1.220   2.113   3.530  0.00  0.00     0.069 C 
ATOM      9  C6  <0> d          -0.372   1.420   2.489  0.00  0.00     0.238 C 
ATOM     10  O2  <0> d           0.590   0.754   2.806  0.00  0.00    -0.272 OA
ATOM     11  N2  <0> d          -0.718   1.568   1.196  0.00  0.00    -0.337 N 
ATOM     12  C7  <0> d          -0.013   1.086   0.008  0.00  0.00    -0.001 C 
ATOM     13  H2  <0> d          -0.088   1.940  -2.000  0.00  0.00     0.035 H 
ATOM     14  H3  <0> d          -1.454   0.843  -1.613  0.00  0.00     0.035 H 
ATOM     15  H4  <0> d          -0.968   3.706  -0.612  0.00  0.00     0.036 H 
ATOM     16  H5  <0> d          -2.488   2.987  -1.240  0.00  0.00     0.036 H 
ATOM     17  H6  <0> d          -1.845   4.132   3.572  0.00  0.00     0.163 HD
ATOM     18  H7  <0> d          -0.612   2.329   4.409  0.00  0.00     0.078 H 
ATOM     19  H8  <0> d          -2.048   1.463   3.814  0.00  0.00     0.078 H 
ATOM     20  H9  <0> d           0.002  -0.004   0.002  0.00  0.00     0.064 H 
ATOM     21  H10 <0> d           1.007   1.471   0.000  0.00  0.00     0.064 H 
ENDROOT
TORSDOF 0
