REMARK  0 active torsions:
REMARK  status: ('A' for Active; 'I' for Inactive)
ROOT
ATOM      1  C1  <0> d           1.306  -0.370  -0.012  0.00  0.00    -0.022 A 
ATOM      2  C2  <0> d           0.002  -0.004   0.002  0.00  0.00     0.046 A 
ATOM      3  O1  <0> d          -0.016   1.336   0.009  0.00  0.00    -0.225 OA
ATOM      4  N1  <0> d           1.102   1.797   0.001  0.00  0.00    -0.121 NA
ATOM      5  C3  <0> d           2.006   0.859  -0.013  0.00  0.00     0.132 A 
ATOM      6 Br1  <0> d           3.882   1.094  -0.030  0.00  0.00    -0.027 Br
ATOM      7  H1  <0> d           1.716  -1.369  -0.021  0.00  0.00     0.091 H 
ATOM      8  H2  <0> d          -0.854  -0.662   0.006  0.00  0.00     0.126 H 
ENDROOT
TORSDOF 0
