REMARK  2 active torsions:
REMARK  status: ('A' for Active; 'I' for Inactive)
REMARK    1  A    between atoms: C1_1  and  C2_2 
REMARK    2  A    between atoms: C3_3  and  C5_8 
ROOT
ATOM      1  C2  <0> d           1.303  -0.399  -0.013  0.00  0.00     0.036 A 
ATOM      2  C3  <0> d           0.002  -0.004   0.002  0.00  0.00     0.090 A 
ATOM      3  N1  <0> d          -0.016   1.345   0.009  0.00  0.00    -0.241 NA
ATOM      4  C4  <0> d           1.209   1.789   0.000  0.00  0.00     0.065 A 
ATOM      5  N2  <0> d           2.058   0.738  -0.014  0.00  0.00    -0.352 N 
ATOM      6  H1  <0> d           3.156   0.669  -0.024  0.00  0.00     0.166 HD
ATOM      7  H5  <0> d           1.498   2.830   0.003  0.00  0.00     0.143 H 
ENDROOT
BRANCH   2   8
ATOM      8  C5  <0> d          -1.183  -0.895   0.009  0.00  0.00    -0.003 A 
ATOM      9  C9  <0> d          -2.341  -0.545   0.710  0.00  0.00    -0.054 A 
ATOM     10  C8  <0> d          -3.420  -1.403   0.690  0.00  0.00     0.003 A 
ATOM     11  H9  <0> d          -2.389   0.384   1.259  0.00  0.00     0.087 H 
ATOM     12  N3  <0> d          -3.370  -2.539   0.022  0.00  0.00    -0.273 NA
ATOM     13  H8  <0> d          -4.319  -1.141   1.229  0.00  0.00     0.114 H 
ATOM     14  C7  <0> d          -2.297  -2.907  -0.653  0.00  0.00     0.003 A 
ATOM     15  C6  <0> d          -1.175  -2.106  -0.690  0.00  0.00    -0.054 A 
ATOM     16  H7  <0> d          -2.299  -3.846  -1.186  0.00  0.00     0.114 H 
ATOM     17  H6  <0> d          -0.302  -2.411  -1.248  0.00  0.00     0.087 H 
ENDBRANCH   2   8
BRANCH   1  18
ATOM     18  C1  <0> d           1.812  -1.817  -0.025  0.00  0.00    -0.035 C 
ATOM     19  H2  <0> d           0.960  -2.513  -0.020  0.00  0.00     0.035 H 
ATOM     20  H3  <0> d           2.432  -1.992   0.867  0.00  0.00     0.035 H 
ATOM     21  H4  <0> d           2.416  -1.983  -0.929  0.00  0.00     0.035 H 
ENDBRANCH   1  18
TORSDOF 2
