REMARK  4 active torsions:
REMARK  status: ('A' for Active; 'I' for Inactive)
REMARK    1  A    between atoms: C1_1  and  C2_2 
REMARK    2  A    between atoms: C3_3  and  C4_4 
REMARK    3  A    between atoms: C4_4  and  O1_5 
REMARK    4  A    between atoms: O1_5  and  C5_6 
ROOT
ATOM      1  C5  <0> d          -0.050   3.842   0.023  0.00  0.00     0.070 A 
ATOM      2  C6  <0> d           1.160   3.163   0.007  0.00  0.00    -0.051 A 
ATOM      3  C7  <0> d           1.176   1.782   0.000  0.00  0.00    -0.080 A 
ATOM      4  C8  <0> d          -0.013   1.076   0.008  0.00  0.00    -0.083 A 
ATOM      5  C9  <0> d          -1.220   1.750   0.017  0.00  0.00    -0.080 A 
ATOM      6  C10 <0> d          -1.241   3.131   0.031  0.00  0.00    -0.051 A 
ATOM      7  H6  <0> d           2.089   3.715   0.001  0.00  0.00     0.087 H 
ATOM      8  H7  <0> d           2.118   1.254  -0.011  0.00  0.00     0.083 H 
ATOM      9  H8  <0> d           0.002  -0.004   0.002  0.00  0.00     0.083 H 
ATOM     10  H9  <0> d          -2.147   1.196   0.018  0.00  0.00     0.083 H 
ATOM     11  H10 <0> d          -2.185   3.657   0.042  0.00  0.00     0.087 H 
ENDROOT
BRANCH   1  12
ATOM     12  O1  <0> d          -0.069   5.201   0.029  0.00  0.00    -0.340 OA
BRANCH  12  13
ATOM     13  C4  <0> d          -1.350   5.832   0.045  0.00  0.00     0.080 C 
ATOM     14  H4  <0> d          -1.912   5.536  -0.841  0.00  0.00     0.094 H 
ATOM     15  H5  <0> d          -1.895   5.527   0.939  0.00  0.00     0.094 H 
BRANCH  13  16
ATOM     16  C3  <0> d          -1.177   7.294   0.050  0.00  0.00    -0.080 C 
ATOM     17  C2  <0> d          -1.039   8.460   0.054  0.00  0.00    -0.109 C 
BRANCH  17  18
ATOM     18  C1  <0> d          -0.866   9.922   0.059  0.00  0.00    -0.021 C 
ATOM     19  H1  <0> d          -1.844  10.403   0.071  0.00  0.00     0.044 H 
ATOM     20  H2  <0> d          -0.304  10.218   0.945  0.00  0.00     0.044 H 
ATOM     21  H3  <0> d          -0.322  10.226  -0.835  0.00  0.00     0.044 H 
ENDBRANCH  17  18
ENDBRANCH  13  16
ENDBRANCH  12  13
ENDBRANCH   1  12
TORSDOF 4
