REMARK  2 active torsions:
REMARK  status: ('A' for Active; 'I' for Inactive)
REMARK    1  A    between atoms: C1_1  and  C2_2 
REMARK    2  A    between atoms: C5_5  and  C6_7 
ROOT
ATOM      1  C2  <0> d           1.295  -0.376  -0.012  0.00  0.00     0.050 A 
ATOM      2  C3  <0> d           0.002  -0.004   0.002  0.00  0.00    -0.052 A 
ATOM      3  C4  <0> d          -0.017   1.410   0.010  0.00  0.00    -0.043 A 
ATOM      4  C5  <0> d           1.265   1.817  -0.000  0.00  0.00     0.159 A 
ATOM      5  O1  <0> d           2.055   0.731  -0.014  0.00  0.00    -0.311 OA
ATOM      6  H4  <0> d          -0.856  -0.659   0.006  0.00  0.00     0.087 H 
ATOM      7  H5  <0> d          -0.893   2.041   0.018  0.00  0.00     0.087 H 
ENDROOT
BRANCH   1   8
ATOM      8  C1  <0> d           1.803  -1.795  -0.024  0.00  0.00    -0.031 C 
ATOM      9  H1  <0> d           1.916  -2.132  -1.055  0.00  0.00     0.036 H 
ATOM     10  H2  <0> d           2.769  -1.839   0.480  0.00  0.00     0.036 H 
ATOM     11  H3  <0> d           1.093  -2.440   0.493  0.00  0.00     0.036 H 
ENDBRANCH   1   8
BRANCH   4  12
ATOM     12  C6  <0> d           1.735   3.249   0.003  0.00  0.00     0.439 C 
ATOM     13  F1  <0> d           1.893   3.684   1.323  0.00  0.00    -0.164 F 
ATOM     14  F2  <0> d           2.959   3.339  -0.667  0.00  0.00    -0.164 F 
ATOM     15  F3  <0> d           0.789   4.052  -0.642  0.00  0.00    -0.164 F 
ENDBRANCH   4  12
TORSDOF 2
