REMARK  4 active torsions:
REMARK  status: ('A' for Active; 'I' for Inactive)
REMARK    1  A    between atoms: C1_1  and  O1_2 
REMARK    2  A    between atoms: O1_2  and  C2_3 
REMARK    3  A    between atoms: C7_8  and  C8_9 
REMARK    4  A    between atoms: C8_9  and  O2_10 
ROOT
ATOM      1  C2  <0> d           2.400   0.029  -0.020  0.00  0.00     0.079 A 
ATOM      2  C3  <0> d           1.207  -0.680  -0.013  0.00  0.00    -0.050 A 
ATOM      3  C4  <0> d           0.002  -0.004   0.002  0.00  0.00    -0.077 A 
ATOM      4  C5  <0> d          -0.017   1.378   0.010  0.00  0.00    -0.045 A 
ATOM      5  C6  <0> d           1.172   2.089   0.002  0.00  0.00     0.127 A 
ATOM      6  C7  <0> d           2.381   1.415  -0.013  0.00  0.00     0.037 A 
ATOM      7  F1  <0> d           1.151   3.439   0.009  0.00  0.00    -0.205 F 
ATOM      8  H4  <0> d           1.220  -1.760  -0.019  0.00  0.00     0.087 H 
ATOM      9  H5  <0> d          -0.926  -0.556   0.008  0.00  0.00     0.083 H 
ATOM     10  H6  <0> d          -0.960   1.905   0.017  0.00  0.00     0.088 H 
ENDROOT
BRANCH   1  11
ATOM     11  O1  <0> d           3.585  -0.635  -0.034  0.00  0.00    -0.355 OA
BRANCH  11  12
ATOM     12  C1  <0> d           3.529  -2.063  -0.040  0.00  0.00     0.010 C 
ATOM     13  H1  <0> d           3.010  -2.410   0.853  0.00  0.00     0.066 H 
ATOM     14  H2  <0> d           2.993  -2.402  -0.927  0.00  0.00     0.066 H 
ATOM     15  H3  <0> d           4.542  -2.467  -0.051  0.00  0.00     0.066 H 
ENDBRANCH  11  12
ENDBRANCH   1  11
BRANCH   6  16
ATOM     16  C8  <0> d           3.675   2.187  -0.022  0.00  0.00     0.046 C 
ATOM     17  H7  <0> d           3.536   3.135   0.498  0.00  0.00     0.081 H 
ATOM     18  H8  <0> d           4.448   1.607   0.482  0.00  0.00     0.081 H 
BRANCH  16  19
ATOM     19  O2  <0> d           4.071   2.438  -1.372  0.00  0.00    -0.396 OA
ATOM     20  H9  <0> d           4.898   2.933  -1.454  0.00  0.00     0.209 HD
ENDBRANCH  16  19
ENDBRANCH   6  16
TORSDOF 4
