REMARK  1 active torsions:
REMARK  status: ('A' for Active; 'I' for Inactive)
REMARK    1  A    between atoms: C5_6  and  C6_7 
REMARK       I    between atoms: C6_7  and  N1_9 
ROOT
ATOM      1  C1  <0> d          -1.423   2.809   1.280  0.00  0.00    -0.034 C 
ATOM      2  C2  <0> d          -2.793   3.491   1.321  0.00  0.00     0.020 C 
ATOM      3  O1  <0> d          -3.820   2.497   1.287  0.00  0.00    -0.391 OA
ATOM      4  C3  <0> d          -3.811   1.689   0.109  0.00  0.00     0.020 C 
ATOM      5  C4  <0> d          -2.482   0.935   0.019  0.00  0.00    -0.034 C 
ATOM      6  C5  <0> d          -1.330   1.944   0.019  0.00  0.00     0.027 C 
ATOM      7  H1  <0> d          -1.302   2.181   2.162  0.00  0.00     0.037 H 
ATOM      8  H2  <0> d          -0.640   3.567   1.261  0.00  0.00     0.037 H 
ATOM      9  H3  <0> d          -2.897   4.150   0.459  0.00  0.00     0.074 H 
ATOM     10  H4  <0> d          -2.882   4.074   2.238  0.00  0.00     0.074 H 
ATOM     11  H5  <0> d          -3.928   2.325  -0.769  0.00  0.00     0.074 H 
ATOM     12  H6  <0> d          -4.632   0.974   0.152  0.00  0.00     0.074 H 
ATOM     13  H7  <0> d          -2.455   0.352  -0.902  0.00  0.00     0.037 H 
ATOM     14  H8  <0> d          -2.382   0.268   0.876  0.00  0.00     0.037 H 
ATOM     15  H9  <0> d          -1.400   2.578  -0.865  0.00  0.00     0.054 H 
ENDROOT
BRANCH   6  16
ATOM     16  C6  <0> d          -0.014   1.209   0.009  0.00  0.00     0.219 C 
ATOM     17  O2  <0> d           0.002  -0.004   0.002  0.00  0.00    -0.273 OA
ATOM     18  N1  <0> d           1.143   1.898   0.001  0.00  0.00    -0.370 N 
ATOM     19  H10 <0> d           1.990   1.425  -0.009  0.00  0.00     0.159 HD
ATOM     20  H11 <0> d           1.130   2.868   0.007  0.00  0.00     0.159 HD
ENDBRANCH   6  16
TORSDOF 1
