REMARK  2 active torsions:
REMARK  status: ('A' for Active; 'I' for Inactive)
REMARK    1  A    between atoms: C9_9  and  N1_12 
REMARK    2  A    between atoms: C10_10  and  O1_11 
ROOT
ATOM      1  C1  <0> d          -0.013   1.076   0.008  0.00  0.00    -0.082 A 
ATOM      2  C2  <0> d          -1.235   1.746   0.018  0.00  0.00    -0.082 A 
ATOM      3  C3  <0> d          -1.288   3.106   0.031  0.00  0.00    -0.070 A 
ATOM      4  C4  <0> d          -0.096   3.848   0.024  0.00  0.00     0.009 A 
ATOM      5  C5  <0> d           1.148   3.168   0.008  0.00  0.00    -0.023 A 
ATOM      6  C6  <0> d           1.163   1.762   0.000  0.00  0.00    -0.072 A 
ATOM      7  C7  <0> d           2.343   3.907   0.000  0.00  0.00    -0.070 A 
ATOM      8  C8  <0> d           2.302   5.267   0.007  0.00  0.00    -0.054 A 
ATOM      9  C9  <0> d           1.083   5.949   0.023  0.00  0.00     0.060 A 
ATOM     10  C10 <0> d          -0.113   5.256   0.031  0.00  0.00     0.102 A 
ATOM     11  H1  <0> d           0.002  -0.004   0.002  0.00  0.00     0.083 H 
ATOM     12  H2  <0> d          -2.153   1.177   0.019  0.00  0.00     0.083 H 
ATOM     13  H3  <0> d          -2.243   3.611   0.043  0.00  0.00     0.085 H 
ATOM     14  H4  <0> d           2.102   1.229  -0.011  0.00  0.00     0.084 H 
ATOM     15  H5  <0> d           3.294   3.395  -0.011  0.00  0.00     0.084 H 
ATOM     16  H6  <0> d           3.225   5.827   0.000  0.00  0.00     0.087 H 
ENDROOT
BRANCH   9  17
ATOM     17  N1  <0> d           1.072   7.350   0.030  0.00  0.00    -0.397 N 
ATOM     18  H8  <0> d           0.228   7.828   0.040  0.00  0.00     0.156 HD
ATOM     19  H9  <0> d           1.908   7.841   0.024  0.00  0.00     0.156 HD
ENDBRANCH   9  17
BRANCH  10  20
ATOM     20  O1  <0> d          -1.296   5.927   0.045  0.00  0.00    -0.357 OA
ATOM     21  H7  <0> d          -1.629   6.117   0.933  0.00  0.00     0.217 HD
ENDBRANCH  10  20
TORSDOF 2
