REMARK  3 active torsions:
REMARK  status: ('A' for Active; 'I' for Inactive)
REMARK    1  A    between atoms: C4_4  and  C6_6 
REMARK    2  A    between atoms: C6_6  and  C7_8 
REMARK    3  A    between atoms: C6_6  and  O3_11 
ROOT
ATOM      1  C1  <0> d          -0.019   1.538   0.011  0.00  0.00    -0.065 C 
ATOM      2  C2  <0> d           1.477   1.939  -0.002  0.00  0.00    -0.065 C 
ATOM      3  C3  <0> d           2.107   0.881  -0.942  0.00  0.00    -0.059 C 
ATOM      4  C4  <0> d           1.353  -0.422  -0.604  0.00  0.00    -0.019 C 
ATOM      5  C5  <0> d           0.002  -0.004   0.002  0.00  0.00    -0.059 C 
ATOM      6  H2  <0> d          -0.505   1.908   0.913  0.00  0.00     0.033 H 
ATOM      7  H3  <0> d          -0.522   1.918  -0.878  0.00  0.00     0.033 H 
ATOM      8  H4  <0> d           1.606   2.942  -0.408  0.00  0.00     0.033 H 
ATOM      9  H5  <0> d           1.904   1.868   0.999  0.00  0.00     0.033 H 
ATOM     10  H6  <0> d           1.946   1.155  -1.985  0.00  0.00     0.033 H 
ATOM     11  H7  <0> d           3.171   0.771  -0.735  0.00  0.00     0.033 H 
ATOM     12  H8  <0> d           1.923  -1.005   0.120  0.00  0.00     0.044 H 
ATOM     13  H9  <0> d          -0.084  -0.384   1.020  0.00  0.00     0.033 H 
ATOM     14  H10 <0> d          -0.815  -0.385  -0.610  0.00  0.00     0.033 H 
ENDROOT
BRANCH   4  15
ATOM     15  C6  <0> d           1.127  -1.242  -1.876  0.00  0.00     0.122 C 
ATOM     16  H1  <0> d           2.088  -1.490  -2.324  0.00  0.00     0.100 H 
BRANCH  15  17
ATOM     17  C7  <0> d           0.391  -2.511  -1.531  0.00  0.00     0.203 C 
ATOM     18  O1  <0> d          -0.735  -2.698  -1.960  0.00  0.00    -0.646 OA
ATOM     19  O2  <0> d           0.921  -3.350  -0.823  0.00  0.00    -0.646 OA
ENDBRANCH  15  17
BRANCH  15  20
ATOM     20  O3  <0> d           0.351  -0.478  -2.802  0.00  0.00    -0.384 OA
ATOM     21  H11 <0> d          -0.519  -0.222  -2.469  0.00  0.00     0.210 HD
ENDBRANCH  15  20
ENDBRANCH   4  15
TORSDOF 3
