REMARK  7 active torsions:
REMARK  status: ('A' for Active; 'I' for Inactive)
REMARK    1  A    between atoms: C1_1  and  C2_2 
REMARK    2  A    between atoms: C2_2  and  C3_3 
REMARK    3  A    between atoms: C3_3  and  C4_4 
REMARK    4  A    between atoms: C4_4  and  C5_5 
REMARK    5  A    between atoms: C4_4  and  C6_6 
REMARK    6  A    between atoms: C4_4  and  O1_9 
REMARK    7  A    between atoms: C6_6  and  C7_7 
ROOT
ATOM      1  C4  <0> d           0.739  -2.027  -1.265  0.00  0.00     0.057 C 
ENDROOT
BRANCH   1   2
ATOM      2  C3  <0> d           0.718  -0.497  -1.257  0.00  0.00    -0.037 C 
ATOM      3  H6  <0> d           0.191  -0.136  -2.140  0.00  0.00     0.037 H 
ATOM      4  H7  <0> d           1.741  -0.120  -1.264  0.00  0.00     0.037 H 
BRANCH   2   5
ATOM      5  C2  <0> d           0.002  -0.004   0.002  0.00  0.00    -0.066 C 
ATOM      6  H4  <0> d           0.529  -0.365   0.885  0.00  0.00     0.032 H 
ATOM      7  H5  <0> d          -1.020  -0.381   0.010  0.00  0.00     0.032 H 
BRANCH   5   8
ATOM      8  C1  <0> d          -0.019   1.526   0.010  0.00  0.00    -0.076 C 
ATOM      9  H1  <0> d           1.004   1.903   0.003  0.00  0.00     0.027 H 
ATOM     10  H2  <0> d          -0.546   1.887  -0.873  0.00  0.00     0.027 H 
ATOM     11  H3  <0> d          -0.529   1.877   0.907  0.00  0.00     0.027 H 
ENDBRANCH   5   8
ENDBRANCH   2   5
ENDBRANCH   1   2
BRANCH   1  12
ATOM     12  C5  <0> d          -0.696  -2.557  -1.254  0.00  0.00    -0.048 C 
ATOM     13  H8  <0> d          -1.224  -2.196  -2.137  0.00  0.00     0.031 H 
ATOM     14  H9  <0> d          -0.682  -3.647  -1.260  0.00  0.00     0.031 H 
ATOM     15  H10 <0> d          -1.207  -2.205  -0.357  0.00  0.00     0.031 H 
ENDBRANCH   1  12
BRANCH   1  16
ATOM     16  C6  <0> d           1.455  -2.521  -2.524  0.00  0.00    -0.022 C 
ATOM     17  H11 <0> d           0.981  -2.088  -3.405  0.00  0.00     0.043 H 
ATOM     18  H12 <0> d           2.502  -2.218  -2.489  0.00  0.00     0.043 H 
BRANCH  16  19
ATOM     19  C7  <0> d           1.369  -4.024  -2.595  0.00  0.00    -0.109 C 
ATOM     20  C8  <0> d           0.873  -4.602  -3.661  0.00  0.00    -0.125 C 
ATOM     21  H14 <0> d           0.527  -4.001  -4.489  0.00  0.00     0.066 H 
ATOM     22  H15 <0> d           0.811  -5.679  -3.712  0.00  0.00     0.066 H 
ATOM     23  H13 <0> d           1.715  -4.624  -1.766  0.00  0.00     0.075 H 
ENDBRANCH  16  19
ENDBRANCH   1  16
BRANCH   1  24
ATOM     24  O1  <0> d           1.430  -2.501  -0.107  0.00  0.00    -0.390 OA
ATOM     25  H16 <0> d           2.348  -2.203  -0.049  0.00  0.00     0.210 HD
ENDBRANCH   1  24
TORSDOF 7
