REMARK  0 active torsions:
REMARK  status: ('A' for Active; 'I' for Inactive)
ROOT
ATOM      1  C1  <0> d           1.460   3.347   0.006  0.00  0.00    -0.059 A 
ATOM      2  C2  <0> d           0.348   4.171   0.022  0.00  0.00     0.002 A 
ATOM      3  N1  <0> d          -0.871   3.667   0.031  0.00  0.00    -0.272 NA
ATOM      4  C3  <0> d          -1.090   2.369   0.030  0.00  0.00     0.016 A 
ATOM      5  C4  <0> d          -0.018   1.466   0.010  0.00  0.00     0.034 A 
ATOM      6  C5  <0> d           1.284   1.975   0.000  0.00  0.00    -0.041 A 
ATOM      7  C6  <0> d           2.273   0.839  -0.015  0.00  0.00    -0.034 A 
ATOM      8  C7  <0> d           1.444  -0.454  -0.014  0.00  0.00    -0.001 A 
ATOM      9  C8  <0> d           0.002  -0.004   0.002  0.00  0.00     0.161 A 
ATOM     10  O1  <0> d          -0.970  -0.729   0.008  0.00  0.00    -0.292 OA
ATOM     11  H1  <0> d           2.454   3.770  -0.000  0.00  0.00     0.086 H 
ATOM     12  H2  <0> d           0.480   5.243   0.027  0.00  0.00     0.114 H 
ATOM     13  H3  <0> d          -2.103   1.997   0.043  0.00  0.00     0.116 H 
ATOM     14  H4  <0> d           2.896   0.907  -0.919  0.00  0.00     0.040 H 
ATOM     15  H5  <0> d           2.913   0.898   0.877  0.00  0.00     0.040 H 
ATOM     16  H6  <0> d           1.673  -1.038  -0.918  0.00  0.00     0.045 H 
ATOM     17  H7  <0> d           1.690  -1.048   0.878  0.00  0.00     0.045 H 
ENDROOT
TORSDOF 0
