REMARK  2 active torsions:
REMARK  status: ('A' for Active; 'I' for Inactive)
REMARK    1  A    between atoms: C1_1  and  C2_2 
REMARK    2  A    between atoms: C4_4  and  N3_8 
ROOT
ATOM      1  C2  <0> d           0.002  -0.004   0.002  0.00  0.00     0.054 A 
ATOM      2  C3  <0> d           0.008  -0.816  -1.135  0.00  0.00    -0.014 A 
ATOM      3  C4  <0> d           0.027  -2.112  -0.722  0.00  0.00     0.129 A 
ATOM      4  N1  <0> d           0.034  -2.110   0.630  0.00  0.00    -0.262 N 
ATOM      5  H1  <0> d           0.047  -2.893   1.203  0.00  0.00     0.191 HD
ATOM      6  N2  <0> d           0.023  -0.776   1.058  0.00  0.00    -0.178 NA
ATOM      7  H5  <0> d          -0.002  -0.475  -2.160  0.00  0.00     0.092 H 
ENDROOT
BRANCH   3   8
ATOM      8  N3  <0> d           0.039  -3.241  -1.546  0.00  0.00    -0.318 N 
ATOM      9  C8  <0> d           0.058  -4.539  -1.119  0.00  0.00    -0.014 A 
ATOM     10  C7  <0> d           0.061  -5.339  -2.204  0.00  0.00    -0.066 A 
ATOM     11  H9  <0> d           0.067  -4.866  -0.089  0.00  0.00     0.112 H 
ATOM     12  C6  <0> d           0.051  -4.509  -3.342  0.00  0.00    -0.066 A 
ATOM     13  H8  <0> d           0.072  -6.419  -2.201  0.00  0.00     0.085 H 
ATOM     14  C5  <0> d           0.038  -3.231  -2.912  0.00  0.00    -0.014 A 
ATOM     15  H7  <0> d           0.054  -4.836  -4.372  0.00  0.00     0.085 H 
ATOM     16  H6  <0> d           0.028  -2.352  -3.538  0.00  0.00     0.112 H 
ENDBRANCH   3   8
BRANCH   1  17
ATOM     17  C1  <0> d          -0.018   1.503   0.010  0.00  0.00    -0.034 C 
ATOM     18  H2  <0> d           1.004   1.880   0.003  0.00  0.00     0.035 H 
ATOM     19  H3  <0> d          -0.545   1.864  -0.873  0.00  0.00     0.035 H 
ATOM     20  H4  <0> d          -0.529   1.854   0.907  0.00  0.00     0.035 H 
ENDBRANCH   1  17
TORSDOF 2
