REMARK  3 active torsions:
REMARK  status: ('A' for Active; 'I' for Inactive)
REMARK    1  A    between atoms: C6_6  and  C7_7 
REMARK    2  A    between atoms: C8_8  and  C9_9 
REMARK    3  A    between atoms: C9_9  and  O1_10 
ROOT
ATOM      1  C1  <0> d           1.257  -3.292  -0.034  0.00  0.00    -0.063 A 
ATOM      2  C2  <0> d           1.276  -4.663  -0.036  0.00  0.00    -0.061 A 
ATOM      3  C3  <0> d           0.075  -5.378  -0.028  0.00  0.00     0.044 A 
ATOM      4  C4  <0> d          -1.145  -4.696  -0.012  0.00  0.00    -0.061 A 
ATOM      5  C5  <0> d          -1.163  -3.325  -0.005  0.00  0.00    -0.063 A 
ATOM      6  C6  <0> d           0.037  -2.610  -0.012  0.00  0.00     0.017 A 
ATOM      7  C10 <0> d           0.094  -6.810  -0.035  0.00  0.00     0.099 C 
ATOM      8  N1  <0> d           0.110  -7.946  -0.041  0.00  0.00    -0.191 NA
ATOM      9  H1  <0> d           2.184  -2.739  -0.044  0.00  0.00     0.085 H 
ATOM     10  H2  <0> d           2.219  -5.190  -0.048  0.00  0.00     0.085 H 
ATOM     11  H3  <0> d          -2.073  -5.248  -0.006  0.00  0.00     0.085 H 
ATOM     12  H4  <0> d          -2.105  -2.797   0.007  0.00  0.00     0.085 H 
ENDROOT
BRANCH   6  13
ATOM     13  C7  <0> d           0.018  -1.178  -0.004  0.00  0.00    -0.065 C 
ATOM     14  C8  <0> d           0.002  -0.004   0.002  0.00  0.00    -0.075 C 
BRANCH  14  15
ATOM     15  C9  <0> d          -0.018   1.468   0.010  0.00  0.00     0.071 C 
ATOM     16  H5  <0> d          -0.545   1.829  -0.873  0.00  0.00     0.093 H 
ATOM     17  H6  <0> d          -0.528   1.819   0.907  0.00  0.00     0.093 H 
BRANCH  15  18
ATOM     18  O1  <0> d           1.323   1.962  -0.000  0.00  0.00    -0.389 OA
ATOM     19  H7  <0> d           1.386   2.927   0.004  0.00  0.00     0.210 HD
ENDBRANCH  15  18
ENDBRANCH  14  15
ENDBRANCH   6  13
TORSDOF 3
