REMARK  1 active torsions:
REMARK  status: ('A' for Active; 'I' for Inactive)
REMARK    1  A    between atoms: C7_10  and  N3_11 
ROOT
ATOM      1  C1  <0> d          -0.017   1.399   0.010  0.00  0.00    -0.057 A 
ATOM      2  C2  <0> d           1.127   2.126   0.003  0.00  0.00    -0.067 A 
ATOM      3  C3  <0> d           2.374   1.464  -0.013  0.00  0.00     0.011 A 
ATOM      4  C4  <0> d           3.693   1.877  -0.023  0.00  0.00     0.008 A 
ATOM      5  N1  <0> d           4.467   0.783  -0.036  0.00  0.00    -0.288 N 
ATOM      6  H1  <0> d           5.437   0.788  -0.045  0.00  0.00     0.188 HD
ATOM      7  N2  <0> d           3.670  -0.366  -0.035  0.00  0.00    -0.175 NA
ATOM      8  C5  <0> d           2.399  -0.007  -0.021  0.00  0.00     0.090 A 
ATOM      9  C6  <0> d           1.172  -0.703  -0.013  0.00  0.00    -0.027 A 
ATOM     10  C7  <0> d           0.002  -0.004   0.002  0.00  0.00     0.028 A 
ATOM     11  H2  <0> d          -0.967   1.912   0.026  0.00  0.00     0.086 H 
ATOM     12  H3  <0> d           1.084   3.205   0.009  0.00  0.00     0.085 H 
ATOM     13  H4  <0> d           4.039   2.900  -0.021  0.00  0.00     0.115 H 
ATOM     14  H5  <0> d           1.160  -1.783  -0.019  0.00  0.00     0.090 H 
ENDROOT
BRANCH  10  15
ATOM     15  N3  <0> d          -1.208  -0.702   0.010  0.00  0.00    -0.399 N 
ATOM     16  H6  <0> d          -2.048  -0.216   0.021  0.00  0.00     0.156 HD
ATOM     17  H7  <0> d          -1.209  -1.671   0.005  0.00  0.00     0.156 HD
ENDBRANCH  10  15
TORSDOF 1
