REMARK  6 active torsions:
REMARK  status: ('A' for Active; 'I' for Inactive)
REMARK    1  A    between atoms: C1_1  and  C2_2 
REMARK    2  A    between atoms: C2_2  and  C3_3 
REMARK    3  A    between atoms: C2_2  and  C4_4 
REMARK    4  A    between atoms: C2_2  and  O1_5 
REMARK    5  A    between atoms: O1_5  and  C5_6 
REMARK       I    between atoms: C5_6  and  N1_8 
REMARK    6  A    between atoms: N1_8  and  C6_9 
ROOT
ATOM      1  C2  <0> d           1.268   2.019   0.001  0.00  0.00     0.061 C 
ENDROOT
BRANCH   1   2
ATOM      2  C1  <0> d           2.044   1.625  -1.258  0.00  0.00    -0.048 C 
ATOM      3  H1  <0> d           1.474   1.915  -2.141  0.00  0.00     0.031 H 
ATOM      4  H2  <0> d           3.008   2.133  -1.264  0.00  0.00     0.031 H 
ATOM      5  H3  <0> d           2.201   0.547  -1.265  0.00  0.00     0.031 H 
ENDBRANCH   1   2
BRANCH   1   6
ATOM      6  C3  <0> d           1.047   3.533   0.011  0.00  0.00    -0.048 C 
ATOM      7  H4  <0> d           0.495   3.813   0.908  0.00  0.00     0.031 H 
ATOM      8  H5  <0> d           2.012   4.041   0.005  0.00  0.00     0.031 H 
ATOM      9  H6  <0> d           0.478   3.823  -0.872  0.00  0.00     0.031 H 
ENDBRANCH   1   6
BRANCH   1  10
ATOM     10  C4  <0> d           2.068   1.612   1.240  0.00  0.00    -0.048 C 
ATOM     11  H7  <0> d           2.225   0.533   1.233  0.00  0.00     0.031 H 
ATOM     12  H8  <0> d           3.032   2.120   1.234  0.00  0.00     0.031 H 
ATOM     13  H9  <0> d           1.515   1.892   2.137  0.00  0.00     0.031 H 
ENDBRANCH   1  10
BRANCH   1  14
ATOM     14  O1  <0> d          -0.016   1.342   0.009  0.00  0.00    -0.294 OA
BRANCH  14  15
ATOM     15  C5  <0> d           0.002  -0.004   0.002  0.00  0.00     0.360 C 
ATOM     16  O2  <0> d           1.062  -0.597  -0.011  0.00  0.00    -0.239 OA
ATOM     17  N1  <0> d          -1.156  -0.694   0.009  0.00  0.00    -0.341 N 
ATOM     18  H10 <0> d          -2.002  -0.220   0.020  0.00  0.00     0.164 HD
BRANCH  17  19
ATOM     19  C6  <0> d          -1.136  -2.159   0.001  0.00  0.00    -0.016 C 
ATOM     20  H11 <0> d          -2.159  -2.536   0.009  0.00  0.00     0.056 H 
ATOM     21  H12 <0> d          -0.626  -2.510  -0.895  0.00  0.00     0.056 H 
ATOM     22  H13 <0> d          -0.609  -2.520   0.884  0.00  0.00     0.056 H 
ENDBRANCH  17  19
ENDBRANCH  14  15
ENDBRANCH   1  14
TORSDOF 6
