REMARK  4 active torsions:
REMARK  status: ('A' for Active; 'I' for Inactive)
REMARK    1  A    between atoms: C1_1  and  N1_2 
REMARK       I    between atoms: N1_2  and  C2_3 
REMARK    2  A    between atoms: C2_3  and  C3_5 
REMARK    3  A    between atoms: C6_8  and  C7_10 
REMARK    4  A    between atoms: C7_10  and  O3_11 
ROOT
ATOM      1  C3  <0> d          -1.136  -2.160   0.001  0.00  0.00     0.143 A 
ATOM      2  C4  <0> d          -2.230  -2.978   0.002  0.00  0.00    -0.042 A 
ATOM      3  C5  <0> d          -1.748  -4.296  -0.008  0.00  0.00    -0.049 A 
ATOM      4  C6  <0> d          -0.399  -4.227  -0.015  0.00  0.00     0.077 A 
ATOM      5  O2  <0> d          -0.034  -2.938  -0.014  0.00  0.00    -0.307 OA
ATOM      6  H5  <0> d          -3.265  -2.669   0.009  0.00  0.00     0.088 H 
ATOM      7  H6  <0> d          -2.345  -5.197  -0.011  0.00  0.00     0.087 H 
ENDROOT
BRANCH   1   8
ATOM      8  C2  <0> d          -1.156  -0.694   0.009  0.00  0.00     0.275 C 
ATOM      9  N1  <0> d           0.002  -0.004   0.002  0.00  0.00    -0.360 N 
ATOM     10  H4  <0> d           0.849  -0.478  -0.009  0.00  0.00     0.162 HD
ATOM     11  O1  <0> d          -2.218  -0.100   0.023  0.00  0.00    -0.265 OA
BRANCH   9  12
ATOM     12  C1  <0> d          -0.018   1.461   0.010  0.00  0.00    -0.018 C 
ATOM     13  H1  <0> d           1.005   1.838   0.002  0.00  0.00     0.056 H 
ATOM     14  H2  <0> d          -0.545   1.822  -0.873  0.00  0.00     0.056 H 
ATOM     15  H3  <0> d          -0.528   1.812   0.907  0.00  0.00     0.056 H 
ENDBRANCH   9  12
ENDBRANCH   1   8
BRANCH   4  16
ATOM     16  C7  <0> d           0.540  -5.405  -0.025  0.00  0.00     0.061 C 
ATOM     17  H7  <0> d           1.465  -5.137   0.485  0.00  0.00     0.084 H 
ATOM     18  H8  <0> d           0.073  -6.247   0.486  0.00  0.00     0.084 H 
BRANCH  16  19
ATOM     19  O3  <0> d           0.831  -5.770  -1.376  0.00  0.00    -0.394 OA
ATOM     20  H9  <0> d           1.431  -6.524  -1.460  0.00  0.00     0.209 HD
ENDBRANCH  16  19
ENDBRANCH   4  16
TORSDOF 4
