REMARK  2 active torsions:
REMARK  status: ('A' for Active; 'I' for Inactive)
REMARK    1  A    between atoms: C1_1  and  C2_2 
REMARK    2  A    between atoms: C5_5  and  N2_12 
ROOT
ATOM      1  C2  <0> d           0.002  -0.004   0.002  0.00  0.00     0.006 A 
ATOM      2  C3  <0> d           0.007  -0.769  -1.101  0.00  0.00    -0.047 A 
ATOM      3  C4  <0> d           0.029  -2.164  -0.654  0.00  0.00     0.019 A 
ATOM      4  C5  <0> d           0.043  -3.399  -1.318  0.00  0.00     0.038 A 
ATOM      5  C6  <0> d           0.063  -4.569  -0.581  0.00  0.00    -0.057 A 
ATOM      6  C7  <0> d           0.069  -4.522   0.806  0.00  0.00    -0.079 A 
ATOM      7  C8  <0> d           0.056  -3.315   1.470  0.00  0.00    -0.056 A 
ATOM      8  C9  <0> d           0.036  -2.123   0.750  0.00  0.00     0.045 A 
ATOM      9  N1  <0> d           0.024  -0.797   1.119  0.00  0.00    -0.359 N 
ATOM     10  H1  <0> d           0.028  -0.472   2.033  0.00  0.00     0.166 HD
ATOM     11  H5  <0> d          -0.003  -0.422  -2.123  0.00  0.00     0.087 H 
ATOM     12  H6  <0> d           0.073  -5.523  -1.087  0.00  0.00     0.086 H 
ATOM     13  H7  <0> d           0.084  -5.442   1.371  0.00  0.00     0.083 H 
ATOM     14  H8  <0> d           0.060  -3.294   2.550  0.00  0.00     0.086 H 
ENDROOT
BRANCH   1  15
ATOM     15  C1  <0> d          -0.018   1.503   0.010  0.00  0.00    -0.037 C 
ATOM     16  H2  <0> d           1.004   1.880   0.003  0.00  0.00     0.035 H 
ATOM     17  H3  <0> d          -0.545   1.864  -0.873  0.00  0.00     0.035 H 
ATOM     18  H4  <0> d          -0.529   1.854   0.907  0.00  0.00     0.035 H 
ENDBRANCH   1  15
BRANCH   4  19
ATOM     19  N2  <0> d           0.036  -3.447  -2.713  0.00  0.00    -0.398 N 
ATOM     20  H9  <0> d           0.022  -2.624  -3.227  0.00  0.00     0.156 HD
ATOM     21  H10 <0> d           0.046  -4.303  -3.169  0.00  0.00     0.156 HD
ENDBRANCH   4  19
TORSDOF 2
