REMARK  3 active torsions:
REMARK  status: ('A' for Active; 'I' for Inactive)
REMARK    1  A    between atoms: C1_1  and  C2_2 
REMARK    2  A    between atoms: C3_3  and  N2_9 
REMARK    3  A    between atoms: C6_6  and  O1_8 
ROOT
ATOM      1  C2  <0> d           3.023   2.353   1.184  0.00  0.00     0.059 A 
ATOM      2  C3  <0> d           3.695   2.674   0.014  0.00  0.00     0.050 A 
ATOM      3  C4  <0> d           3.089   2.406  -1.212  0.00  0.00    -0.052 A 
ATOM      4  C5  <0> d           1.833   1.826  -1.213  0.00  0.00    -0.030 A 
ATOM      5  C6  <0> d           1.222   1.532  -0.001  0.00  0.00     0.162 A 
ATOM      6  N1  <0> d           1.823   1.804   1.144  0.00  0.00    -0.228 NA
ATOM      7  H4  <0> d           3.588   2.646  -2.139  0.00  0.00     0.087 H 
ATOM      8  H5  <0> d           1.334   1.605  -2.145  0.00  0.00     0.090 H 
ENDROOT
BRANCH   1   9
ATOM      9  C1  <0> d           3.667   2.638   2.516  0.00  0.00    -0.033 C 
ATOM     10  H1  <0> d           3.392   3.639   2.846  0.00  0.00     0.035 H 
ATOM     11  H2  <0> d           3.326   1.907   3.249  0.00  0.00     0.035 H 
ATOM     12  H3  <0> d           4.751   2.573   2.417  0.00  0.00     0.035 H 
ENDBRANCH   1   9
BRANCH   2  13
ATOM     13  N2  <0> d           4.965   3.260   0.064  0.00  0.00    -0.397 N 
ATOM     14  H7  <0> d           5.430   3.482  -0.758  0.00  0.00     0.156 HD
ATOM     15  H8  <0> d           5.381   3.444   0.921  0.00  0.00     0.156 HD
ENDBRANCH   2  13
BRANCH   5  16
ATOM     16  O1  <0> d          -0.011   0.963   0.007  0.00  0.00    -0.345 OA
ATOM     17  H6  <0> d           0.002  -0.004   0.002  0.00  0.00     0.219 HD
ENDBRANCH   5  16
TORSDOF 3
