REMARK  9 active torsions:
REMARK  status: ('A' for Active; 'I' for Inactive)
REMARK    1  A    between atoms: C1_1  and  C2_2 
REMARK    2  A    between atoms: C2_2  and  C3_4 
REMARK    3  A    between atoms: C2_2  and  C9_10 
REMARK    4  A    between atoms: C3_4  and  C4_5 
REMARK    5  A    between atoms: C4_5  and  C5_6 
REMARK    6  A    between atoms: C6_7  and  C7_8 
REMARK    7  A    between atoms: C6_7  and  C8_9 
REMARK    8  A    between atoms: C9_10  and  C10_12 
REMARK    9  A    between atoms: C9_10  and  O1_13 
ROOT
ATOM      1  C3  <0> d          -2.857   1.499   1.627  0.00  0.00    -0.057 C 
ATOM      2  H6  <0> d          -3.617   1.718   2.377  0.00  0.00     0.034 H 
ATOM      3  H7  <0> d          -3.261   1.690   0.633  0.00  0.00     0.034 H 
ENDROOT
BRANCH   1   4
ATOM      4  C2  <0> d          -1.637   2.392   1.861  0.00  0.00    -0.033 C 
ATOM      5  H1  <0> d          -1.180   2.140   2.818  0.00  0.00     0.043 H 
BRANCH   4   6
ATOM      6  C1  <0> d          -0.622   2.174   0.738  0.00  0.00    -0.071 C 
ATOM      7  H3  <0> d          -0.310   1.130   0.727  0.00  0.00     0.028 H 
ATOM      8  H4  <0> d           0.247   2.811   0.905  0.00  0.00     0.028 H 
ATOM      9  H5  <0> d          -1.079   2.427  -0.219  0.00  0.00     0.028 H 
ENDBRANCH   4   6
BRANCH   4  10
ATOM     10  C9  <0> d          -2.074   3.859   1.876  0.00  0.00     0.035 C 
ATOM     11  H2  <0> d          -2.797   4.014   2.677  0.00  0.00     0.082 H 
BRANCH  10  12
ATOM     12  C10 <0> d          -0.854   4.752   2.111  0.00  0.00    -0.052 C 
ATOM     13  H17 <0> d          -0.131   4.596   1.310  0.00  0.00     0.030 H 
ATOM     14  H18 <0> d          -1.165   5.796   2.121  0.00  0.00     0.030 H 
ATOM     15  H19 <0> d          -0.397   4.499   3.067  0.00  0.00     0.030 H 
ENDBRANCH  10  12
BRANCH  10  16
ATOM     16  O1  <0> d          -2.673   4.190   0.622  0.00  0.00    -0.396 OA
ATOM     17  H20 <0> d          -2.085   4.075  -0.137  0.00  0.00     0.210 HD
ENDBRANCH  10  16
ENDBRANCH   4  10
ENDBRANCH   1   4
BRANCH   1  18
ATOM     18  C4  <0> d          -2.442   0.030   1.736  0.00  0.00    -0.049 C 
ATOM     19  H8  <0> d          -1.682  -0.189   0.986  0.00  0.00     0.038 H 
ATOM     20  H9  <0> d          -2.038  -0.160   2.730  0.00  0.00     0.038 H 
BRANCH  18  21
ATOM     21  C5  <0> d          -3.644  -0.849   1.505  0.00  0.00    -0.101 C 
ATOM     22  C6  <0> d          -3.967  -1.762   2.388  0.00  0.00    -0.091 C 
ATOM     23  H10 <0> d          -4.238  -0.728   0.612  0.00  0.00     0.077 H 
BRANCH  22  24
ATOM     24  C7  <0> d          -3.061  -2.027   3.563  0.00  0.00    -0.055 C 
ATOM     25  H11 <0> d          -3.288  -1.322   4.363  0.00  0.00     0.033 H 
ATOM     26  H12 <0> d          -3.219  -3.045   3.920  0.00  0.00     0.033 H 
ATOM     27  H13 <0> d          -2.022  -1.907   3.256  0.00  0.00     0.033 H 
ENDBRANCH  22  24
BRANCH  22  28
ATOM     28  C8  <0> d          -5.244  -2.545   2.229  0.00  0.00    -0.055 C 
ATOM     29  H14 <0> d          -5.049  -3.443   1.642  0.00  0.00     0.033 H 
ATOM     30  H15 <0> d          -5.622  -2.828   3.211  0.00  0.00     0.033 H 
ATOM     31  H16 <0> d          -5.986  -1.931   1.718  0.00  0.00     0.033 H 
ENDBRANCH  22  28
ENDBRANCH  18  21
ENDBRANCH   1  18
TORSDOF 9
