REMARK  0 active torsions:
REMARK  status: ('A' for Active; 'I' for Inactive)
ROOT
ATOM      1  C1  <0> d           1.273  -0.278  -0.873  0.00  0.00    -0.055 C 
ATOM      2  C2  <0> d           0.002  -0.004   0.002  0.00  0.00    -0.051 C 
ATOM      3  H1  <0> d          -0.923  -0.493  -0.303  0.00  0.00     0.040 H 
ATOM      4  C3  <0> d          -0.019   1.556   0.011  0.00  0.00    -0.049 C 
ATOM      5  C4  <0> d           1.470   1.980  -0.001  0.00  0.00     0.036 C 
ATOM      6  H2  <0> d           1.720   2.684  -0.795  0.00  0.00     0.056 H 
ATOM      7  C5  <0> d           2.250   0.620  -0.054  0.00  0.00    -0.016 C 
ATOM      8  H3  <0> d           3.287   0.660  -0.387  0.00  0.00     0.045 H 
ATOM      9  C6  <0> d           2.001   0.158   1.419  0.00  0.00     0.052 C 
ATOM     10  H4  <0> d           2.732  -0.558   1.795  0.00  0.00     0.084 H 
ATOM     11  C7  <0> d           0.545  -0.387   1.411  0.00  0.00    -0.036 C 
ATOM     12  O1  <0> d           1.945   1.399   2.194  0.00  0.00    -0.315 OA
ATOM     13  C8  <0> d           1.835   2.467   1.392  0.00  0.00     0.263 C 
ATOM     14  O2  <0> d           1.997   3.619   1.720  0.00  0.00    -0.265 OA
ATOM     15  H5  <0> d           1.566  -1.328  -0.847  0.00  0.00     0.034 H 
ATOM     16  H6  <0> d           1.149   0.080  -1.894  0.00  0.00     0.034 H 
ATOM     17  H7  <0> d          -0.527   1.932  -0.877  0.00  0.00     0.034 H 
ATOM     18  H8  <0> d          -0.510   1.922   0.912  0.00  0.00     0.034 H 
ATOM     19  H9  <0> d          -0.046   0.092   2.191  0.00  0.00     0.037 H 
ATOM     20  H10 <0> d           0.540  -1.470   1.541  0.00  0.00     0.037 H 
ENDROOT
TORSDOF 0
