REMARK  1 active torsions:
REMARK  status: ('A' for Active; 'I' for Inactive)
REMARK    1  A    between atoms: C3_3  and  N2_11 
ROOT
ATOM      1  C1  <0> d           1.209  -0.688  -0.013  0.00  0.00    -0.079 A 
ATOM      2  C2  <0> d           0.002  -0.004   0.002  0.00  0.00    -0.057 A 
ATOM      3  C3  <0> d          -0.017   1.379   0.010  0.00  0.00     0.038 A 
ATOM      4  C4  <0> d           1.194   2.087   0.002  0.00  0.00     0.018 A 
ATOM      5  C5  <0> d           1.540   3.510   0.006  0.00  0.00    -0.054 A 
ATOM      6  C6  <0> d           2.880   3.587  -0.007  0.00  0.00    -0.022 A 
ATOM      7  N1  <0> d           3.419   2.328  -0.019  0.00  0.00    -0.365 N 
ATOM      8  H1  <0> d           4.368   2.129  -0.030  0.00  0.00     0.165 HD
ATOM      9  C7  <0> d           2.413   1.389  -0.014  0.00  0.00     0.044 A 
ATOM     10  C8  <0> d           2.405  -0.004  -0.021  0.00  0.00    -0.056 A 
ATOM     11  H2  <0> d           1.212  -1.768  -0.019  0.00  0.00     0.083 H 
ATOM     12  H3  <0> d          -0.927  -0.554   0.008  0.00  0.00     0.086 H 
ATOM     13  H4  <0> d           0.849   4.339   0.017  0.00  0.00     0.087 H 
ATOM     14  H5  <0> d           3.448   4.506  -0.007  0.00  0.00     0.111 H 
ATOM     15  H6  <0> d           3.338  -0.549  -0.034  0.00  0.00     0.086 H 
ENDROOT
BRANCH   3  16
ATOM     16  N2  <0> d          -1.232   2.066   0.019  0.00  0.00    -0.398 N 
ATOM     17  H7  <0> d          -2.067   1.573   0.020  0.00  0.00     0.156 HD
ATOM     18  H8  <0> d          -1.241   3.035   0.024  0.00  0.00     0.156 HD
ENDBRANCH   3  16
TORSDOF 1
