REMARK  0 active torsions:
REMARK  status: ('A' for Active; 'I' for Inactive)
ROOT
ATOM      1  C1  <0> d          -0.015   4.071   0.023  0.00  0.00    -0.025 A 
ATOM      2  C2  <0> d           1.153   3.335   0.009  0.00  0.00     0.008 A 
ATOM      3  N1  <0> d           1.123   2.016   0.002  0.00  0.00    -0.230 NA
ATOM      4  C3  <0> d          -0.016   1.347   0.009  0.00  0.00     0.251 A 
ATOM      5  C4  <0> d          -1.230   2.016   0.019  0.00  0.00     0.212 A 
ATOM      6  C5  <0> d          -1.235   3.406   0.031  0.00  0.00     0.161 A 
ATOM      7  F1  <0> d          -2.397   4.094   0.044  0.00  0.00    -0.203 F 
ATOM      8  F2  <0> d          -2.392   1.327   0.021  0.00  0.00    -0.198 F 
ATOM      9  F3  <0> d           0.002  -0.004   0.002  0.00  0.00    -0.181 F 
ATOM     10  H1  <0> d           0.020   5.150   0.028  0.00  0.00     0.090 H 
ATOM     11  H2  <0> d           2.105   3.846   0.002  0.00  0.00     0.115 H 
ENDROOT
TORSDOF 0
