REMARK  2 active torsions:
REMARK  status: ('A' for Active; 'I' for Inactive)
REMARK    1  A    between atoms: C2_3  and  C7_9 
REMARK    2  A    between atoms: C3_4  and  C4_6 
ROOT
ATOM      1  C1  <0> d           1.240  -0.399  -0.012  0.00  0.00     0.104 A 
ATOM      2  N1  <0> d           0.002  -0.004   0.002  0.00  0.00    -0.227 NA
ATOM      3  C2  <0> d          -0.016   1.357   0.009  0.00  0.00     0.165 A 
ATOM      4  C3  <0> d           1.280   1.774  -0.001  0.00  0.00     0.094 A 
ATOM      5  O1  <0> d           2.046   0.672  -0.014  0.00  0.00    -0.305 OA
ATOM      6  H1  <0> d           1.568  -1.428  -0.021  0.00  0.00     0.155 H 
ENDROOT
BRANCH   4   7
ATOM      7  C4  <0> d           1.762   3.202   0.002  0.00  0.00    -0.004 A 
ATOM      8  C6  <0> d           2.644   3.648   1.170  0.00  0.00    -0.055 A 
ATOM      9  C5  <0> d           3.257   3.443  -0.217  0.00  0.00    -0.055 A 
ATOM     10  H5  <0> d           2.530   4.673   1.524  0.00  0.00     0.034 H 
ATOM     11  H6  <0> d           2.875   2.909   1.937  0.00  0.00     0.034 H 
ATOM     12  H3  <0> d           3.892   2.569  -0.363  0.00  0.00     0.034 H 
ATOM     13  H4  <0> d           3.547   4.333  -0.776  0.00  0.00     0.034 H 
ATOM     14  H2  <0> d           1.068   3.934  -0.412  0.00  0.00     0.050 H 
ENDBRANCH   4   7
BRANCH   3  15
ATOM     15  C7  <0> d          -1.213   2.216   0.020  0.00  0.00     0.231 C 
ATOM     16  O2  <0> d          -1.092   3.425   0.026  0.00  0.00    -0.643 OA
ATOM     17  O3  <0> d          -2.441   1.661   0.024  0.00  0.00    -0.643 OA
ENDBRANCH   3  15
TORSDOF 2
