REMARK  3 active torsions:
REMARK  status: ('A' for Active; 'I' for Inactive)
REMARK    1  A    between atoms: C1_1  and  C2_2 
REMARK       I    between atoms: C2_2  and  N1_4 
REMARK    2  A    between atoms: N1_4  and  C3_5 
REMARK    3  A    between atoms: C8_10  and  O2_11 
ROOT
ATOM      1  C3  <0> d          -1.192  -2.091  -0.088  0.00  0.00     0.068 A 
ATOM      2  C4  <0> d          -0.011  -2.819  -0.092  0.00  0.00    -0.054 A 
ATOM      3  C5  <0> d          -0.050  -4.197  -0.188  0.00  0.00    -0.081 A 
ATOM      4  C6  <0> d          -1.263  -4.854  -0.281  0.00  0.00    -0.080 A 
ATOM      5  C7  <0> d          -2.444  -4.135  -0.278  0.00  0.00    -0.049 A 
ATOM      6  C8  <0> d          -2.414  -2.753  -0.176  0.00  0.00     0.092 A 
ATOM      7  H5  <0> d           0.938  -2.309  -0.020  0.00  0.00     0.087 H 
ATOM      8  H6  <0> d           0.870  -4.763  -0.191  0.00  0.00     0.083 H 
ATOM      9  H7  <0> d          -1.288  -5.931  -0.357  0.00  0.00     0.083 H 
ATOM     10  H8  <0> d          -3.390  -4.651  -0.352  0.00  0.00     0.087 H 
ENDROOT
BRANCH   1  11
ATOM     11  N1  <0> d          -1.156  -0.694   0.009  0.00  0.00    -0.325 N 
ATOM     12  C2  <0> d          -0.153  -0.004  -0.569  0.00  0.00     0.218 C 
ATOM     13  O1  <0> d           0.760  -0.595  -1.105  0.00  0.00    -0.274 OA
ATOM     14  H4  <0> d          -1.852  -0.223   0.493  0.00  0.00     0.169 HD
BRANCH  12  15
ATOM     15  C1  <0> d          -0.167   1.503  -0.550  0.00  0.00    -0.003 C 
ATOM     16  H1  <0> d           0.718   1.881  -1.062  0.00  0.00     0.040 H 
ATOM     17  H2  <0> d          -1.062   1.865  -1.057  0.00  0.00     0.040 H 
ATOM     18  H3  <0> d          -0.167   1.854   0.482  0.00  0.00     0.040 H 
ENDBRANCH  12  15
ENDBRANCH   1  11
BRANCH   6  19
ATOM     19  O2  <0> d          -3.575  -2.046  -0.168  0.00  0.00    -0.358 OA
ATOM     20  H9  <0> d          -3.881  -1.780  -1.046  0.00  0.00     0.217 HD
ENDBRANCH   6  19
TORSDOF 3
