REMARK  1 active torsions:
REMARK  status: ('A' for Active; 'I' for Inactive)
REMARK    1  A    between atoms: C3_3  and  C8_9 
ROOT
ATOM      1  C1  <0> d           1.171   1.783   0.001  0.00  0.00    -0.081 A 
ATOM      2  C2  <0> d           1.155   3.167   0.008  0.00  0.00    -0.076 A 
ATOM      3  C3  <0> d          -0.048   3.850   0.023  0.00  0.00    -0.044 A 
ATOM      4  C4  <0> d          -1.240   3.155   0.031  0.00  0.00    -0.056 A 
ATOM      5  C5  <0> d          -1.230   1.759   0.017  0.00  0.00     0.045 A 
ATOM      6  C6  <0> d          -0.013   1.076   0.008  0.00  0.00    -0.063 A 
ATOM      7  C7  <0> d          -2.464   1.031   0.019  0.00  0.00     0.099 C 
ATOM      8  N1  <0> d          -3.442   0.454   0.021  0.00  0.00    -0.191 NA
ATOM      9  H1  <0> d           2.114   1.256  -0.012  0.00  0.00     0.083 H 
ATOM     10  H2  <0> d           2.084   3.716   0.002  0.00  0.00     0.084 H 
ATOM     11  H3  <0> d          -2.178   3.690   0.044  0.00  0.00     0.086 H 
ATOM     12  H4  <0> d           0.002  -0.004   0.002  0.00  0.00     0.085 H 
ENDROOT
BRANCH   3  13
ATOM     13  C8  <0> d          -0.057   5.357   0.032  0.00  0.00     0.038 C 
ATOM     14  C9  <0> d          -0.073   5.855  -1.353  0.00  0.00     0.063 C 
ATOM     15  N2  <0> d          -0.085   6.240  -2.422  0.00  0.00    -0.197 NA
ATOM     16  H5  <0> d          -0.952   5.716   0.561  0.00  0.00     0.062 H 
ATOM     17  H6  <0> d           0.844   5.726   0.543  0.00  0.00     0.062 H 
ENDBRANCH   3  13
TORSDOF 1
