REMARK  4 active torsions:
REMARK  status: ('A' for Active; 'I' for Inactive)
REMARK    1  A    between atoms: C1_1  and  C2_2 
REMARK    2  A    between atoms: C2_2  and  C3_3 
REMARK    3  A    between atoms: C5_6  and  C7_11 
REMARK    4  A    between atoms: C7_11  and  O2_12 
ROOT
ATOM      1  C3  <0> d          -0.835   1.635  -1.181  0.00  0.00     0.025 C 
ATOM      2  H1  <0> d          -1.560   0.894  -1.518  0.00  0.00     0.054 H 
ATOM      3  C4  <0> d          -0.013   1.086   0.008  0.00  0.00    -0.033 C 
ATOM      4  C5  <0> d          -0.811   1.621   1.217  0.00  0.00     0.033 C 
ATOM      5  H2  <0> d          -1.532   0.876   1.554  0.00  0.00     0.075 H 
ATOM      6  N1  <0> d          -1.508   2.817   0.727  0.00  0.00    -0.354 N 
ATOM      7  C6  <0> d          -1.541   2.847  -0.616  0.00  0.00     0.222 C 
ATOM      8  O1  <0> d          -2.061   3.720  -1.279  0.00  0.00    -0.273 OA
ATOM      9  H8  <0> d           0.002  -0.004   0.002  0.00  0.00     0.037 H 
ATOM     10  H9  <0> d           1.000   1.488   0.001  0.00  0.00     0.037 H 
ATOM     11  H10 <0> d          -1.895   3.498   1.300  0.00  0.00     0.162 HD
ENDROOT
BRANCH   1  12
ATOM     12  C2  <0> d           0.091   2.041  -2.330  0.00  0.00    -0.057 C 
ATOM     13  H6  <0> d           0.717   2.875  -2.014  0.00  0.00     0.033 H 
ATOM     14  H7  <0> d           0.723   1.196  -2.604  0.00  0.00     0.033 H 
BRANCH  12  15
ATOM     15  C1  <0> d          -0.749   2.462  -3.537  0.00  0.00    -0.076 C 
ATOM     16  H3  <0> d          -0.089   2.752  -4.355  0.00  0.00     0.027 H 
ATOM     17  H4  <0> d          -1.375   1.628  -3.853  0.00  0.00     0.027 H 
ATOM     18  H5  <0> d          -1.380   3.307  -3.263  0.00  0.00     0.027 H 
ENDBRANCH  12  15
ENDBRANCH   1  12
BRANCH   4  19
ATOM     19  C7  <0> d           0.140   1.992   2.357  0.00  0.00     0.035 C 
ATOM     20  H11 <0> d           0.764   1.132   2.604  0.00  0.00     0.077 H 
ATOM     21  H12 <0> d           0.773   2.823   2.047  0.00  0.00     0.077 H 
BRANCH  19  22
ATOM     22  O2  <0> d          -0.619   2.374   3.506  0.00  0.00    -0.399 OA
ATOM     23  H13 <0> d          -0.080   2.622   4.269  0.00  0.00     0.209 HD
ENDBRANCH  19  22
ENDBRANCH   4  19
TORSDOF 4
