REMARK  1 active torsions:
REMARK  status: ('A' for Active; 'I' for Inactive)
REMARK    1  A    between atoms: C3_3  and  C5_6 
ROOT
ATOM      1  C5  <0> d           3.761   1.845  -0.024  0.00  0.00     0.082 A 
ATOM      2  C6  <0> d           4.605   1.612   1.230  0.00  0.00    -0.039 A 
ATOM      3  C7  <0> d           4.884   0.807  -0.041  0.00  0.00    -0.039 A 
ATOM      4  C8  <0> d           3.980   3.096  -0.769  0.00  0.00     0.074 C 
ATOM      5  N1  <0> d           4.149   4.061  -1.344  0.00  0.00    -0.196 NA
ATOM      6  H4  <0> d           5.323   2.385   1.504  0.00  0.00     0.036 H 
ATOM      7  H5  <0> d           4.135   1.090   2.063  0.00  0.00     0.036 H 
ATOM      8  H6  <0> d           4.598  -0.244  -0.043  0.00  0.00     0.036 H 
ATOM      9  H7  <0> d           5.786   1.050  -0.602  0.00  0.00     0.036 H 
ENDROOT
BRANCH   1  10
ATOM     10  C3  <0> d           2.343   1.336  -0.013  0.00  0.00     0.005 A 
ATOM     11  C2  <0> d           1.183   2.038   0.002  0.00  0.00    -0.068 A 
ATOM     12  C1  <0> d          -0.016   1.351   0.009  0.00  0.00    -0.076 A 
ATOM     13  H2  <0> d           1.197   3.118   0.007  0.00  0.00     0.085 H 
ATOM     14  C4  <0> d           0.002  -0.004   0.002  0.00  0.00    -0.044 A 
ATOM     15  H1  <0> d          -0.954   1.887   0.026  0.00  0.00     0.084 H 
ATOM     16  S1  <0> d           1.754  -0.349  -0.017  0.00  0.00    -0.105 SA
ATOM     17  H3  <0> d          -0.828  -0.696   0.006  0.00  0.00     0.095 H 
ENDBRANCH   1  10
TORSDOF 1
