REMARK  9 active torsions:
REMARK  status: ('A' for Active; 'I' for Inactive)
REMARK    1  A    between atoms: C1_1  and  C2_2 
REMARK    2  A    between atoms: C2_2  and  O1_3 
REMARK    3  A    between atoms: O1_3  and  C3_4 
REMARK    4  A    between atoms: C3_4  and  C4_6 
REMARK    5  A    between atoms: C3_4  and  O2_7 
REMARK    6  A    between atoms: O2_7  and  C5_8 
REMARK    7  A    between atoms: C5_8  and  C6_9 
REMARK    8  A    between atoms: C5_8  and  C7_10 
REMARK    9  A    between atoms: C5_8  and  C8_11 
ROOT
ATOM      1  C3  <0> d          -1.261  -1.990   0.158  0.00  0.00     0.128 C 
ATOM      2  H1  <0> d          -0.382  -1.685   0.725  0.00  0.00     0.128 H 
ENDROOT
BRANCH   1   3
ATOM      3  O1  <0> d          -2.185  -0.902   0.089  0.00  0.00    -0.362 OA
BRANCH   3   4
ATOM      4  C2  <0> d          -1.597   0.335  -0.318  0.00  0.00     0.019 C 
ATOM      5  H5  <0> d          -1.244   0.248  -1.346  0.00  0.00     0.073 H 
ATOM      6  H6  <0> d          -0.757   0.571   0.335  0.00  0.00     0.073 H 
BRANCH   4   7
ATOM      7  C1  <0> d          -2.641   1.450  -0.229  0.00  0.00    -0.056 C 
ATOM      8  H2  <0> d          -2.192   2.393  -0.540  0.00  0.00     0.030 H 
ATOM      9  H3  <0> d          -3.481   1.214  -0.883  0.00  0.00     0.030 H 
ATOM     10  H4  <0> d          -2.993   1.536   0.798  0.00  0.00     0.030 H 
ENDBRANCH   4   7
ENDBRANCH   3   4
ENDBRANCH   1   3
BRANCH   1  11
ATOM     11  C4  <0> d          -1.926  -3.182   0.849  0.00  0.00    -0.031 C 
ATOM     12  H7  <0> d          -1.222  -4.012   0.901  0.00  0.00     0.034 H 
ATOM     13  H8  <0> d          -2.226  -2.896   1.857  0.00  0.00     0.034 H 
ATOM     14  H9  <0> d          -2.806  -3.486   0.281  0.00  0.00     0.034 H 
ENDBRANCH   1  11
BRANCH   1  15
ATOM     15  O2  <0> d          -0.868  -2.365  -1.164  0.00  0.00    -0.352 OA
BRANCH  15  16
ATOM     16  C5  <0> d           0.542  -2.314  -1.388  0.00  0.00     0.053 C 
BRANCH  16  17
ATOM     17  C6  <0> d           1.253  -3.208  -0.370  0.00  0.00    -0.048 C 
ATOM     18  H10 <0> d           0.904  -4.234  -0.482  0.00  0.00     0.031 H 
ATOM     19  H11 <0> d           2.329  -3.168  -0.541  0.00  0.00     0.031 H 
ATOM     20  H12 <0> d           1.032  -2.857   0.638  0.00  0.00     0.031 H 
ENDBRANCH  16  17
BRANCH  16  21
ATOM     21  C7  <0> d           0.853  -2.806  -2.803  0.00  0.00    -0.048 C 
ATOM     22  H13 <0> d           0.346  -2.169  -3.529  0.00  0.00     0.031 H 
ATOM     23  H14 <0> d           1.928  -2.767  -2.974  0.00  0.00     0.031 H 
ATOM     24  H15 <0> d           0.504  -3.833  -2.915  0.00  0.00     0.031 H 
ENDBRANCH  16  21
BRANCH  16  25
ATOM     25  C8  <0> d           1.032  -0.873  -1.231  0.00  0.00    -0.048 C 
ATOM     26  H16 <0> d           0.758  -0.502  -0.243  0.00  0.00     0.031 H 
ATOM     27  H17 <0> d           2.116  -0.843  -1.343  0.00  0.00     0.031 H 
ATOM     28  H18 <0> d           0.570  -0.247  -1.995  0.00  0.00     0.031 H 
ENDBRANCH  16  25
ENDBRANCH  15  16
ENDBRANCH   1  15
TORSDOF 9
