REMARK  3 active torsions:
REMARK  status: ('A' for Active; 'I' for Inactive)
REMARK    1  A    between atoms: C1_1  and  C2_2 
REMARK    2  A    between atoms: C3_5  and  C4_8 
REMARK    3  A    between atoms: N3_6  and  N4_7 
ROOT
ATOM      1  C2  <0> d           0.002  -0.004   0.002  0.00  0.00     0.140 A 
ATOM      2  N1  <0> d           0.008  -0.772  -1.054  0.00  0.00    -0.134 NA
ATOM      3  N2  <0> d           0.027  -2.006  -0.691  0.00  0.00    -0.134 NA
ATOM      4  C3  <0> d           0.034  -2.081   0.612  0.00  0.00     0.140 A 
ATOM      5  N3  <0> d           0.023  -0.813   1.089  0.00  0.00    -0.249 N 
ENDROOT
BRANCH   1   6
ATOM      6  C1  <0> d          -0.018   1.503   0.010  0.00  0.00    -0.018 C 
ATOM      7  H1  <0> d           1.004   1.880   0.003  0.00  0.00     0.038 H 
ATOM      8  H2  <0> d          -0.545   1.864  -0.873  0.00  0.00     0.038 H 
ATOM      9  H3  <0> d          -0.529   1.854   0.907  0.00  0.00     0.038 H 
ENDBRANCH   1   6
BRANCH   5  10
ATOM     10  N4  <0> d           0.030  -0.428   2.400  0.00  0.00    -0.240 NA
ATOM     11  H4  <0> d          -0.910  -0.339   2.755  0.00  0.00     0.143 HD
ATOM     12  H5  <0> d           0.571  -1.069   2.962  0.00  0.00     0.143 HD
ENDBRANCH   5  10
BRANCH   4  13
ATOM     13  C4  <0> d           0.054  -3.344   1.433  0.00  0.00    -0.018 C 
ATOM     14  H6  <0> d           1.087  -3.635   1.627  0.00  0.00     0.038 H 
ATOM     15  H7  <0> d          -0.458  -3.171   2.379  0.00  0.00     0.038 H 
ATOM     16  H8  <0> d          -0.451  -4.141   0.887  0.00  0.00     0.038 H 
ENDBRANCH   4  13
TORSDOF 3
