REMARK  2 active torsions:
REMARK  status: ('A' for Active; 'I' for Inactive)
REMARK    1  A    between atoms: C1_1  and  O1_2 
REMARK    2  A    between atoms: O1_2  and  C2_3 
ROOT
ATOM      1  C2  <0> d           1.174   3.176   0.008  0.00  0.00     0.069 A 
ATOM      2  C3  <0> d           1.150   1.774   0.001  0.00  0.00    -0.049 A 
ATOM      3  C4  <0> d          -0.013   1.076   0.008  0.00  0.00    -0.050 A 
ATOM      4  C5  <0> d          -1.241   1.769   0.018  0.00  0.00     0.096 A 
ATOM      5  C6  <0> d          -1.214   3.248   0.031  0.00  0.00     0.022 A 
ATOM      6  C7  <0> d           0.027   3.910   0.023  0.00  0.00    -0.037 A 
ATOM      7  C8  <0> d          -2.549   3.586   0.046  0.00  0.00     0.056 A 
ATOM      8  O2  <0> d          -3.226   2.433   0.046  0.00  0.00    -0.224 OA
ATOM      9  N1  <0> d          -2.515   1.453   0.034  0.00  0.00    -0.128 NA
ATOM     10  H4  <0> d           2.085   1.234  -0.011  0.00  0.00     0.087 H 
ATOM     11  H5  <0> d           0.002  -0.004   0.002  0.00  0.00     0.087 H 
ATOM     12  H6  <0> d           0.070   4.989   0.029  0.00  0.00     0.089 H 
ATOM     13  H7  <0> d          -2.966   4.583   0.056  0.00  0.00     0.128 H 
ENDROOT
BRANCH   1  14
ATOM     14  O1  <0> d           2.373   3.819   0.000  0.00  0.00    -0.356 OA
BRANCH  14  15
ATOM     15  C1  <0> d           3.546   3.003  -0.015  0.00  0.00     0.010 C 
ATOM     16  H1  <0> d           3.543   2.379  -0.908  0.00  0.00     0.066 H 
ATOM     17  H2  <0> d           4.431   3.640  -0.019  0.00  0.00     0.066 H 
ATOM     18  H3  <0> d           3.559   2.369   0.872  0.00  0.00     0.066 H 
ENDBRANCH  14  15
ENDBRANCH   1  14
TORSDOF 2
