REMARK  1 active torsions:
REMARK  status: ('A' for Active; 'I' for Inactive)
REMARK    1  A    between atoms: C2_2  and  N3_8 
ROOT
ATOM      1  C1  <0> d          -0.016   1.319   0.009  0.00  0.00     0.032 A 
ATOM      2  C2  <0> d           1.192   2.011   0.002  0.00  0.00     0.084 A 
ATOM      3  C3  <0> d           2.375   1.273  -0.014  0.00  0.00     0.154 A 
ATOM      4  N1  <0> d           2.306  -0.049  -0.020  0.00  0.00    -0.228 NA
ATOM      5  C4  <0> d           1.142  -0.666  -0.012  0.00  0.00     0.088 A 
ATOM      6  N2  <0> d           0.002  -0.004   0.002  0.00  0.00    -0.252 NA
ATOM      7 Cl1  <0> d           3.914   2.076  -0.025  0.00  0.00    -0.060 Cl
ATOM      8  H1  <0> d          -0.954   1.854   0.026  0.00  0.00     0.118 H 
ATOM      9  H2  <0> d           1.121  -1.746  -0.018  0.00  0.00     0.146 H 
ENDROOT
BRANCH   2  10
ATOM     10  N3  <0> d           1.218   3.409   0.008  0.00  0.00    -0.395 N 
ATOM     11  H3  <0> d           0.387   3.909   0.019  0.00  0.00     0.156 HD
ATOM     12  H4  <0> d           2.067   3.878   0.003  0.00  0.00     0.156 HD
ENDBRANCH   2  10
TORSDOF 1
