REMARK  3 active torsions:
REMARK  status: ('A' for Active; 'I' for Inactive)
REMARK    1  A    between atoms: C1_1  and  C2_2 
REMARK    2  A    between atoms: C2_2  and  N1_3 
REMARK    3  A    between atoms: N1_3  and  C3_4 
ROOT
ATOM      1  C3  <0> d           0.832  -1.848  -1.433  0.00  0.00     0.067 A 
ATOM      2  C4  <0> d           0.331  -2.764  -0.518  0.00  0.00    -0.054 A 
ATOM      3  C5  <0> d           0.472  -4.119  -0.750  0.00  0.00    -0.081 A 
ATOM      4  C6  <0> d           1.119  -4.564  -1.888  0.00  0.00    -0.080 A 
ATOM      5  C7  <0> d           1.624  -3.656  -2.800  0.00  0.00    -0.043 A 
ATOM      6  C8  <0> d           1.483  -2.299  -2.577  0.00  0.00     0.142 A 
ATOM      7  F1  <0> d           1.977  -1.411  -3.468  0.00  0.00    -0.204 F 
ATOM      8  H7  <0> d          -0.171  -2.417   0.373  0.00  0.00     0.087 H 
ATOM      9  H8  <0> d           0.079  -4.831  -0.039  0.00  0.00     0.083 H 
ATOM     10  H9  <0> d           1.230  -5.624  -2.064  0.00  0.00     0.083 H 
ATOM     11  H10 <0> d           2.129  -4.007  -3.688  0.00  0.00     0.088 H 
ENDROOT
BRANCH   1  12
ATOM     12  N1  <0> d           0.688  -0.476  -1.203  0.00  0.00    -0.388 N 
ATOM     13  H6  <0> d           1.042   0.162  -1.842  0.00  0.00     0.159 HD
BRANCH  12  14
ATOM     14  C2  <0> d           0.002  -0.004   0.002  0.00  0.00    -0.011 C 
ATOM     15  H4  <0> d           0.529  -0.365   0.885  0.00  0.00     0.063 H 
ATOM     16  H5  <0> d          -1.020  -0.381   0.010  0.00  0.00     0.063 H 
BRANCH  14  17
ATOM     17  C1  <0> d          -0.019   1.526   0.010  0.00  0.00    -0.061 C 
ATOM     18  H1  <0> d           1.004   1.903   0.003  0.00  0.00     0.029 H 
ATOM     19  H2  <0> d          -0.546   1.887  -0.873  0.00  0.00     0.029 H 
ATOM     20  H3  <0> d          -0.529   1.877   0.907  0.00  0.00     0.029 H 
ENDBRANCH  14  17
ENDBRANCH  12  14
ENDBRANCH   1  12
TORSDOF 3
