REMARK  4 active torsions:
REMARK  status: ('A' for Active; 'I' for Inactive)
REMARK    1  A    between atoms: C1_1  and  C2_2 
REMARK    2  A    between atoms: C6_7  and  C7_9 
REMARK    3  A    between atoms: C6_7  and  C8_10 
REMARK    4  A    between atoms: C8_10  and  O2_11 
ROOT
ATOM      1  C2  <0> d           1.420   2.050  -0.001  0.00  0.00     0.036 C 
ATOM      2  H1  <0> d           1.916   1.731  -0.917  0.00  0.00     0.082 H 
ATOM      3  C3  <0> d          -0.019   1.528   0.010  0.00  0.00    -0.041 C 
ATOM      4  C4  <0> d           0.002  -0.004   0.002  0.00  0.00    -0.060 C 
ATOM      5  C5  <0> d           0.809  -0.499   1.206  0.00  0.00    -0.034 C 
ATOM      6  C6  <0> d           2.216   0.101   1.149  0.00  0.00     0.079 C 
ATOM      7  O1  <0> d           2.124   1.527   1.128  0.00  0.00    -0.373 OA
ATOM      8  H5  <0> d          -0.544   1.890  -0.873  0.00  0.00     0.036 H 
ATOM      9  H6  <0> d          -0.527   1.880   0.908  0.00  0.00     0.036 H 
ATOM     10  H7  <0> d          -1.018  -0.383   0.066  0.00  0.00     0.033 H 
ATOM     11  H8  <0> d           0.466  -0.357  -0.919  0.00  0.00     0.033 H 
ATOM     12  H9  <0> d           0.318  -0.188   2.127  0.00  0.00     0.037 H 
ATOM     13  H10 <0> d           0.875  -1.587   1.178  0.00  0.00     0.037 H 
ENDROOT
BRANCH   6  14
ATOM     14  C7  <0> d           2.927  -0.383  -0.117  0.00  0.00    -0.046 C 
ATOM     15  H11 <0> d           2.361  -0.067  -0.994  0.00  0.00     0.031 H 
ATOM     16  H12 <0> d           3.929   0.045  -0.158  0.00  0.00     0.031 H 
ATOM     17  H13 <0> d           2.996  -1.470  -0.102  0.00  0.00     0.031 H 
ENDBRANCH   6  14
BRANCH   6  18
ATOM     18  C8  <0> d           3.010  -0.341   2.380  0.00  0.00     0.045 C 
ATOM     19  H14 <0> d           2.504   0.004   3.281  0.00  0.00     0.078 H 
ATOM     20  H15 <0> d           3.080  -1.429   2.396  0.00  0.00     0.078 H 
BRANCH  18  21
ATOM     21  O2  <0> d           4.324   0.220   2.326  0.00  0.00    -0.398 OA
ATOM     22  H16 <0> d           4.884  -0.019   3.077  0.00  0.00     0.209 HD
ENDBRANCH  18  21
ENDBRANCH   6  18
BRANCH   1  23
ATOM     23  C1  <0> d           1.409   3.578   0.068  0.00  0.00    -0.052 C 
ATOM     24  H2  <0> d           0.914   3.897   0.986  0.00  0.00     0.030 H 
ATOM     25  H3  <0> d           2.434   3.950   0.061  0.00  0.00     0.030 H 
ATOM     26  H4  <0> d           0.872   3.977  -0.792  0.00  0.00     0.030 H 
ENDBRANCH   1  23
TORSDOF 4
