REMARK  5 active torsions:
REMARK  status: ('A' for Active; 'I' for Inactive)
REMARK    1  A    between atoms: C1_1  and  C2_2 
REMARK    2  A    between atoms: C3_3  and  O3_11 
REMARK    3  A    between atoms: C4_4  and  C7_9 
REMARK    4  A    between atoms: C5_5  and  O1_8 
REMARK    5  A    between atoms: C7_9  and  O2_10 
ROOT
ATOM      1  C2  <0> d           0.964   5.147   1.172  0.00  0.00     0.064 A 
ATOM      2  C3  <0> d           1.093   3.765   1.205  0.00  0.00     0.101 A 
ATOM      3  C4  <0> d           1.147   3.062   0.008  0.00  0.00     0.035 A 
ATOM      4  C5  <0> d           1.075   3.779  -1.182  0.00  0.00     0.094 A 
ATOM      5  C6  <0> d           0.943   5.159  -1.131  0.00  0.00     0.035 A 
ATOM      6  N1  <0> d           0.894   5.791   0.025  0.00  0.00    -0.260 NA
ATOM      7  H4  <0> d           0.883   5.723  -2.051  0.00  0.00     0.119 H 
ENDROOT
BRANCH   3   8
ATOM      8  C7  <0> d           1.286   1.562  -0.002  0.00  0.00     0.046 C 
ATOM      9  H6  <0> d           1.840   1.243   0.881  0.00  0.00     0.081 H 
ATOM     10  H7  <0> d           1.823   1.252  -0.899  0.00  0.00     0.081 H 
BRANCH   8  11
ATOM     11  O2  <0> d          -0.011   0.963   0.007  0.00  0.00    -0.396 OA
ATOM     12  H8  <0> d           0.002  -0.004   0.002  0.00  0.00     0.209 HD
ENDBRANCH   8  11
ENDBRANCH   3   8
BRANCH   2  13
ATOM     13  O3  <0> d           1.163   3.108   2.393  0.00  0.00    -0.358 OA
ATOM     14  H9  <0> d           2.063   2.999   2.729  0.00  0.00     0.217 HD
ENDBRANCH   2  13
BRANCH   4  15
ATOM     15  O1  <0> d           1.130   3.135  -2.378  0.00  0.00    -0.358 OA
ATOM     16  H5  <0> d           0.266   2.868  -2.720  0.00  0.00     0.217 HD
ENDBRANCH   4  15
BRANCH   1  17
ATOM     17  C1  <0> d           0.904   5.920   2.465  0.00  0.00    -0.033 C 
ATOM     18  H1  <0> d           1.912   6.201   2.767  0.00  0.00     0.035 H 
ATOM     19  H2  <0> d           0.303   6.818   2.322  0.00  0.00     0.035 H 
ATOM     20  H3  <0> d           0.452   5.299   3.238  0.00  0.00     0.035 H 
ENDBRANCH   1  17
TORSDOF 5
