REMARK  1 active torsions:
REMARK  status: ('A' for Active; 'I' for Inactive)
REMARK    1  A    between atoms: C7_7  and  O2_10 
ROOT
ATOM      1  C1  <0> d          -0.579   3.059   1.501  0.00  0.00    -0.058 C 
ATOM      2  C2  <0> d          -0.721   1.560   1.274  0.00  0.00    -0.041 C 
ATOM      3  C3  <0> d          -0.013   1.097   0.008  0.00  0.00     0.042 C 
ATOM      4  C4  <0> d          -0.739   1.572  -1.244  0.00  0.00    -0.041 C 
ATOM      5  C5  <0> d          -0.622   3.080  -1.430  0.00  0.00    -0.058 C 
ATOM      6  C6  <0> d           0.808   3.567  -1.240  0.00  0.00    -0.013 C 
ATOM      7  C7  <0> d           1.459   2.975   0.004  0.00  0.00     0.162 C 
ATOM      8  C8  <0> d           0.846   3.546   1.278  0.00  0.00    -0.013 C 
ATOM      9  O1  <0> d           1.338   1.553  -0.002  0.00  0.00    -0.350 OA
ATOM     10  H1  <0> d          -0.852   3.273   2.551  0.00  0.00     0.033 H 
ATOM     11  H2  <0> d          -1.281   3.615   0.884  0.00  0.00     0.033 H 
ATOM     12  H3  <0> d          -1.786   1.306   1.203  0.00  0.00     0.036 H 
ATOM     13  H4  <0> d          -0.308   1.022   2.135  0.00  0.00     0.036 H 
ATOM     14  H5  <0> d           0.002  -0.004   0.002  0.00  0.00     0.083 H 
ATOM     15  H6  <0> d          -0.315   1.067  -2.119  0.00  0.00     0.036 H 
ATOM     16  H7  <0> d          -1.796   1.295  -1.176  0.00  0.00     0.036 H 
ATOM     17  H8  <0> d          -1.303   3.605  -0.765  0.00  0.00     0.033 H 
ATOM     18  H9  <0> d          -0.936   3.326  -2.460  0.00  0.00     0.033 H 
ATOM     19  H10 <0> d           0.811   4.661  -1.160  0.00  0.00     0.041 H 
ATOM     20  H11 <0> d           1.403   3.295  -2.120  0.00  0.00     0.041 H 
ATOM     21  H12 <0> d           1.467   3.258   2.135  0.00  0.00     0.041 H 
ATOM     22  H13 <0> d           0.850   4.641   1.217  0.00  0.00     0.041 H 
ENDROOT
BRANCH   7  23
ATOM     23  O2  <0> d           2.859   3.303  -0.014  0.00  0.00    -0.365 OA
ATOM     24  H14 <0> d           3.354   2.958   0.742  0.00  0.00     0.213 HD
ENDBRANCH   7  23
TORSDOF 1
