REMARK  1 active torsions:
REMARK  status: ('A' for Active; 'I' for Inactive)
REMARK    1  A    between atoms: C4_4  and  C7_7 
ROOT
ATOM      1  C1  <0> d          -0.017   1.379   0.010  0.00  0.00    -0.083 A 
ATOM      2  C2  <0> d           1.169   2.092   0.002  0.00  0.00    -0.082 A 
ATOM      3  C3  <0> d           2.377   1.426  -0.013  0.00  0.00    -0.071 A 
ATOM      4  C4  <0> d           2.402   0.033  -0.021  0.00  0.00    -0.006 A 
ATOM      5  C5  <0> d           1.205  -0.680  -0.013  0.00  0.00    -0.071 A 
ATOM      6  C6  <0> d           0.002  -0.004   0.002  0.00  0.00    -0.082 A 
ATOM      7  H2  <0> d          -0.960   1.904   0.026  0.00  0.00     0.083 H 
ATOM      8  H3  <0> d           1.148   3.172   0.008  0.00  0.00     0.083 H 
ATOM      9  H4  <0> d           3.302   1.983  -0.019  0.00  0.00     0.084 H 
ATOM     10  H5  <0> d           1.219  -1.760  -0.019  0.00  0.00     0.084 H 
ATOM     11  H6  <0> d          -0.926  -0.556   0.008  0.00  0.00     0.083 H 
ENDROOT
BRANCH   4  12
ATOM     12  C7  <0> d           3.699  -0.689  -0.037  0.00  0.00     0.088 A 
ATOM     13  N2  <0> d           4.893  -0.136  -0.047  0.00  0.00    -0.175 NA
ATOM     14  N1  <0> d           5.848  -1.161  -0.058  0.00  0.00    -0.289 N 
ATOM     15  C9  <0> d           5.195  -2.343  -0.065  0.00  0.00    -0.002 A 
ATOM     16  H1  <0> d           6.810  -1.042  -0.064  0.00  0.00     0.188 HD
ATOM     17  C8  <0> d           3.869  -2.087  -0.052  0.00  0.00    -0.036 A 
ATOM     18  H8  <0> d           5.653  -3.321  -0.078  0.00  0.00     0.113 H 
ATOM     19  H7  <0> d           3.079  -2.824  -0.054  0.00  0.00     0.089 H 
ENDBRANCH   4  12
TORSDOF 1
