REMARK  1 active torsions:
REMARK  status: ('A' for Active; 'I' for Inactive)
REMARK    1  A    between atoms: C4_8  and  C5_9 
ROOT
ATOM      1  C5  <0> d          -1.296  -0.770   0.011  0.00  0.00    -0.010 C 
ATOM      2  C6  <0> d          -1.843  -1.038   1.423  0.00  0.00    -0.056 C 
ATOM      3  C7  <0> d          -2.236  -2.437   0.920  0.00  0.00    -0.064 C 
ATOM      4  C8  <0> d          -1.114  -2.291  -0.122  0.00  0.00    -0.056 C 
ATOM      5  H4  <0> d          -2.036  -0.357  -0.675  0.00  0.00     0.049 H 
ATOM      6  H5  <0> d          -1.074  -1.051   2.194  0.00  0.00     0.034 H 
ATOM      7  H6  <0> d          -2.697  -0.413   1.686  0.00  0.00     0.034 H 
ATOM      8  H7  <0> d          -2.057  -3.229   1.647  0.00  0.00     0.033 H 
ATOM      9  H8  <0> d          -3.234  -2.480   0.483  0.00  0.00     0.033 H 
ATOM     10  H9  <0> d          -1.379  -2.678  -1.106  0.00  0.00     0.034 H 
ATOM     11  H10 <0> d          -0.145  -2.647   0.227  0.00  0.00     0.034 H 
ENDROOT
BRANCH   1  12
ATOM     12  C4  <0> d           0.002  -0.004   0.002  0.00  0.00     0.059 A 
ATOM     13  C1  <0> d          -0.017   1.401   0.010  0.00  0.00    -0.052 A 
ATOM     14  C2  <0> d           1.177   2.065   0.002  0.00  0.00    -0.014 A 
ATOM     15  H2  <0> d          -0.952   1.942   0.026  0.00  0.00     0.086 H 
ATOM     16  C3  <0> d           2.359   1.294  -0.013  0.00  0.00     0.261 A 
ATOM     17  H3  <0> d           1.214   3.144   0.007  0.00  0.00     0.092 H 
ATOM     18  O1  <0> d           3.451   1.839  -0.021  0.00  0.00    -0.267 OA
ATOM     19  N1  <0> d           2.270  -0.050  -0.020  0.00  0.00    -0.243 N 
ATOM     20  H1  <0> d           3.084  -0.578  -0.030  0.00  0.00     0.192 HD
ATOM     21  N2  <0> d           1.135  -0.650  -0.012  0.00  0.00    -0.176 NA
ENDBRANCH   1  12
TORSDOF 1
