REMARK  3 active torsions:
REMARK  status: ('A' for Active; 'I' for Inactive)
REMARK    1  A    between atoms: C1_1  and  C2_2 
REMARK    2  A    between atoms: C3_3  and  C6_8 
REMARK    3  A    between atoms: N2_6  and  C5_7 
ROOT
ATOM      1  C6  <0> d          -0.006  -0.327  -2.527  0.00  0.00     0.042 C 
ATOM      2  C7  <0> d           1.371  -0.039  -2.963  0.00  0.00     0.063 C 
ATOM      3  N3  <0> d           2.433   0.182  -3.299  0.00  0.00    -0.197 NA
ATOM      4  H8  <0> d          -0.432  -1.105  -3.160  0.00  0.00     0.062 H 
ATOM      5  H9  <0> d          -0.609   0.578  -2.607  0.00  0.00     0.062 H 
ENDROOT
BRANCH   1   6
ATOM      6  C3  <0> d           0.008  -0.796  -1.095  0.00  0.00    -0.002 A 
ATOM      7  C2  <0> d           0.002  -0.004   0.002  0.00  0.00     0.035 A 
ATOM      8  N2  <0> d           0.024  -0.805   1.088  0.00  0.00    -0.278 N 
ATOM      9  N1  <0> d           0.035  -2.134   0.643  0.00  0.00    -0.185 NA
ATOM     10  C4  <0> d           0.028  -2.127  -0.666  0.00  0.00     0.031 A 
ATOM     11  H4  <0> d           0.037  -2.998  -1.304  0.00  0.00     0.118 H 
BRANCH   7  12
ATOM     12  C1  <0> d          -0.018   1.503   0.010  0.00  0.00    -0.035 C 
ATOM     13  H1  <0> d           1.004   1.880   0.003  0.00  0.00     0.035 H 
ATOM     14  H2  <0> d          -0.545   1.864  -0.873  0.00  0.00     0.035 H 
ATOM     15  H3  <0> d          -0.529   1.854   0.907  0.00  0.00     0.035 H 
ENDBRANCH   7  12
BRANCH   8  16
ATOM     16  C5  <0> d           0.031  -0.364   2.485  0.00  0.00     0.002 C 
ATOM     17  H5  <0> d          -0.995  -0.269   2.841  0.00  0.00     0.059 H 
ATOM     18  H6  <0> d           0.561  -1.096   3.094  0.00  0.00     0.059 H 
ATOM     19  H7  <0> d           0.532   0.601   2.558  0.00  0.00     0.059 H 
ENDBRANCH   8  16
ENDBRANCH   1   6
TORSDOF 3
