REMARK  3 active torsions:
REMARK  status: ('A' for Active; 'I' for Inactive)
REMARK    1  A    between atoms: C3_3  and  N1_4 
REMARK    2  A    between atoms: C4_5  and  N5_10 
REMARK    3  A    between atoms: C5_7  and  N4_9 
ROOT
ATOM      1  N1  <0> d          -0.367  -0.692   1.241  0.00  0.00    -0.079 N 
ATOM      2  C4  <0> d          -1.384  -1.564   1.409  0.00  0.00     0.733 A 
ATOM      3  N2  <0> d          -1.379  -1.957   2.665  0.00  0.00     0.130 NA
ATOM      4  C5  <0> d          -0.378  -1.358   3.320  0.00  0.00     0.753 A 
ATOM      5  N3  <0> d           0.270  -0.580   2.487  0.00  0.00     0.036 NA
ENDROOT
BRANCH   1   6
ATOM      6  C3  <0> d           0.002  -0.004   0.002  0.00  0.00     0.053 A 
ATOM      7  C1  <0> d          -0.019   1.526   0.010  0.00  0.00    -0.042 A 
ATOM      8  C2  <0> d           1.317   0.779  -0.006  0.00  0.00    -0.042 A 
ATOM      9  H1  <0> d          -0.307   2.020   0.938  0.00  0.00     0.036 H 
ATOM     10  H2  <0> d          -0.325   2.030  -0.906  0.00  0.00     0.036 H 
ATOM     11  H3  <0> d           1.889   0.792  -0.934  0.00  0.00     0.036 H 
ATOM     12  H4  <0> d           1.906   0.782   0.910  0.00  0.00     0.036 H 
ATOM     13  H5  <0> d          -0.290  -0.506  -0.920  0.00  0.00     0.076 H 
ENDBRANCH   1   6
BRANCH   2  14
ATOM     14  N5  <0> d          -2.275  -1.972   0.433  0.00  0.00    -0.231 N 
ATOM     15  H8  <0> d          -2.198  -1.624  -0.469  0.00  0.00     0.174 HD
ATOM     16  H9  <0> d          -2.976  -2.605   0.651  0.00  0.00     0.174 HD
ENDBRANCH   2  14
BRANCH   4  17
ATOM     17  N4  <0> d          -0.071  -1.536   4.670  0.00  0.00    -0.229 N 
ATOM     18  H6  <0> d          -0.604  -2.138   5.213  0.00  0.00     0.174 HD
ATOM     19  H7  <0> d           0.676  -1.059   5.064  0.00  0.00     0.174 HD
ENDBRANCH   4  17
TORSDOF 3
