REMARK  6 active torsions:
REMARK  status: ('A' for Active; 'I' for Inactive)
REMARK    1  A    between atoms: C1_1  and  C2_2 
REMARK    2  A    between atoms: C2_2  and  C3_3 
REMARK    3  A    between atoms: C3_3  and  C4_4 
REMARK       I    between atoms: C4_4  and  N1_6 
REMARK    4  A    between atoms: N1_6  and  C5_7 
REMARK    5  A    between atoms: C5_7  and  C6_9 
REMARK    6  A    between atoms: C5_7  and  C7_10 
ROOT
ATOM      1  C4  <0> d          -0.742   1.585  -1.213  0.00  0.00     0.218 C 
ATOM      2  O1  <0> d          -1.736   2.268  -1.088  0.00  0.00    -0.274 OA
ATOM      3  N1  <0> d          -0.288   1.272  -2.443  0.00  0.00    -0.347 N 
ATOM      4  H9  <0> d           0.507   0.726  -2.543  0.00  0.00     0.163 HD
ENDROOT
BRANCH   1   5
ATOM      5  C3  <0> d          -0.013   1.086   0.008  0.00  0.00     0.009 C 
ATOM      6  H7  <0> d           0.002  -0.004   0.002  0.00  0.00     0.047 H 
ATOM      7  H8  <0> d           1.010   1.463   0.000  0.00  0.00     0.047 H 
BRANCH   5   8
ATOM      8  C2  <0> d          -0.729   1.579   1.267  0.00  0.00    -0.061 C 
ATOM      9  H5  <0> d          -0.744   2.669   1.273  0.00  0.00     0.033 H 
ATOM     10  H6  <0> d          -1.751   1.202   1.275  0.00  0.00     0.033 H 
BRANCH   8  11
ATOM     11  C1  <0> d           0.011   1.072   2.506  0.00  0.00    -0.076 C 
ATOM     12  H2  <0> d           0.026  -0.018   2.500  0.00  0.00     0.027 H 
ATOM     13  H3  <0> d           1.034   1.450   2.499  0.00  0.00     0.027 H 
ATOM     14  H4  <0> d          -0.499   1.424   3.403  0.00  0.00     0.027 H 
ENDBRANCH   8  11
ENDBRANCH   5   8
ENDBRANCH   1   5
BRANCH   3  15
ATOM     15  C5  <0> d          -0.997   1.758  -3.630  0.00  0.00     0.092 C 
ATOM     16  H1  <0> d          -2.068   1.779  -3.430  0.00  0.00     0.089 H 
BRANCH  15  17
ATOM     17  C6  <0> d          -0.514   3.169  -3.971  0.00  0.00    -0.048 C 
ATOM     18  H10 <0> d           0.557   3.148  -4.170  0.00  0.00     0.030 H 
ATOM     19  H11 <0> d          -1.041   3.530  -4.854  0.00  0.00     0.030 H 
ATOM     20  H12 <0> d          -0.714   3.834  -3.131  0.00  0.00     0.030 H 
ENDBRANCH  15  17
BRANCH  15  21
ATOM     21  C7  <0> d          -0.721   0.838  -4.791  0.00  0.00     0.196 C 
ATOM     22  O2  <0> d          -0.005  -0.124  -4.643  0.00  0.00    -0.646 OA
ATOM     23  O3  <0> d          -1.269   1.087  -5.990  0.00  0.00    -0.646 OA
ENDBRANCH  15  21
ENDBRANCH   3  15
TORSDOF 6
