REMARK  1 active torsions:
REMARK  status: ('A' for Active; 'I' for Inactive)
REMARK    1  A    between atoms: C1_1  and  N1_2 
ROOT
ATOM      1  N1  <0> d          -1.195   1.859   0.018  0.00  0.00    -0.268 N 
ATOM      2  C2  <0> d          -1.226   3.207   0.031  0.00  0.00     0.270 A 
ATOM      3  O1  <0> d          -2.289   3.800   0.044  0.00  0.00    -0.266 OA
ATOM      4  C3  <0> d           0.037   3.951   0.023  0.00  0.00     0.087 A 
ATOM      5  N2  <0> d           1.161   3.290   0.009  0.00  0.00    -0.178 NA
ATOM      6  N3  <0> d           1.147   1.890   0.001  0.00  0.00    -0.228 N 
ATOM      7  H1  <0> d           2.011   1.388  -0.010  0.00  0.00     0.194 HD
ATOM      8  C4  <0> d          -0.014   1.212   0.009  0.00  0.00     0.345 A 
ATOM      9  O2  <0> d           0.002  -0.004   0.002  0.00  0.00    -0.245 OA
ATOM     10  H5  <0> d           0.037   5.031   0.029  0.00  0.00     0.126 H 
ENDROOT
BRANCH   1  11
ATOM     11  C1  <0> d          -2.447   1.098   0.019  0.00  0.00    -0.007 C 
ATOM     12  H2  <0> d          -2.753   0.903   1.047  0.00  0.00     0.057 H 
ATOM     13  H3  <0> d          -3.222   1.673  -0.488  0.00  0.00     0.057 H 
ATOM     14  H4  <0> d          -2.297   0.151  -0.501  0.00  0.00     0.057 H 
ENDBRANCH   1  11
TORSDOF 1
