REMARK  3 active torsions:
REMARK  status: ('A' for Active; 'I' for Inactive)
REMARK    1  A    between atoms: C1_1  and  O1_2 
REMARK    2  A    between atoms: O1_2  and  C2_3 
REMARK    3  A    between atoms: C7_9  and  O2_11 
ROOT
ATOM      1  C2  <0> d          -1.490   3.616   0.036  0.00  0.00     0.062 C 
ATOM      2  H1  <0> d          -2.512   3.239   0.043  0.00  0.00     0.087 H 
ATOM      3  C3  <0> d          -0.773   3.123  -1.223  0.00  0.00    -0.038 C 
ATOM      4  C4  <0> d          -0.753   1.593  -1.232  0.00  0.00    -0.063 C 
ATOM      5  C5  <0> d          -0.013   1.086   0.008  0.00  0.00    -0.063 C 
ATOM      6  C6  <0> d          -0.729   1.579   1.267  0.00  0.00    -0.039 C 
ATOM      7  C7  <0> d          -0.750   3.109   1.275  0.00  0.00     0.060 C 
ATOM      8  H2  <0> d           0.273   3.486   1.268  0.00  0.00     0.086 H 
ATOM      9  H6  <0> d           0.249   3.500  -1.231  0.00  0.00     0.036 H 
ATOM     10  H7  <0> d          -1.301   3.484  -2.106  0.00  0.00     0.036 H 
ATOM     11  H8  <0> d          -0.242   1.241  -2.128  0.00  0.00     0.033 H 
ATOM     12  H9  <0> d          -1.775   1.215  -1.224  0.00  0.00     0.033 H 
ATOM     13  H10 <0> d           0.002  -0.004   0.002  0.00  0.00     0.033 H 
ATOM     14  H11 <0> d           1.010   1.463   0.000  0.00  0.00     0.033 H 
ATOM     15  H12 <0> d          -1.751   1.202   1.275  0.00  0.00     0.036 H 
ATOM     16  H13 <0> d          -0.202   1.218   2.150  0.00  0.00     0.036 H 
ENDROOT
BRANCH   1  17
ATOM     17  O1  <0> d          -1.509   5.045   0.044  0.00  0.00    -0.388 OA
BRANCH  17  18
ATOM     18  C1  <0> d          -2.654   5.614  -0.595  0.00  0.00     0.005 C 
ATOM     19  H3  <0> d          -2.593   6.701  -0.547  0.00  0.00     0.066 H 
ATOM     20  H4  <0> d          -2.683   5.298  -1.638  0.00  0.00     0.066 H 
ATOM     21  H5  <0> d          -3.558   5.277  -0.088  0.00  0.00     0.066 H 
ENDBRANCH  17  18
ENDBRANCH   1  17
BRANCH   7  22
ATOM     22  O2  <0> d          -1.419   3.570   2.451  0.00  0.00    -0.393 OA
ATOM     23  H14 <0> d          -1.003   3.286   3.277  0.00  0.00     0.210 HD
ENDBRANCH   7  22
TORSDOF 3
