REMARK  6 active torsions:
REMARK  status: ('A' for Active; 'I' for Inactive)
REMARK    1  A    between atoms: C1_1  and  C2_2 
REMARK    2  A    between atoms: C3_4  and  C7_11 
REMARK    3  A    between atoms: C6_8  and  O1_10 
REMARK    4  A    between atoms: C7_11  and  C8_12 
REMARK    5  A    between atoms: C7_11  and  C9_13 
REMARK    6  A    between atoms: C7_11  and  C10_14 
ROOT
ATOM      1  C2  <0> d           0.163   2.280  -0.391  0.00  0.00    -0.029 C 
ATOM      2  H1  <0> d          -0.823   2.601  -0.023  0.00  0.00     0.043 H 
ATOM      3  C3  <0> d           0.047   1.065  -1.334  0.00  0.00    -0.042 C 
ATOM      4  H2  <0> d          -0.882   0.496  -1.181  0.00  0.00     0.041 H 
ATOM      5  C4  <0> d           1.321   0.234  -1.042  0.00  0.00    -0.058 C 
ATOM      6  C5  <0> d           1.492   0.389   0.489  0.00  0.00    -0.040 C 
ATOM      7  C6  <0> d           1.079   1.851   0.769  0.00  0.00     0.039 C 
ATOM      8  H3  <0> d           0.614   1.992   1.756  0.00  0.00     0.083 H 
ATOM      9  H7  <0> d           1.156  -0.809  -1.347  0.00  0.00     0.033 H 
ATOM     10  H8  <0> d           2.168   0.652  -1.607  0.00  0.00     0.033 H 
ATOM     11  H9  <0> d           0.840  -0.331   1.005  0.00  0.00     0.036 H 
ATOM     12  H10 <0> d           2.540   0.195   0.763  0.00  0.00     0.036 H 
ENDROOT
BRANCH   3  13
ATOM     13  C7  <0> d           0.027   1.521  -2.794  0.00  0.00    -0.047 C 
BRANCH  13  14
ATOM     14  C8  <0> d          -0.109   0.301  -3.708  0.00  0.00    -0.069 C 
ATOM     15  H12 <0> d          -0.123   0.628  -4.758  0.00  0.00     0.028 H 
ATOM     16  H13 <0> d          -1.046  -0.228  -3.476  0.00  0.00     0.028 H 
ATOM     17  H14 <0> d           0.743  -0.376  -3.546  0.00  0.00     0.028 H 
ENDBRANCH  13  14
BRANCH  13  18
ATOM     18  C9  <0> d          -1.159   2.461  -3.019  0.00  0.00    -0.069 C 
ATOM     19  H15 <0> d          -1.173   2.788  -4.069  0.00  0.00     0.028 H 
ATOM     20  H16 <0> d          -1.061   3.338  -2.363  0.00  0.00     0.028 H 
ATOM     21  H17 <0> d          -2.095   1.932  -2.788  0.00  0.00     0.028 H 
ENDBRANCH  13  18
BRANCH  13  22
ATOM     22  C10 <0> d           1.329   2.256  -3.117  0.00  0.00    -0.069 C 
ATOM     23  H18 <0> d           1.315   2.584  -4.167  0.00  0.00     0.028 H 
ATOM     24  H19 <0> d           2.182   1.580  -2.955  0.00  0.00     0.028 H 
ATOM     25  H20 <0> d           1.427   3.133  -2.461  0.00  0.00     0.028 H 
ENDBRANCH  13  22
ENDBRANCH   3  13
BRANCH   1  26
ATOM     26  C1  <0> d           0.782   3.465  -1.136  0.00  0.00    -0.070 C 
ATOM     27  H4  <0> d           0.121   3.764  -1.962  0.00  0.00     0.028 H 
ATOM     28  H5  <0> d           1.763   3.172  -1.539  0.00  0.00     0.028 H 
ATOM     29  H6  <0> d           0.908   4.309  -0.443  0.00  0.00     0.028 H 
ENDBRANCH   1  26
BRANCH   7  30
ATOM     30  O1  <0> d           2.240   2.683   0.810  0.00  0.00    -0.395 OA
ATOM     31  H11 <0> d           3.008   2.518   1.581  0.00  0.00     0.210 HD
ENDBRANCH   7  30
TORSDOF 6
