REMARK  2 active torsions:
REMARK  status: ('A' for Active; 'I' for Inactive)
REMARK    1  A    between atoms: C3_3  and  C7_9 
REMARK    2  A    between atoms: C4_4  and  N1_8 
REMARK       I    between atoms: C7_9  and  N2_11 
ROOT
ATOM      1  C1  <0> d          -0.073   1.273   0.033  0.00  0.00    -0.045 A 
ATOM      2  C2  <0> d           1.037   2.088   0.006  0.00  0.00    -0.063 A 
ATOM      3  C3  <0> d           2.315   1.524  -0.032  0.00  0.00     0.058 A 
ATOM      4  C4  <0> d           2.458   0.127  -0.044  0.00  0.00     0.044 A 
ATOM      5  C5  <0> d           1.329  -0.679  -0.017  0.00  0.00    -0.019 A 
ATOM      6  C6  <0> d           0.071  -0.108   0.021  0.00  0.00     0.118 A 
ATOM      7  F1  <0> d          -1.025  -0.897   0.048  0.00  0.00    -0.206 F 
ATOM      8  H1  <0> d          -1.060   1.711   0.067  0.00  0.00     0.088 H 
ATOM      9  H2  <0> d           0.919   3.161   0.015  0.00  0.00     0.085 H 
ATOM     10  H3  <0> d           1.434  -1.754  -0.026  0.00  0.00     0.091 H 
ENDROOT
BRANCH   3  11
ATOM     11  C7  <0> d           3.506   2.391  -0.061  0.00  0.00     0.251 C 
ATOM     12  O1  <0> d           4.617   1.901   0.014  0.00  0.00    -0.268 OA
ATOM     13  N2  <0> d           3.365   3.727  -0.171  0.00  0.00    -0.366 N 
ATOM     14  H6  <0> d           2.479   4.118  -0.231  0.00  0.00     0.159 HD
ATOM     15  H7  <0> d           4.149   4.298  -0.190  0.00  0.00     0.159 HD
ENDBRANCH   3  11
BRANCH   4  16
ATOM     16  N1  <0> d           3.724  -0.444  -0.083  0.00  0.00    -0.398 N 
ATOM     17  H4  <0> d           4.512   0.118  -0.021  0.00  0.00     0.156 HD
ATOM     18  H5  <0> d           3.819  -1.405  -0.172  0.00  0.00     0.156 HD
ENDBRANCH   4  16
TORSDOF 2
