REMARK  3 active torsions:
REMARK  status: ('A' for Active; 'I' for Inactive)
REMARK    1  A    between atoms: C3_3  and  C6_8 
REMARK    2  A    between atoms: C4_5  and  N2_7 
REMARK    3  A    between atoms: C6_8  and  O1_9 
ROOT
ATOM      1  C1  <0> d          -0.017   1.379   0.010  0.00  0.00    -0.077 A 
ATOM      2  C2  <0> d           1.195   2.058   0.002  0.00  0.00    -0.057 A 
ATOM      3  C3  <0> d           2.373   1.339  -0.013  0.00  0.00     0.060 A 
ATOM      4  N1  <0> d           2.361   0.020  -0.020  0.00  0.00    -0.234 NA
ATOM      5  C4  <0> d           1.227  -0.664  -0.013  0.00  0.00     0.121 A 
ATOM      6  C5  <0> d           0.002  -0.004   0.002  0.00  0.00    -0.039 A 
ATOM      7  H1  <0> d          -0.952   1.918   0.026  0.00  0.00     0.083 H 
ATOM      8  H2  <0> d           1.214   3.138   0.007  0.00  0.00     0.086 H 
ATOM      9  H3  <0> d          -0.921  -0.564   0.008  0.00  0.00     0.089 H 
ENDROOT
BRANCH   3  10
ATOM     10  C6  <0> d           3.690   2.071  -0.023  0.00  0.00     0.056 C 
ATOM     11  H6  <0> d           4.266   1.794   0.861  0.00  0.00     0.083 H 
ATOM     12  H7  <0> d           4.249   1.803  -0.919  0.00  0.00     0.083 H 
BRANCH  10  13
ATOM     13  O1  <0> d           3.453   3.480  -0.013  0.00  0.00    -0.395 OA
ATOM     14  H8  <0> d           4.258   4.015  -0.018  0.00  0.00     0.209 HD
ENDBRANCH  10  13
ENDBRANCH   3  10
BRANCH   5  15
ATOM     15  N2  <0> d           1.260  -2.054  -0.021  0.00  0.00    -0.384 N 
ATOM     16  H4  <0> d           2.112  -2.518  -0.032  0.00  0.00     0.157 HD
ATOM     17  H5  <0> d           0.432  -2.559  -0.016  0.00  0.00     0.157 HD
ENDBRANCH   5  15
TORSDOF 3
