REMARK  5 active torsions:
REMARK  status: ('A' for Active; 'I' for Inactive)
REMARK    1  A    between atoms: C1_1  and  C2_2 
REMARK    2  A    between atoms: C2_2  and  C3_3 
REMARK    3  A    between atoms: C3_3  and  C4_4 
REMARK    4  A    between atoms: C7_7  and  O1_10 
REMARK    5  A    between atoms: O1_10  and  C10_11 
ROOT
ATOM      1  C4  <0> d           1.208  -0.680  -0.013  0.00  0.00    -0.058 A 
ATOM      2  C5  <0> d           0.002  -0.004   0.002  0.00  0.00    -0.074 A 
ATOM      3  C6  <0> d          -0.017   1.377   0.010  0.00  0.00    -0.050 A 
ATOM      4  C7  <0> d           1.176   2.086   0.002  0.00  0.00     0.068 A 
ATOM      5  C8  <0> d           2.385   1.405  -0.013  0.00  0.00    -0.050 A 
ATOM      6  C9  <0> d           2.398   0.024  -0.021  0.00  0.00    -0.074 A 
ATOM      7  H8  <0> d          -0.926  -0.556   0.008  0.00  0.00     0.084 H 
ATOM      8  H9  <0> d          -0.959   1.905   0.017  0.00  0.00     0.087 H 
ATOM      9  H10 <0> d           3.314   1.955  -0.019  0.00  0.00     0.087 H 
ATOM     10  H11 <0> d           3.339  -0.506  -0.033  0.00  0.00     0.084 H 
ENDROOT
BRANCH   1  11
ATOM     11  C3  <0> d           1.226  -2.187  -0.021  0.00  0.00    -0.041 C 
ATOM     12  H6  <0> d           2.125  -2.543   0.482  0.00  0.00     0.040 H 
ATOM     13  H7  <0> d           0.345  -2.563   0.500  0.00  0.00     0.040 H 
BRANCH  11  14
ATOM     14  C2  <0> d           1.217  -2.690  -1.466  0.00  0.00    -0.065 C 
ATOM     15  H4  <0> d           0.318  -2.334  -1.969  0.00  0.00     0.032 H 
ATOM     16  H5  <0> d           2.098  -2.313  -1.986  0.00  0.00     0.032 H 
BRANCH  14  17
ATOM     17  C1  <0> d           1.235  -4.220  -1.474  0.00  0.00    -0.076 C 
ATOM     18  H1  <0> d           1.229  -4.578  -2.503  0.00  0.00     0.027 H 
ATOM     19  H2  <0> d           2.134  -4.575  -0.971  0.00  0.00     0.027 H 
ATOM     20  H3  <0> d           0.355  -4.596  -0.953  0.00  0.00     0.027 H 
ENDBRANCH  14  17
ENDBRANCH  11  14
ENDBRANCH   1  11
BRANCH   4  21
ATOM     21  O1  <0> d           1.160   3.445   0.009  0.00  0.00    -0.356 OA
BRANCH  21  22
ATOM     22  C10 <0> d           2.426   4.108   0.001  0.00  0.00     0.010 C 
ATOM     23  H12 <0> d           2.270   5.187   0.007  0.00  0.00     0.066 H 
ATOM     24  H13 <0> d           2.994   3.818   0.884  0.00  0.00     0.066 H 
ATOM     25  H14 <0> d           2.978   3.827  -0.896  0.00  0.00     0.066 H 
ENDBRANCH  21  22
ENDBRANCH   4  21
TORSDOF 5
