REMARK  5 active torsions:
REMARK  status: ('A' for Active; 'I' for Inactive)
REMARK    1  A    between atoms: C1_1  and  S1_2 
REMARK    2  A    between atoms: S1_2  and  N1_5 
REMARK    3  A    between atoms: N1_5  and  C2_6 
REMARK    4  A    between atoms: C2_6  and  C3_7 
REMARK    5  A    between atoms: C3_7  and  O3_8 
ROOT
ATOM      1  N1  <0> d           0.530   3.511   1.268  0.00  0.00    -0.318 N 
ATOM      2  H4  <0> d          -0.108   2.814   1.831  0.00  0.00     0.172 HD
ENDROOT
BRANCH   1   3
ATOM      3  S1  <0> d           0.589   5.102   1.722  0.00  0.00     0.222 S 
ATOM      4  O1  <0> d          -0.070   5.145   2.980  0.00  0.00    -0.206 OA
ATOM      5  O2  <0> d           1.960   5.461   1.609  0.00  0.00    -0.206 OA
BRANCH   3   6
ATOM      6  C1  <0> d          -0.391   5.980   0.472  0.00  0.00     0.032 C 
ATOM      7  H1  <0> d           0.129   5.940  -0.496  0.00  0.00     0.051 H 
ATOM      8  H2  <0> d          -0.518   7.029   0.777  0.00  0.00     0.051 H 
ATOM      9  H3  <0> d          -1.377   5.503   0.379  0.00  0.00     0.051 H 
ENDBRANCH   3   6
ENDBRANCH   1   3
BRANCH   1  10
ATOM     10  C2  <0> d           1.145   3.085   0.008  0.00  0.00     0.022 C 
ATOM     11  H5  <0> d           0.511   3.400  -0.834  0.00  0.00     0.068 H 
ATOM     12  H6  <0> d           2.139   3.546  -0.090  0.00  0.00     0.068 H 
BRANCH  10  13
ATOM     13  C3  <0> d           1.286   1.562  -0.002  0.00  0.00     0.032 C 
ATOM     14  H7  <0> d           1.828   1.250  -0.907  0.00  0.00     0.076 H 
ATOM     15  H8  <0> d           1.845   1.240   0.889  0.00  0.00     0.076 H 
BRANCH  13  16
ATOM     16  O3  <0> d          -0.011   0.963   0.007  0.00  0.00    -0.399 OA
ATOM     17  H9  <0> d          -0.111  -0.133   0.002  0.00  0.00     0.209 HD
ENDBRANCH  13  16
ENDBRANCH  10  13
ENDBRANCH   1  10
TORSDOF 5
