REMARK  1 active torsions:
REMARK  status: ('A' for Active; 'I' for Inactive)
REMARK    1  A    between atoms: C1_1  and  C2_2 
REMARK       I    between atoms: C2_2  and  N1_4 
ROOT
ATOM      1  C2  <0> d           0.002  -0.004   0.002  0.00  0.00     0.224 C 
ATOM      2  O1  <0> d           1.056  -0.594  -0.011  0.00  0.00    -0.273 OA
ATOM      3  N1  <0> d          -1.156  -0.694   0.009  0.00  0.00    -0.286 N 
ATOM      4  C3  <0> d          -1.294  -2.063   0.009  0.00  0.00     0.006 A 
ATOM      5  C4  <0> d          -2.614  -2.320   0.018  0.00  0.00     0.019 A 
ATOM      6  N2  <0> d          -3.272  -1.149   0.024  0.00  0.00    -0.254 NA
ATOM      7  C5  <0> d          -2.415  -0.168   0.025  0.00  0.00     0.072 A 
ATOM      8  H4  <0> d          -0.496  -2.791   0.002  0.00  0.00     0.114 H 
ATOM      9  H5  <0> d          -3.067  -3.300   0.020  0.00  0.00     0.117 H 
ATOM     10  H6  <0> d          -2.659   0.884   0.034  0.00  0.00     0.144 H 
ENDROOT
BRANCH   1  11
ATOM     11  C1  <0> d          -0.018   1.503   0.010  0.00  0.00    -0.002 C 
ATOM     12  H1  <0> d           1.004   1.880   0.003  0.00  0.00     0.040 H 
ATOM     13  H2  <0> d          -0.545   1.864  -0.873  0.00  0.00     0.040 H 
ATOM     14  H3  <0> d          -0.529   1.854   0.907  0.00  0.00     0.040 H 
ENDBRANCH   1  11
TORSDOF 1
