REMARK  2 active torsions:
REMARK  status: ('A' for Active; 'I' for Inactive)
REMARK    1  A    between atoms: C3_3  and  C5_7 
REMARK    2  A    between atoms: C5_7  and  C6_8 
ROOT
ATOM      1  C1  <0> d          -1.019   0.833   3.567  0.00  0.00    -0.043 C 
ATOM      2  C2  <0> d           0.070   1.185   2.529  0.00  0.00    -0.038 C 
ATOM      3  C3  <0> d          -0.729   1.579   1.267  0.00  0.00     0.047 C 
ATOM      4  H1  <0> d          -0.865   2.660   1.226  0.00  0.00     0.084 H 
ATOM      5  O1  <0> d          -2.003   0.915   1.414  0.00  0.00    -0.385 OA
ATOM      6  C4  <0> d          -2.346   1.055   2.809  0.00  0.00     0.020 C 
ATOM      7  H2  <0> d          -0.927  -0.208   3.879  0.00  0.00     0.036 H 
ATOM      8  H3  <0> d          -0.955   1.498   4.429  0.00  0.00     0.036 H 
ATOM      9  H4  <0> d           0.700   0.319   2.328  0.00  0.00     0.036 H 
ATOM     10  H5  <0> d           0.672   2.024   2.877  0.00  0.00     0.036 H 
ATOM     11  H6  <0> d          -3.079   0.301   3.098  0.00  0.00     0.074 H 
ATOM     12  H7  <0> d          -2.734   2.055   3.008  0.00  0.00     0.074 H 
ENDROOT
BRANCH   3  13
ATOM     13  C5  <0> d          -0.013   1.086   0.008  0.00  0.00     0.040 C 
ATOM     14  H8  <0> d           0.002  -0.004   0.002  0.00  0.00     0.052 H 
ATOM     15  H9  <0> d           1.010   1.463   0.000  0.00  0.00     0.052 H 
BRANCH  13  16
ATOM     16  C6  <0> d          -0.742   1.585  -1.213  0.00  0.00     0.175 C 
ATOM     17  O2  <0> d          -1.732   2.266  -1.089  0.00  0.00    -0.648 OA
ATOM     18  O3  <0> d          -0.290   1.274  -2.438  0.00  0.00    -0.648 OA
ENDBRANCH  13  16
ENDBRANCH   3  13
TORSDOF 2
