REMARK  4 active torsions:
REMARK  status: ('A' for Active; 'I' for Inactive)
REMARK    1  A    between atoms: C1_1  and  C2_2 
REMARK    2  A    between atoms: C2_2  and  C8_10 
REMARK    3  A    between atoms: C5_6  and  C6_8 
REMARK    4  A    between atoms: C5_6  and  C7_9 
ROOT
ATOM      1  C2  <0> d           0.241   0.523   0.249  0.00  0.00     0.062 C 
ATOM      2  C3  <0> d           0.954   1.833  -0.174  0.00  0.00     0.021 C 
ATOM      3  C4  <0> d           2.340   1.336  -0.569  0.00  0.00     0.163 C 
ATOM      4  O1  <0> d           3.360   1.978  -0.637  0.00  0.00    -0.295 OA
ATOM      5  C5  <0> d           2.155  -0.141  -0.860  0.00  0.00     0.115 C 
ATOM      6  O2  <0> d           0.762  -0.448  -0.685  0.00  0.00    -0.363 OA
ATOM      7  H4  <0> d           0.450   2.259  -0.925  0.00  0.00     0.049 H 
ATOM      8  H5  <0> d           1.016   2.528   0.664  0.00  0.00     0.049 H 
ENDROOT
BRANCH   1   9
ATOM      9  C1  <0> d           0.611   0.145   1.685  0.00  0.00    -0.048 C 
ATOM     10  H1  <0> d           0.073   0.789   2.380  0.00  0.00     0.031 H 
ATOM     11  H2  <0> d           0.341  -0.894   1.868  0.00  0.00     0.031 H 
ATOM     12  H3  <0> d           1.684   0.273   1.829  0.00  0.00     0.031 H 
ENDBRANCH   1   9
BRANCH   1  13
ATOM     13  C8  <0> d          -1.275   0.660   0.098  0.00  0.00    -0.048 C 
ATOM     14  H12 <0> d          -1.519   0.874  -0.943  0.00  0.00     0.031 H 
ATOM     15  H13 <0> d          -1.756  -0.270   0.400  0.00  0.00     0.031 H 
ATOM     16  H14 <0> d          -1.631   1.474   0.729  0.00  0.00     0.031 H 
ENDBRANCH   1  13
BRANCH   5  17
ATOM     17  C6  <0> d           2.995  -0.970   0.114  0.00  0.00    -0.041 C 
ATOM     18  H6  <0> d           2.729  -2.022   0.018  0.00  0.00     0.032 H 
ATOM     19  H7  <0> d           4.053  -0.840  -0.117  0.00  0.00     0.032 H 
ATOM     20  H8  <0> d           2.803  -0.638   1.134  0.00  0.00     0.032 H 
ENDBRANCH   5  17
BRANCH   5  21
ATOM     21  C7  <0> d           2.577  -0.443  -2.299  0.00  0.00    -0.041 C 
ATOM     22  H9  <0> d           1.967   0.143  -2.987  0.00  0.00     0.032 H 
ATOM     23  H10 <0> d           3.627  -0.183  -2.432  0.00  0.00     0.032 H 
ATOM     24  H11 <0> d           2.436  -1.504  -2.503  0.00  0.00     0.032 H 
ENDBRANCH   5  21
TORSDOF 4
