REMARK  2 active torsions:
REMARK  status: ('A' for Active; 'I' for Inactive)
REMARK    1  A    between atoms: C1_1  and  C2_2 
REMARK    2  A    between atoms: C2_2  and  O1_11 
ROOT
ATOM      1  C2  <0> d           1.923  -2.012  -0.027  0.00  0.00     0.088 A 
ATOM      2  C3  <0> d           3.230  -1.232  -0.035  0.00  0.00    -0.008 A 
ATOM      3  C4  <0> d           2.397   0.022  -0.021  0.00  0.00    -0.043 A 
ATOM      4  C5  <0> d           1.214  -0.683  -0.013  0.00  0.00     0.021 A 
ATOM      5  C6  <0> d           0.002  -0.004   0.002  0.00  0.00     0.126 A 
ATOM      6  C7  <0> d          -0.017   1.379   0.010  0.00  0.00    -0.045 A 
ATOM      7  C8  <0> d           1.171   2.085   0.002  0.00  0.00    -0.080 A 
ATOM      8  C9  <0> d           2.376   1.410  -0.013  0.00  0.00    -0.076 A 
ATOM      9  F1  <0> d          -1.159  -0.695   0.009  0.00  0.00    -0.205 F 
ATOM     10  H4  <0> d           3.809  -1.360  -0.950  0.00  0.00     0.045 H 
ATOM     11  H5  <0> d           3.827  -1.369   0.866  0.00  0.00     0.045 H 
ATOM     12  H6  <0> d          -0.959   1.907   0.017  0.00  0.00     0.088 H 
ATOM     13  H7  <0> d           1.157   3.165   0.008  0.00  0.00     0.083 H 
ATOM     14  H8  <0> d           3.303   1.963  -0.019  0.00  0.00     0.084 H 
ENDROOT
BRANCH   1  15
ATOM     15  C1  <0> d           1.684  -2.820  -1.304  0.00  0.00    -0.043 C 
ATOM     16  H1  <0> d           1.705  -2.152  -2.166  0.00  0.00     0.032 H 
ATOM     17  H2  <0> d           2.464  -3.574  -1.409  0.00  0.00     0.032 H 
ATOM     18  H3  <0> d           0.711  -3.309  -1.248  0.00  0.00     0.032 H 
ENDBRANCH   1  15
BRANCH   1  19
ATOM     19  O1  <0> d           1.722  -2.779   1.162  0.00  0.00    -0.385 OA
ATOM     20  H9  <0> d           0.874  -3.243   1.192  0.00  0.00     0.211 HD
ENDBRANCH   1  19
TORSDOF 2
