REMARK  2 active torsions:
REMARK  status: ('A' for Active; 'I' for Inactive)
REMARK       I    between atoms: N1_4  and  C5_6 
REMARK    1  A    between atoms: C5_6  and  C6_8 
REMARK    2  A    between atoms: C6_8  and  O2_9 
ROOT
ATOM      1  C1  <0> d          -2.870   3.618   0.064  0.00  0.00    -0.049 C 
ATOM      2  C2  <0> d          -3.462   2.306   0.644  0.00  0.00    -0.049 C 
ATOM      3  C3  <0> d          -2.525   1.240   0.021  0.00  0.00    -0.002 C 
ATOM      4  N1  <0> d          -1.191   1.867   0.018  0.00  0.00    -0.350 N 
ATOM      5  C4  <0> d          -1.355   3.328   0.033  0.00  0.00    -0.002 C 
ATOM      6  C5  <0> d          -0.014   1.209   0.009  0.00  0.00     0.243 C 
ATOM      7  O1  <0> d           0.002  -0.004   0.002  0.00  0.00    -0.271 OA
ATOM      8  H1  <0> d          -3.252   3.802  -0.940  0.00  0.00     0.035 H 
ATOM      9  H2  <0> d          -3.086   4.461   0.720  0.00  0.00     0.035 H 
ATOM     10  H3  <0> d          -4.491   2.162   0.315  0.00  0.00     0.035 H 
ATOM     11  H4  <0> d          -3.396   2.295   1.732  0.00  0.00     0.035 H 
ATOM     12  H5  <0> d          -2.838   1.010  -0.998  0.00  0.00     0.064 H 
ATOM     13  H6  <0> d          -2.519   0.337   0.631  0.00  0.00     0.064 H 
ATOM     14  H7  <0> d          -0.877   3.745   0.919  0.00  0.00     0.064 H 
ATOM     15  H8  <0> d          -0.915   3.759  -0.866  0.00  0.00     0.064 H 
ENDROOT
BRANCH   6  16
ATOM     16  C6  <0> d           1.280   1.980   0.001  0.00  0.00     0.090 C 
ATOM     17  H9  <0> d           1.321   2.612  -0.887  0.00  0.00     0.088 H 
ATOM     18  H10 <0> d           1.338   2.602   0.893  0.00  0.00     0.088 H 
BRANCH  16  19
ATOM     19  O2  <0> d           2.379   1.066  -0.015  0.00  0.00    -0.392 OA
ATOM     20  H11 <0> d           3.246   1.494  -0.021  0.00  0.00     0.210 HD
ENDBRANCH  16  19
ENDBRANCH   6  16
TORSDOF 2
