REMARK  0 active torsions:
REMARK  status: ('A' for Active; 'I' for Inactive)
ROOT
ATOM      1  C1  <0> d          -2.636   1.353   0.022  0.00  0.00    -0.055 A 
ATOM      2  C2  <0> d          -3.365   2.481   0.032  0.00  0.00    -0.022 A 
ATOM      3  N1  <0> d          -2.538   3.572   0.045  0.00  0.00    -0.365 N 
ATOM      4  H1  <0> d          -2.834   4.495   0.054  0.00  0.00     0.165 HD
ATOM      5  C3  <0> d          -1.229   3.165   0.031  0.00  0.00     0.045 A 
ATOM      6  C4  <0> d          -1.229   1.754   0.017  0.00  0.00     0.009 A 
ATOM      7  C5  <0> d          -0.013   1.076   0.008  0.00  0.00     0.014 A 
ATOM      8  N2  <0> d           1.120   1.748   0.001  0.00  0.00    -0.272 NA
ATOM      9  C6  <0> d           1.155   3.071   0.007  0.00  0.00     0.004 A 
ATOM     10  C7  <0> d           0.000   3.821   0.023  0.00  0.00    -0.040 A 
ATOM     11  H2  <0> d          -3.016   0.342   0.018  0.00  0.00     0.087 H 
ATOM     12  H3  <0> d          -4.444   2.521   0.037  0.00  0.00     0.111 H 
ATOM     13  H4  <0> d           0.002  -0.004   0.002  0.00  0.00     0.116 H 
ATOM     14  H5  <0> d           2.111   3.574   0.002  0.00  0.00     0.114 H 
ATOM     15  H6  <0> d           0.047   4.901   0.028  0.00  0.00     0.089 H 
ENDROOT
TORSDOF 0
