REMARK  1 active torsions:
REMARK  status: ('A' for Active; 'I' for Inactive)
REMARK    1  A    between atoms: C1_1  and  C2_2 
ROOT
ATOM      1  C2  <0> d          -3.024   3.961   0.051  0.00  0.00    -0.058 A 
ATOM      2  C3  <0> d          -3.468   2.648   0.048  0.00  0.00    -0.056 A 
ATOM      3  C4  <0> d          -2.556   1.599   0.035  0.00  0.00     0.059 A 
ATOM      4  C5  <0> d          -1.171   1.883   0.017  0.00  0.00     0.032 A 
ATOM      5  C6  <0> d          -0.013   1.076   0.008  0.00  0.00     0.035 A 
ATOM      6  N1  <0> d           1.036   1.849   0.002  0.00  0.00    -0.186 NA
ATOM      7  N2  <0> d           0.632   3.190   0.013  0.00  0.00    -0.278 N 
ATOM      8  H1  <0> d           1.238   3.986   0.012  0.00  0.00     0.189 HD
ATOM      9  C7  <0> d          -0.739   3.221   0.026  0.00  0.00     0.064 A 
ATOM     10  C8  <0> d          -1.677   4.251   0.041  0.00  0.00    -0.049 A 
ATOM     11  C9  <0> d          -3.015   0.243   0.031  0.00  0.00     0.100 C 
ATOM     12  N3  <0> d          -3.380  -0.833   0.029  0.00  0.00    -0.191 NA
ATOM     13  H5  <0> d          -4.527   2.439   0.057  0.00  0.00     0.086 H 
ATOM     14  H6  <0> d           0.002  -0.004   0.002  0.00  0.00     0.118 H 
ATOM     15  H7  <0> d          -1.348   5.279   0.043  0.00  0.00     0.087 H 
ENDROOT
BRANCH   1  16
ATOM     16  C1  <0> d          -4.027   5.086   0.065  0.00  0.00    -0.051 C 
ATOM     17  H2  <0> d          -4.278   5.362  -0.959  0.00  0.00     0.033 H 
ATOM     18  H3  <0> d          -4.929   4.762   0.585  0.00  0.00     0.033 H 
ATOM     19  H4  <0> d          -3.601   5.947   0.579  0.00  0.00     0.033 H 
ENDBRANCH   1  16
TORSDOF 1
