REMARK  4 active torsions:
REMARK  status: ('A' for Active; 'I' for Inactive)
REMARK    1  A    between atoms: C1_1  and  C2_2 
REMARK    2  A    between atoms: C2_2  and  C3_3 
REMARK    3  A    between atoms: C2_2  and  C4_4 
REMARK    4  A    between atoms: C4_4  and  C5_6 
ROOT
ATOM      1  C4  <0> d           0.002  -0.004   0.002  0.00  0.00     0.163 C 
ATOM      2  O1  <0> d           1.060  -0.596  -0.011  0.00  0.00    -0.292 OA
ENDROOT
BRANCH   1   3
ATOM      3  C2  <0> d          -1.293  -0.775   0.010  0.00  0.00     0.002 C 
ATOM      4  H4  <0> d          -1.992  -0.247   0.491  0.00  0.00     0.051 H 
BRANCH   3   5
ATOM      5  C1  <0> d          -1.745  -1.028  -1.429  0.00  0.00    -0.066 C 
ATOM      6  H1  <0> d          -0.982  -1.604  -1.954  0.00  0.00     0.028 H 
ATOM      7  H2  <0> d          -2.681  -1.586  -1.423  0.00  0.00     0.028 H 
ATOM      8  H3  <0> d          -1.893  -0.075  -1.937  0.00  0.00     0.028 H 
ENDBRANCH   3   5
BRANCH   3   9
ATOM      9  C3  <0> d          -1.085  -2.113   0.722  0.00  0.00    -0.066 C 
ATOM     10  H5  <0> d          -0.763  -1.933   1.748  0.00  0.00     0.028 H 
ATOM     11  H6  <0> d          -2.021  -2.671   0.728  0.00  0.00     0.028 H 
ATOM     12  H7  <0> d          -0.322  -2.689   0.198  0.00  0.00     0.028 H 
ENDBRANCH   3   9
ENDBRANCH   1   3
BRANCH   1  13
ATOM     13  C5  <0> d          -0.018   1.467   0.010  0.00  0.00     0.010 A 
ATOM     14  C10 <0> d           1.181   2.187   0.003  0.00  0.00    -0.070 A 
ATOM     15  C9  <0> d           1.154   3.565   0.010  0.00  0.00    -0.082 A 
ATOM     16  H12 <0> d           2.126   1.664  -0.010  0.00  0.00     0.085 H 
ATOM     17  C8  <0> d          -0.055   4.237   0.026  0.00  0.00    -0.083 A 
ATOM     18  H11 <0> d           2.080   4.122   0.004  0.00  0.00     0.083 H 
ATOM     19  C7  <0> d          -1.247   3.533   0.033  0.00  0.00    -0.082 A 
ATOM     20  H10 <0> d          -0.070   5.317   0.032  0.00  0.00     0.083 H 
ATOM     21  C6  <0> d          -1.236   2.154   0.020  0.00  0.00    -0.070 A 
ATOM     22  H9  <0> d          -2.187   4.064   0.045  0.00  0.00     0.083 H 
ATOM     23  H8  <0> d          -2.167   1.605   0.021  0.00  0.00     0.085 H 
ENDBRANCH   1  13
TORSDOF 4
