REMARK  7 active torsions:
REMARK  status: ('A' for Active; 'I' for Inactive)
REMARK    1  A    between atoms: C1_1  and  C2_2 
REMARK    2  A    between atoms: C2_2  and  O2_4 
REMARK    3  A    between atoms: O2_4  and  C3_5 
REMARK    4  A    between atoms: C3_5  and  C4_6 
REMARK    5  A    between atoms: C3_5  and  C5_7 
REMARK    6  A    between atoms: C3_5  and  C6_8 
REMARK    7  A    between atoms: C6_8  and  O3_9 
ROOT
ATOM      1  C3  <0> d           0.002  -0.004   0.002  0.00  0.00     0.084 C 
ENDROOT
BRANCH   1   2
ATOM      2  O2  <0> d          -0.018   1.448   0.010  0.00  0.00    -0.309 OA
BRANCH   2   3
ATOM      3  C2  <0> d           1.170   2.073   0.002  0.00  0.00     0.255 C 
ATOM      4  O1  <0> d           2.192   1.429  -0.011  0.00  0.00    -0.266 OA
BRANCH   3   5
ATOM      5  C1  <0> d           1.228   3.579   0.010  0.00  0.00     0.004 C 
ATOM      6  H1  <0> d           0.206   3.986   0.021  0.00  0.00     0.041 H 
ATOM      7  H2  <0> d           1.752   3.930  -0.892  0.00  0.00     0.041 H 
ATOM      8  H3  <0> d           1.769   3.921   0.904  0.00  0.00     0.041 H 
ENDBRANCH   3   5
ENDBRANCH   2   3
ENDBRANCH   1   2
BRANCH   1   9
ATOM      9  C4  <0> d           0.718  -0.497  -1.257  0.00  0.00    -0.045 C 
ATOM     10  H4  <0> d           0.733  -1.597  -1.263  0.00  0.00     0.031 H 
ATOM     11  H5  <0> d           1.750  -0.117  -1.265  0.00  0.00     0.031 H 
ATOM     12  H6  <0> d           0.186  -0.133  -2.148  0.00  0.00     0.031 H 
ENDBRANCH   1   9
BRANCH   1  13
ATOM     13  C5  <0> d           0.742  -0.511   1.242  0.00  0.00    -0.045 C 
ATOM     14  H7  <0> d           0.757  -1.611   1.235  0.00  0.00     0.031 H 
ATOM     15  H8  <0> d           0.227  -0.156   2.147  0.00  0.00     0.031 H 
ATOM     16  H9  <0> d           1.774  -0.130   1.234  0.00  0.00     0.031 H 
ENDBRANCH   1  13
BRANCH   1  17
ATOM     17  C6  <0> d          -1.433  -0.534   0.013  0.00  0.00     0.045 C 
ATOM     18  H10 <0> d          -1.948  -0.179   0.918  0.00  0.00     0.078 H 
ATOM     19  H11 <0> d          -1.965  -0.169  -0.878  0.00  0.00     0.078 H 
BRANCH  17  20
ATOM     20  O3  <0> d          -1.414  -1.962   0.005  0.00  0.00    -0.398 OA
ATOM     21  H12 <0> d          -2.359  -2.525   0.011  0.00  0.00     0.209 HD
ENDBRANCH  17  20
ENDBRANCH   1  17
TORSDOF 7
