REMARK  1 active torsions:
REMARK  status: ('A' for Active; 'I' for Inactive)
REMARK    1  A    between atoms: C2_2  and  C3_3 
ROOT
ATOM      1  C3  <0> d           0.002  -0.004   0.002  0.00  0.00     0.128 A 
ATOM      2  N1  <0> d          -0.017   1.366   0.010  0.00  0.00    -0.339 N 
ATOM      3  H1  <0> d          -0.829   1.949   0.021  0.00  0.00     0.167 HD
ATOM      4  C4  <0> d           1.297   1.792  -0.001  0.00  0.00     0.062 A 
ATOM      5  C5  <0> d           1.905   3.040   0.000  0.00  0.00    -0.055 A 
ATOM      6  C6  <0> d           3.281   3.130  -0.013  0.00  0.00    -0.081 A 
ATOM      7  C7  <0> d           4.061   1.982  -0.026  0.00  0.00    -0.081 A 
ATOM      8  C8  <0> d           3.482   0.746  -0.028  0.00  0.00    -0.053 A 
ATOM      9  C9  <0> d           2.088   0.629  -0.015  0.00  0.00     0.085 A 
ATOM     10  N2  <0> d           1.243  -0.430  -0.012  0.00  0.00    -0.229 NA
ATOM     11  H5  <0> d           1.303   3.936   0.011  0.00  0.00     0.087 H 
ATOM     12  H6  <0> d           3.755   4.100  -0.012  0.00  0.00     0.083 H 
ATOM     13  H7  <0> d           5.138   2.068  -0.035  0.00  0.00     0.083 H 
ATOM     14  H8  <0> d           4.099  -0.141  -0.038  0.00  0.00     0.087 H 
ENDROOT
BRANCH   1  15
ATOM     15  C2  <0> d          -1.190  -0.868   0.008  0.00  0.00    -0.048 C 
ATOM     16  C1  <0> d          -1.053  -2.189  -0.000  0.00  0.00    -0.118 C 
ATOM     17  H2  <0> d          -1.928  -2.823   0.005  0.00  0.00     0.066 H 
ATOM     18  H3  <0> d          -0.067  -2.630  -0.011  0.00  0.00     0.066 H 
ATOM     19  H4  <0> d          -2.176  -0.427   0.020  0.00  0.00     0.088 H 
ENDBRANCH   1  15
TORSDOF 1
