REMARK  4 active torsions:
REMARK  status: ('A' for Active; 'I' for Inactive)
REMARK    1  A    between atoms: C1_1  and  C2_2 
REMARK    2  A    between atoms: C2_2  and  C3_3 
REMARK    3  A    between atoms: C3_3  and  C4_4 
REMARK    4  A    between atoms: C4_4  and  C5_5 
ROOT
ATOM      1  C4  <0> d          -1.413  -2.063   0.004  0.00  0.00    -0.046 C 
ATOM      2  H9  <0> d          -0.902  -2.415  -0.892  0.00  0.00     0.035 H 
ATOM      3  H10 <0> d          -0.885  -2.425   0.887  0.00  0.00     0.035 H 
ENDROOT
BRANCH   1   4
ATOM      4  C3  <0> d          -1.433  -0.534   0.013  0.00  0.00    -0.064 C 
ATOM      5  H7  <0> d          -1.944  -0.182   0.910  0.00  0.00     0.033 H 
ATOM      6  H8  <0> d          -1.960  -0.173  -0.870  0.00  0.00     0.033 H 
BRANCH   4   7
ATOM      7  C2  <0> d           0.002  -0.004   0.002  0.00  0.00    -0.068 C 
ATOM      8  H5  <0> d           0.512  -0.356  -0.895  0.00  0.00     0.032 H 
ATOM      9  H6  <0> d           0.529  -0.365   0.885  0.00  0.00     0.032 H 
BRANCH   7  10
ATOM     10  C1  <0> d          -0.019   1.526   0.010  0.00  0.00    -0.077 C 
ATOM     11  H2  <0> d           1.004   1.903   0.003  0.00  0.00     0.027 H 
ATOM     12  H3  <0> d          -0.546   1.887  -0.873  0.00  0.00     0.027 H 
ATOM     13  H4  <0> d          -0.529   1.877   0.907  0.00  0.00     0.027 H 
ENDBRANCH   7  10
ENDBRANCH   4   7
ENDBRANCH   1   4
BRANCH   1  14
ATOM     14  C5  <0> d          -2.848  -2.593   0.015  0.00  0.00     0.012 C 
ATOM     15  H1  <0> d          -3.400  -2.168   0.854  0.00  0.00     0.072 H 
ATOM     16  N1  <0> d          -3.518  -2.270  -1.250  0.00  0.00    -0.356 N 
ATOM     17  C8  <0> d          -3.568  -3.344  -2.061  0.00  0.00     0.217 C 
ATOM     18  H15 <0> d          -3.878  -1.397  -1.472  0.00  0.00     0.162 HD
ATOM     19  C7  <0> d          -2.923  -4.535  -1.389  0.00  0.00     0.011 C 
ATOM     20  O1  <0> d          -4.061  -3.353  -3.170  0.00  0.00    -0.274 OA
ATOM     21  C6  <0> d          -2.848  -4.135   0.102  0.00  0.00    -0.038 C 
ATOM     22  H13 <0> d          -1.923  -4.704  -1.790  0.00  0.00     0.047 H 
ATOM     23  H14 <0> d          -3.540  -5.425  -1.515  0.00  0.00     0.047 H 
ATOM     24  H11 <0> d          -1.928  -4.500   0.558  0.00  0.00     0.036 H 
ATOM     25  H12 <0> d          -3.721  -4.495   0.647  0.00  0.00     0.036 H 
ENDBRANCH   1  14
TORSDOF 4
