REMARK  3 active torsions:
REMARK  status: ('A' for Active; 'I' for Inactive)
REMARK    1  A    between atoms: C1_1  and  C2_2 
REMARK    2  A    between atoms: C2_2  and  C3_3 
REMARK    3  A    between atoms: C8_9  and  O1_11 
ROOT
ATOM      1  C3  <0> d          -0.013   1.086   0.008  0.00  0.00    -0.029 C 
ATOM      2  H1  <0> d           0.002  -0.004   0.002  0.00  0.00     0.043 H 
ATOM      3  C4  <0> d           1.423   1.615  -0.003  0.00  0.00    -0.059 C 
ATOM      4  C5  <0> d           2.163   1.109   1.237  0.00  0.00    -0.065 C 
ATOM      5  C6  <0> d           1.446   1.602   2.495  0.00  0.00    -0.063 C 
ATOM      6  C7  <0> d           0.011   1.072   2.506  0.00  0.00    -0.041 C 
ATOM      7  C8  <0> d          -0.729   1.579   1.267  0.00  0.00     0.039 C 
ATOM      8  H2  <0> d          -1.751   1.202   1.275  0.00  0.00     0.083 H 
ATOM      9  H8  <0> d           1.933   1.264  -0.900  0.00  0.00     0.033 H 
ATOM     10  H9  <0> d           1.408   2.705   0.003  0.00  0.00     0.033 H 
ATOM     11  H10 <0> d           2.178   0.019   1.231  0.00  0.00     0.033 H 
ATOM     12  H11 <0> d           3.185   1.486   1.229  0.00  0.00     0.033 H 
ATOM     13  H12 <0> d           1.974   1.241   3.378  0.00  0.00     0.033 H 
ATOM     14  H13 <0> d           1.432   2.692   2.502  0.00  0.00     0.033 H 
ATOM     15  H14 <0> d           0.026  -0.018   2.500  0.00  0.00     0.036 H 
ATOM     16  H15 <0> d          -0.499   1.424   3.403  0.00  0.00     0.036 H 
ENDROOT
BRANCH   1  17
ATOM     17  C2  <0> d          -0.753   1.593  -1.232  0.00  0.00    -0.063 C 
ATOM     18  H6  <0> d          -1.798   1.290  -1.179  0.00  0.00     0.033 H 
ATOM     19  H7  <0> d          -0.691   2.680  -1.272  0.00  0.00     0.033 H 
BRANCH  17  20
ATOM     20  C1  <0> d          -0.111   0.998  -2.487  0.00  0.00    -0.076 C 
ATOM     21  H3  <0> d           0.934   1.301  -2.539  0.00  0.00     0.027 H 
ATOM     22  H4  <0> d          -0.173  -0.089  -2.446  0.00  0.00     0.027 H 
ATOM     23  H5  <0> d          -0.639   1.359  -3.370  0.00  0.00     0.027 H 
ENDBRANCH  17  20
ENDBRANCH   1  17
BRANCH   7  24
ATOM     24  O1  <0> d          -0.748   3.008   1.275  0.00  0.00    -0.395 OA
ATOM     25  H16 <0> d          -1.188   3.391   2.046  0.00  0.00     0.210 HD
ENDBRANCH   7  24
TORSDOF 3
