REMARK  4 active torsions:
REMARK  status: ('A' for Active; 'I' for Inactive)
REMARK    1  A    between atoms: C1_1  and  C2_2 
REMARK    2  A    between atoms: C2_2  and  C3_3 
REMARK    3  A    between atoms: C2_2  and  C4_4 
REMARK    4  A    between atoms: C2_2  and  C5_5 
ROOT
ATOM      1  C5  <0> d          -0.019   1.526   0.010  0.00  0.00     0.137 C 
ATOM      2  O1  <0> d          -0.688   1.987   1.187  0.00  0.00    -0.360 OA
ATOM      3  C6  <0> d          -0.784   3.412   1.274  0.00  0.00     0.025 C 
ATOM      4  C7  <0> d          -1.521   3.938   0.038  0.00  0.00    -0.025 C 
ATOM      5  C8  <0> d          -0.808   3.425  -1.218  0.00  0.00     0.025 C 
ATOM      6  O2  <0> d          -0.710   1.999  -1.148  0.00  0.00    -0.360 OA
ATOM      7  H10 <0> d           1.004   1.903   0.003  0.00  0.00     0.130 H 
ATOM      8  H11 <0> d           0.216   3.843   1.314  0.00  0.00     0.074 H 
ATOM      9  H12 <0> d          -1.336   3.687   2.173  0.00  0.00     0.074 H 
ATOM     10  H13 <0> d          -1.512   5.028   0.043  0.00  0.00     0.039 H 
ATOM     11  H14 <0> d          -2.550   3.579   0.046  0.00  0.00     0.039 H 
ATOM     12  H15 <0> d           0.192   3.857  -1.273  0.00  0.00     0.074 H 
ATOM     13  H16 <0> d          -1.378   3.709  -2.103  0.00  0.00     0.074 H 
ENDROOT
BRANCH   1  14
ATOM     14  C2  <0> d           0.002  -0.004   0.002  0.00  0.00    -0.001 C 
BRANCH  14  15
ATOM     15  C1  <0> d           0.718  -0.497  -1.257  0.00  0.00    -0.065 C 
ATOM     16  H1  <0> d           1.741  -0.120  -1.264  0.00  0.00     0.028 H 
ATOM     17  H2  <0> d           0.733  -1.587  -1.263  0.00  0.00     0.028 H 
ATOM     18  H3  <0> d           0.191  -0.136  -2.140  0.00  0.00     0.028 H 
ENDBRANCH  14  15
BRANCH  14  19
ATOM     19  C3  <0> d           0.742  -0.511   1.242  0.00  0.00    -0.065 C 
ATOM     20  H4  <0> d           0.232  -0.159   2.138  0.00  0.00     0.028 H 
ATOM     21  H5  <0> d           0.757  -1.601   1.236  0.00  0.00     0.028 H 
ATOM     22  H6  <0> d           1.765  -0.134   1.234  0.00  0.00     0.028 H 
ENDBRANCH  14  19
BRANCH  14  23
ATOM     23  C4  <0> d          -1.433  -0.534   0.013  0.00  0.00    -0.065 C 
ATOM     24  H7  <0> d          -1.960  -0.173  -0.870  0.00  0.00     0.028 H 
ATOM     25  H8  <0> d          -1.419  -1.623   0.007  0.00  0.00     0.028 H 
ATOM     26  H9  <0> d          -1.944  -0.182   0.910  0.00  0.00     0.028 H 
ENDBRANCH  14  23
ENDBRANCH   1  14
TORSDOF 4
