REMARK  1 active torsions:
REMARK  status: ('A' for Active; 'I' for Inactive)
REMARK    1  A    between atoms: C3_4  and  C4_6 
REMARK       I    between atoms: C4_6  and  N2_8 
ROOT
ATOM      1  C1  <0> d          -0.016   1.330   0.009  0.00  0.00     0.027 A 
ATOM      2  C2  <0> d           1.266   1.762  -0.001  0.00  0.00     0.038 A 
ATOM      3  O1  <0> d           2.052   0.673  -0.014  0.00  0.00    -0.299 OA
ATOM      4  C3  <0> d           1.251  -0.408  -0.012  0.00  0.00     0.238 A 
ATOM      5  N1  <0> d           0.002  -0.004   0.002  0.00  0.00    -0.230 NA
ATOM      6  H1  <0> d          -0.897   1.954   0.025  0.00  0.00     0.117 H 
ATOM      7  H2  <0> d           1.595   2.791   0.002  0.00  0.00     0.125 H 
ENDROOT
BRANCH   4   8
ATOM      8  C4  <0> d           1.701  -1.812  -0.024  0.00  0.00     0.292 C 
ATOM      9  O2  <0> d           2.890  -2.070  -0.037  0.00  0.00    -0.264 OA
ATOM     10  N2  <0> d           0.796  -2.810  -0.021  0.00  0.00    -0.363 N 
ATOM     11  H3  <0> d          -0.152  -2.605  -0.011  0.00  0.00     0.159 HD
ATOM     12  H4  <0> d           1.092  -3.734  -0.029  0.00  0.00     0.159 HD
ENDBRANCH   4   8
TORSDOF 1
