REMARK  4 active torsions:
REMARK  status: ('A' for Active; 'I' for Inactive)
REMARK    1  A    between atoms: C1_1  and  C2_2 
REMARK    2  A    between atoms: C2_2  and  O1_3 
REMARK    3  A    between atoms: O1_3  and  C3_4 
REMARK    4  A    between atoms: C3_4  and  C4_6 
ROOT
ATOM      1  C3  <0> d           1.836  -1.814  -0.025  0.00  0.00     0.296 C 
ATOM      2  O2  <0> d           3.030  -2.042  -0.037  0.00  0.00    -0.259 OA
ENDROOT
BRANCH   1   3
ATOM      3  O1  <0> d           0.956  -2.834  -0.022  0.00  0.00    -0.318 OA
BRANCH   3   4
ATOM      4  C2  <0> d           1.504  -4.178  -0.034  0.00  0.00     0.026 C 
ATOM      5  H5  <0> d           2.109  -4.316  -0.930  0.00  0.00     0.074 H 
ATOM      6  H6  <0> d           2.125  -4.325   0.850  0.00  0.00     0.074 H 
BRANCH   4   7
ATOM      7  C1  <0> d           0.361  -5.195  -0.029  0.00  0.00    -0.056 C 
ATOM      8  H2  <0> d           0.772  -6.205  -0.038  0.00  0.00     0.030 H 
ATOM      9  H3  <0> d          -0.244  -5.058   0.868  0.00  0.00     0.030 H 
ATOM     10  H4  <0> d          -0.260  -5.048  -0.912  0.00  0.00     0.030 H 
ENDBRANCH   4   7
ENDBRANCH   3   4
ENDBRANCH   1   3
BRANCH   1  11
ATOM     11  C4  <0> d           1.352  -0.423  -0.013  0.00  0.00     0.075 A 
ATOM     12  C6  <0> d           0.002  -0.004   0.002  0.00  0.00     0.039 A 
ATOM     13  N2  <0> d          -0.016   1.300   0.009  0.00  0.00    -0.187 NA
ATOM     14  H8  <0> d          -0.863  -0.651   0.006  0.00  0.00     0.119 H 
ATOM     15  N1  <0> d           1.302   1.772  -0.001  0.00  0.00    -0.289 N 
ATOM     16  C5  <0> d           2.132   0.717  -0.014  0.00  0.00     0.013 A 
ATOM     17  H1  <0> d           1.578   2.733   0.002  0.00  0.00     0.188 HD
ATOM     18  H7  <0> d           3.211   0.753  -0.024  0.00  0.00     0.115 H 
ENDBRANCH   1  11
TORSDOF 4
