REMARK  0 active torsions:
REMARK  status: ('A' for Active; 'I' for Inactive)
ROOT
ATOM      1  C1  <0> d          -0.013   1.076   0.008  0.00  0.00    -0.081 A 
ATOM      2  C2  <0> d           1.183   1.782   0.000  0.00  0.00    -0.081 A 
ATOM      3  C3  <0> d           1.188   3.146   0.008  0.00  0.00    -0.051 A 
ATOM      4  C4  <0> d          -0.023   3.849   0.023  0.00  0.00     0.108 A 
ATOM      5  C5  <0> d          -1.233   3.134   0.031  0.00  0.00     0.082 A 
ATOM      6  C6  <0> d          -1.217   1.743   0.017  0.00  0.00    -0.053 A 
ATOM      7  N1  <0> d          -2.234   4.077   0.045  0.00  0.00    -0.258 N 
ATOM      8  N2  <0> d          -1.601   5.329   0.046  0.00  0.00    -0.067 NA
ATOM      9  H1  <0> d          -3.189   3.909   0.053  0.00  0.00     0.191 HD
ATOM     10  N3  <0> d          -0.325   5.163   0.033  0.00  0.00    -0.130 NA
ATOM     11  H2  <0> d           0.002  -0.004   0.002  0.00  0.00     0.083 H 
ATOM     12  H3  <0> d           2.120   1.245  -0.011  0.00  0.00     0.083 H 
ATOM     13  H4  <0> d           2.125   3.683   0.002  0.00  0.00     0.087 H 
ATOM     14  H5  <0> d          -2.144   1.190   0.018  0.00  0.00     0.087 H 
ENDROOT
TORSDOF 0
