REMARK  3 active torsions:
REMARK  status: ('A' for Active; 'I' for Inactive)
REMARK    1  A    between atoms: C1_1  and  N1_2 
REMARK    2  A    between atoms: N1_2  and  C2_3 
REMARK    3  A    between atoms: C5_6  and  N2_9 
ROOT
ATOM      1  C2  <0> d           0.628  -0.701   1.042  0.00  0.00     0.027 A 
ATOM      2  C3  <0> d           1.224  -0.005   2.085  0.00  0.00    -0.055 A 
ATOM      3  C4  <0> d           1.842  -0.693   3.111  0.00  0.00    -0.056 A 
ATOM      4  C5  <0> d           1.866  -2.081   3.100  0.00  0.00     0.025 A 
ATOM      5  C6  <0> d           1.269  -2.777   2.058  0.00  0.00    -0.056 A 
ATOM      6  C7  <0> d           0.647  -2.090   1.035  0.00  0.00    -0.055 A 
ATOM      7  H5  <0> d           1.206   1.075   2.093  0.00  0.00     0.087 H 
ATOM      8  H6  <0> d           2.307  -0.151   3.921  0.00  0.00     0.087 H 
ATOM      9  H7  <0> d           1.287  -3.857   2.050  0.00  0.00     0.087 H 
ATOM     10  H8  <0> d           0.179  -2.632   0.226  0.00  0.00     0.087 H 
ENDROOT
BRANCH   1  11
ATOM     11  N1  <0> d           0.002  -0.004   0.002  0.00  0.00    -0.394 N 
ATOM     12  H4  <0> d          -0.418  -0.491  -0.724  0.00  0.00     0.159 HD
BRANCH  11  13
ATOM     13  C1  <0> d          -0.018   1.461   0.010  0.00  0.00    -0.021 C 
ATOM     14  H1  <0> d           1.005   1.838   0.002  0.00  0.00     0.056 H 
ATOM     15  H2  <0> d          -0.545   1.822  -0.873  0.00  0.00     0.056 H 
ATOM     16  H3  <0> d          -0.528   1.812   0.907  0.00  0.00     0.056 H 
ENDBRANCH  11  13
ENDBRANCH   1  11
BRANCH   4  17
ATOM     17  N2  <0> d           2.492  -2.778   4.140  0.00  0.00    -0.399 N 
ATOM     18  H9  <0> d           2.910  -2.291   4.868  0.00  0.00     0.156 HD
ATOM     19  H10 <0> d           2.509  -3.748   4.133  0.00  0.00     0.156 HD
ENDBRANCH   4  17
TORSDOF 3
