REMARK  3 active torsions:
REMARK  status: ('A' for Active; 'I' for Inactive)
REMARK    1  A    between atoms: C1_1  and  C3_4 
REMARK    2  A    between atoms: C4_6  and  N6_11 
REMARK    3  A    between atoms: C5_8  and  N5_10 
ROOT
ATOM      1  C1  <0> d          -0.018   1.468   0.010  0.00  0.00     0.072 C 
ATOM      2  C2  <0> d           0.002  -0.004   0.002  0.00  0.00     0.066 C 
ATOM      3  N1  <0> d           0.018  -1.140  -0.004  0.00  0.00    -0.197 NA
ATOM      4  H1  <0> d           1.005   1.845   0.002  0.00  0.00     0.067 H 
ATOM      5  H2  <0> d          -0.545   1.829  -0.873  0.00  0.00     0.067 H 
ENDROOT
BRANCH   1   6
ATOM      6  C3  <0> d          -0.723   1.954   1.250  0.00  0.00     0.177 A 
ATOM      7  N4  <0> d          -0.034   2.177   2.356  0.00  0.00    -0.046 NA
ATOM      8  C5  <0> d          -0.654   2.607   3.453  0.00  0.00     0.737 A 
ATOM      9  N3  <0> d          -1.966   2.811   3.435  0.00  0.00     0.129 NA
ATOM     10  C4  <0> d          -2.655   2.586   2.322  0.00  0.00     0.737 A 
ATOM     11  N2  <0> d          -2.028   2.161   1.227  0.00  0.00    -0.046 NA
BRANCH   8  12
ATOM     12  N5  <0> d           0.067   2.839   4.606  0.00  0.00    -0.230 N 
ATOM     13  H3  <0> d           1.025   2.690   4.618  0.00  0.00     0.174 HD
ATOM     14  H4  <0> d          -0.386   3.153   5.405  0.00  0.00     0.174 HD
ENDBRANCH   8  12
BRANCH  10  15
ATOM     15  N6  <0> d          -4.019   2.797   2.299  0.00  0.00    -0.230 N 
ATOM     16  H5  <0> d          -4.475   3.110   3.095  0.00  0.00     0.174 HD
ATOM     17  H6  <0> d          -4.521   2.632   1.485  0.00  0.00     0.174 HD
ENDBRANCH  10  15
ENDBRANCH   1   6
TORSDOF 3
