REMARK  1 active torsions:
REMARK  status: ('A' for Active; 'I' for Inactive)
REMARK    1  A    between atoms: C1_1  and  N1_2 
ROOT
ATOM      1  N1  <0> d          -1.128   2.226   0.019  0.00  0.00    -0.263 N 
ATOM      2  C2  <0> d          -0.017   1.428   0.010  0.00  0.00     0.155 A 
ATOM      3  C3  <0> d           1.082   2.265   0.004  0.00  0.00     0.092 A 
ATOM      4  C4  <0> d           0.614   3.578   0.015  0.00  0.00     0.046 A 
ATOM      5  N2  <0> d          -0.695   3.558   0.027  0.00  0.00    -0.182 NA
ATOM      6 Cl1  <0> d           2.746   1.770  -0.015  0.00  0.00    -0.080 Cl
ATOM      7  C5  <0> d           0.002  -0.004   0.002  0.00  0.00     0.121 C 
ATOM      8  N3  <0> d           0.018  -1.140  -0.004  0.00  0.00    -0.190 NA
ATOM      9  H4  <0> d           1.230   4.465   0.014  0.00  0.00     0.120 H 
ENDROOT
BRANCH   1  10
ATOM     10  C1  <0> d          -2.520   1.770   0.022  0.00  0.00     0.004 C 
ATOM     11  H1  <0> d          -2.546   0.670   0.013  0.00  0.00     0.059 H 
ATOM     12  H2  <0> d          -3.034   2.155  -0.871  0.00  0.00     0.059 H 
ATOM     13  H3  <0> d          -3.026   2.142   0.925  0.00  0.00     0.059 H 
ENDBRANCH   1  10
TORSDOF 1
