REMARK  3 active torsions:
REMARK  status: ('A' for Active; 'I' for Inactive)
REMARK    1  A    between atoms: C1_1  and  N1_2 
REMARK    2  A    between atoms: N1_2  and  C2_3 
REMARK    3  A    between atoms: N1_2  and  C3_4 
ROOT
ATOM      1  C3  <0> d          -0.050   1.114   2.370  0.00  0.00     0.031 A 
ATOM      2  C4  <0> d           1.274   1.464   2.602  0.00  0.00    -0.061 A 
ATOM      3  C5  <0> d           1.913   1.026   3.746  0.00  0.00    -0.081 A 
ATOM      4  C6  <0> d           1.240   0.231   4.655  0.00  0.00    -0.081 A 
ATOM      5  C7  <0> d          -0.077  -0.124   4.426  0.00  0.00    -0.060 A 
ATOM      6  C8  <0> d          -0.724   0.315   3.286  0.00  0.00     0.055 A 
ATOM      7 Cl1  <0> d          -2.376  -0.133   2.998  0.00  0.00    -0.082 Cl
ATOM      8  H7  <0> d           1.803   2.081   1.890  0.00  0.00     0.086 H 
ATOM      9  H8  <0> d           2.941   1.302   3.928  0.00  0.00     0.083 H 
ATOM     10  H9  <0> d           1.743  -0.114   5.546  0.00  0.00     0.083 H 
ATOM     11  H10 <0> d          -0.600  -0.745   5.138  0.00  0.00     0.086 H 
ENDROOT
BRANCH   1  12
ATOM     12  N1  <0> d          -0.700   1.560   1.217  0.00  0.00    -0.290 NA
BRANCH  12  13
ATOM     13  C1  <0> d          -0.013   1.086   0.008  0.00  0.00    -0.029 C 
ATOM     14  H1  <0> d           0.065  -0.011   0.036  0.00  0.00     0.048 H 
ATOM     15  H2  <0> d           0.996   1.524  -0.036  0.00  0.00     0.048 H 
ATOM     16  H3  <0> d          -0.584   1.390  -0.882  0.00  0.00     0.048 H 
ENDBRANCH  12  13
BRANCH  12  17
ATOM     17  C2  <0> d          -0.822   3.023   1.213  0.00  0.00    -0.029 C 
ATOM     18  H4  <0> d          -1.340   3.350   2.127  0.00  0.00     0.048 H 
ATOM     19  H5  <0> d          -1.399   3.341   0.332  0.00  0.00     0.048 H 
ATOM     20  H6  <0> d           0.180   3.475   1.178  0.00  0.00     0.048 H 
ENDBRANCH  12  17
ENDBRANCH   1  12
TORSDOF 3
