REMARK  0 active torsions:
REMARK  status: ('A' for Active; 'I' for Inactive)
ROOT
ATOM      1  C1  <0> d          -0.017   1.393   0.010  0.00  0.00    -0.079 A 
ATOM      2  C2  <0> d           1.128   2.122   0.003  0.00  0.00    -0.066 A 
ATOM      3  C3  <0> d           2.373   1.462  -0.013  0.00  0.00     0.053 A 
ATOM      4  C4  <0> d           2.397  -0.008  -0.021  0.00  0.00     0.130 A 
ATOM      5  C5  <0> d           1.167  -0.703  -0.013  0.00  0.00     0.147 A 
ATOM      6  C6  <0> d           0.002  -0.004   0.002  0.00  0.00    -0.043 A 
ATOM      7  F1  <0> d           1.149  -2.054  -0.020  0.00  0.00    -0.204 F 
ATOM      8  N1  <0> d           3.667  -0.370  -0.035  0.00  0.00    -0.169 NA
ATOM      9  N2  <0> d           4.470   0.776  -0.037  0.00  0.00    -0.253 N 
ATOM     10  H1  <0> d           5.440   0.776  -0.046  0.00  0.00     0.191 HD
ATOM     11  C7  <0> d           3.700   1.875  -0.024  0.00  0.00     0.207 A 
ATOM     12  O1  <0> d           4.138   3.158  -0.022  0.00  0.00    -0.170 OA
ATOM     13  H2  <0> d          -0.967   1.905   0.026  0.00  0.00     0.083 H 
ATOM     14  H3  <0> d           1.084   3.201   0.009  0.00  0.00     0.085 H 
ATOM     15  H4  <0> d          -0.934  -0.542   0.008  0.00  0.00     0.088 H 
ENDROOT
TORSDOF 0
