REMARK  4 active torsions:
REMARK  status: ('A' for Active; 'I' for Inactive)
REMARK    1  A    between atoms: C1_1  and  N1_2 
REMARK    2  A    between atoms: N1_2  and  C2_3 
REMARK    3  A    between atoms: N1_2  and  C3_4 
REMARK    4  A    between atoms: C6_7  and  O2_9 
ROOT
ATOM      1  C3  <0> d           1.301  -0.377  -0.012  0.00  0.00     0.147 A 
ATOM      2  C4  <0> d           0.002  -0.004   0.002  0.00  0.00    -0.029 A 
ATOM      3  C5  <0> d          -0.017   1.413   0.010  0.00  0.00    -0.023 A 
ATOM      4  C6  <0> d           1.268   1.821  -0.000  0.00  0.00     0.184 A 
ATOM      5  O1  <0> d           2.061   0.734  -0.014  0.00  0.00    -0.271 OA
ATOM      6  H7  <0> d          -0.856  -0.660   0.006  0.00  0.00     0.090 H 
ATOM      7  H8  <0> d          -0.893   2.045   0.018  0.00  0.00     0.091 H 
ENDROOT
BRANCH   1   8
ATOM      8  N1  <0> d           1.774  -1.691  -0.024  0.00  0.00    -0.370 N 
BRANCH   8   9
ATOM      9  C1  <0> d           0.828  -2.809  -0.020  0.00  0.00    -0.017 C 
ATOM     10  H1  <0> d           0.584  -3.082  -1.047  0.00  0.00     0.056 H 
ATOM     11  H2  <0> d           1.278  -3.664   0.485  0.00  0.00     0.056 H 
ATOM     12  H3  <0> d          -0.081  -2.515   0.504  0.00  0.00     0.056 H 
ENDBRANCH   8   9
BRANCH   8  13
ATOM     13  C2  <0> d           3.216  -1.950  -0.039  0.00  0.00    -0.017 C 
ATOM     14  H4  <0> d           3.755  -1.003  -0.039  0.00  0.00     0.056 H 
ATOM     15  H5  <0> d           3.491  -2.525   0.846  0.00  0.00     0.056 H 
ATOM     16  H6  <0> d           3.473  -2.516  -0.934  0.00  0.00     0.056 H 
ENDBRANCH   8  13
ENDBRANCH   1   8
BRANCH   4  17
ATOM     17  O2  <0> d           1.692   3.113   0.002  0.00  0.00    -0.341 OA
ATOM     18  H9  <0> d           1.823   3.482   0.886  0.00  0.00     0.220 HD
ENDBRANCH   4  17
TORSDOF 4
