REMARK  6 active torsions:
REMARK  status: ('A' for Active; 'I' for Inactive)
REMARK    1  A    between atoms: C1_1  and  C2_2 
REMARK    2  A    between atoms: C4_4  and  C8_12 
REMARK    3  A    between atoms: N1_5  and  C5_7 
REMARK    4  A    between atoms: C5_7  and  C6_9 
REMARK    5  A    between atoms: C5_7  and  C7_10 
REMARK    6  A    between atoms: C7_10  and  O1_11 
ROOT
ATOM      1  C2  <0> d           1.441   0.493   3.940  0.00  0.00     0.053 A 
ATOM      2  C3  <0> d           0.235  -0.119   4.298  0.00  0.00    -0.035 A 
ATOM      3  C4  <0> d          -0.692   0.212   3.370  0.00  0.00     0.029 A 
ATOM      4  N1  <0> d          -0.092   0.997   2.451  0.00  0.00    -0.268 N 
ATOM      5  N2  <0> d           1.246   1.163   2.832  0.00  0.00    -0.177 NA
ATOM      6  H5  <0> d           0.072  -0.741   5.165  0.00  0.00     0.089 H 
ENDROOT
BRANCH   4   7
ATOM      7  C5  <0> d          -0.729   1.579   1.267  0.00  0.00     0.051 C 
ATOM      8  H1  <0> d          -1.776   1.277   1.232  0.00  0.00     0.078 H 
BRANCH   7   9
ATOM      9  C6  <0> d          -0.641   3.105   1.339  0.00  0.00    -0.053 C 
ATOM     10  H6  <0> d          -1.115   3.538   0.458  0.00  0.00     0.030 H 
ATOM     11  H7  <0> d          -1.151   3.457   2.235  0.00  0.00     0.030 H 
ATOM     12  H8  <0> d           0.406   3.407   1.374  0.00  0.00     0.030 H 
ENDBRANCH   7   9
BRANCH   7  13
ATOM     13  C7  <0> d          -0.013   1.086   0.008  0.00  0.00     0.037 C 
ATOM     14  H9  <0> d           0.002  -0.004   0.002  0.00  0.00     0.077 H 
ATOM     15  H10 <0> d           1.010   1.463   0.000  0.00  0.00     0.077 H 
BRANCH  13  16
ATOM     16  O1  <0> d          -0.704   1.559  -1.150  0.00  0.00    -0.399 OA
ATOM     17  H11 <0> d          -0.304   1.284  -1.986  0.00  0.00     0.209 HD
ENDBRANCH  13  16
ENDBRANCH   7  13
ENDBRANCH   4   7
BRANCH   3  18
ATOM     18  C8  <0> d          -2.135  -0.223   3.361  0.00  0.00    -0.036 C 
ATOM     19  H12 <0> d          -2.229  -1.160   2.813  0.00  0.00     0.035 H 
ATOM     20  H13 <0> d          -2.478  -0.365   4.386  0.00  0.00     0.035 H 
ATOM     21  H14 <0> d          -2.742   0.543   2.878  0.00  0.00     0.035 H 
ENDBRANCH   3  18
BRANCH   1  22
ATOM     22  C1  <0> d           2.740   0.399   4.698  0.00  0.00    -0.034 C 
ATOM     23  H2  <0> d           2.794   1.206   5.428  0.00  0.00     0.035 H 
ATOM     24  H3  <0> d           2.791  -0.560   5.213  0.00  0.00     0.035 H 
ATOM     25  H4  <0> d           3.574   0.482   4.001  0.00  0.00     0.035 H 
ENDBRANCH   1  22
TORSDOF 6
