REMARK  5 active torsions:
REMARK  status: ('A' for Active; 'I' for Inactive)
REMARK    1  A    between atoms: C1_1  and  C2_2 
REMARK    2  A    between atoms: C2_2  and  C3_3 
REMARK    3  A    between atoms: C2_2  and  C5_7 
REMARK    4  A    between atoms: C3_3  and  C4_4 
REMARK       I    between atoms: C4_4  and  N1_6 
REMARK    5  A    between atoms: C5_7  and  C6_8 
REMARK       I    between atoms: C6_8  and  N2_10 
ROOT
ATOM      1  C2  <0> d          -2.479   0.934   0.019  0.00  0.00    -0.042 C 
ATOM      2  H4  <0> d          -2.359   0.247   0.856  0.00  0.00     0.040 H 
ENDROOT
BRANCH   1   3
ATOM      3  C1  <0> d          -2.466   0.147  -1.293  0.00  0.00    -0.072 C 
ATOM      4  H1  <0> d          -2.586   0.834  -2.130  0.00  0.00     0.028 H 
ATOM      5  H2  <0> d          -1.518  -0.382  -1.390  0.00  0.00     0.028 H 
ATOM      6  H3  <0> d          -3.285  -0.573  -1.293  0.00  0.00     0.028 H 
ENDBRANCH   1   3
BRANCH   1   7
ATOM      7  C3  <0> d          -1.330   1.944   0.019  0.00  0.00     0.012 C 
ATOM      8  H5  <0> d          -1.392   2.565   0.913  0.00  0.00     0.047 H 
ATOM      9  H6  <0> d          -1.400   2.575  -0.867  0.00  0.00     0.047 H 
BRANCH   7  10
ATOM     10  C4  <0> d          -0.014   1.209   0.009  0.00  0.00     0.215 C 
ATOM     11  O1  <0> d           0.002  -0.004   0.002  0.00  0.00    -0.274 OA
ATOM     12  N1  <0> d           1.143   1.898   0.001  0.00  0.00    -0.370 N 
ATOM     13  H7  <0> d           1.990   1.425  -0.009  0.00  0.00     0.159 HD
ATOM     14  H8  <0> d           1.130   2.868   0.007  0.00  0.00     0.159 HD
ENDBRANCH   7  10
ENDBRANCH   1   7
BRANCH   1  15
ATOM     15  C5  <0> d          -3.810   1.677   0.155  0.00  0.00     0.012 C 
ATOM     16  H9  <0> d          -3.785   2.307   1.044  0.00  0.00     0.047 H 
ATOM     17  H10 <0> d          -3.971   2.297  -0.726  0.00  0.00     0.047 H 
BRANCH  15  18
ATOM     18  C6  <0> d          -4.932   0.678   0.278  0.00  0.00     0.215 C 
ATOM     19  O2  <0> d          -4.690  -0.511   0.259  0.00  0.00    -0.274 OA
ATOM     20  N2  <0> d          -6.203   1.105   0.410  0.00  0.00    -0.370 N 
ATOM     21  H11 <0> d          -6.396   2.055   0.425  0.00  0.00     0.159 HD
ATOM     22  H12 <0> d          -6.925   0.462   0.489  0.00  0.00     0.159 HD
ENDBRANCH  15  18
ENDBRANCH   1  15
TORSDOF 5
