REMARK  4 active torsions:
REMARK  status: ('A' for Active; 'I' for Inactive)
REMARK    1  A    between atoms: C1_1  and  C2_2 
REMARK    2  A    between atoms: C5_5  and  C8_9 
REMARK    3  A    between atoms: C6_6  and  O1_8 
REMARK    4  A    between atoms: C8_9  and  O2_10 
ROOT
ATOM      1  C2  <0> d           0.890   5.819   0.026  0.00  0.00    -0.059 A 
ATOM      2  C3  <0> d          -0.236   5.016   0.032  0.00  0.00    -0.076 A 
ATOM      3  C4  <0> d          -0.108   3.640   0.023  0.00  0.00    -0.072 A 
ATOM      4  C5  <0> d           1.147   3.062   0.008  0.00  0.00    -0.002 A 
ATOM      5  C6  <0> d           2.279   3.865   0.007  0.00  0.00     0.074 A 
ATOM      6  C7  <0> d           2.147   5.246   0.011  0.00  0.00    -0.045 A 
ATOM      7  H4  <0> d          -1.218   5.466   0.045  0.00  0.00     0.084 H 
ATOM      8  H5  <0> d          -0.989   3.016   0.027  0.00  0.00     0.084 H 
ATOM      9  H6  <0> d           3.026   5.873   0.007  0.00  0.00     0.088 H 
ENDROOT
BRANCH   4  10
ATOM     10  C8  <0> d           1.286   1.562  -0.002  0.00  0.00     0.043 C 
ATOM     11  H8  <0> d           1.840   1.243   0.881  0.00  0.00     0.081 H 
ATOM     12  H9  <0> d           1.823   1.252  -0.899  0.00  0.00     0.081 H 
BRANCH  10  13
ATOM     13  O2  <0> d          -0.011   0.963   0.007  0.00  0.00    -0.396 OA
ATOM     14  H10 <0> d           0.002  -0.004   0.002  0.00  0.00     0.209 HD
ENDBRANCH  10  13
ENDBRANCH   4  10
BRANCH   5  15
ATOM     15  O1  <0> d           3.514   3.299  -0.002  0.00  0.00    -0.360 OA
ATOM     16  H7  <0> d           3.868   3.140  -0.888  0.00  0.00     0.217 HD
ENDBRANCH   5  15
BRANCH   1  17
ATOM     17  C1  <0> d           0.746   7.319   0.037  0.00  0.00    -0.051 C 
ATOM     18  H1  <0> d           0.722   7.674   1.067  0.00  0.00     0.033 H 
ATOM     19  H2  <0> d           1.593   7.768  -0.483  0.00  0.00     0.033 H 
ATOM     20  H3  <0> d          -0.179   7.598  -0.467  0.00  0.00     0.033 H 
ENDBRANCH   1  17
TORSDOF 4
