REMARK  3 active torsions:
REMARK  status: ('A' for Active; 'I' for Inactive)
REMARK    1  A    between atoms: C1_1  and  C2_2 
REMARK    2  A    between atoms: C2_2  and  O2_13 
REMARK    3  A    between atoms: C8_10  and  O1_12 
ROOT
ATOM      1  C2  <0> d          -0.136   3.208  -1.225  0.00  0.00     0.058 C 
ATOM      2  C3  <0> d          -0.681   1.764  -1.146  0.00  0.00    -0.031 C 
ATOM      3  C4  <0> d           0.043   1.136   0.084  0.00  0.00    -0.026 C 
ATOM      4  H1  <0> d           0.065   0.047   0.120  0.00  0.00     0.044 H 
ATOM      5  C5  <0> d           1.436   1.855  -0.001  0.00  0.00    -0.053 C 
ATOM      6  C6  <0> d           0.866   3.317  -0.036  0.00  0.00    -0.022 C 
ATOM      7  H2  <0> d           1.602   4.119  -0.104  0.00  0.00     0.044 H 
ATOM      8  C7  <0> d          -0.035   3.306   1.236  0.00  0.00    -0.035 C 
ATOM      9  C8  <0> d          -0.572   1.847   1.328  0.00  0.00     0.039 C 
ATOM     10  H3  <0> d          -1.660   1.849   1.266  0.00  0.00     0.083 H 
ATOM     11  H7  <0> d          -0.434   1.213  -2.054  0.00  0.00     0.038 H 
ATOM     12  H8  <0> d          -1.760   1.773  -0.988  0.00  0.00     0.038 H 
ATOM     13  H9  <0> d           2.044   1.674   0.885  0.00  0.00     0.034 H 
ATOM     14  H10 <0> d           1.970   1.603  -0.917  0.00  0.00     0.034 H 
ATOM     15  H11 <0> d           0.555   3.538   2.123  0.00  0.00     0.037 H 
ATOM     16  H12 <0> d          -0.854   4.017   1.129  0.00  0.00     0.037 H 
ENDROOT
BRANCH   1  17
ATOM     17  C1  <0> d          -1.274   4.217  -1.059  0.00  0.00    -0.048 C 
ATOM     18  H4  <0> d          -0.856   5.210  -0.890  0.00  0.00     0.031 H 
ATOM     19  H5  <0> d          -1.885   4.229  -1.961  0.00  0.00     0.031 H 
ATOM     20  H6  <0> d          -1.890   3.933  -0.206  0.00  0.00     0.031 H 
ENDBRANCH   1  17
BRANCH   1  21
ATOM     21  O2  <0> d           0.539   3.420  -2.467  0.00  0.00    -0.390 OA
ATOM     22  H14 <0> d          -0.036   3.364  -3.242  0.00  0.00     0.210 HD
ENDBRANCH   1  21
BRANCH   9  23
ATOM     23  O1  <0> d          -0.142   1.206   2.531  0.00  0.00    -0.395 OA
ATOM     24  H13 <0> d          -0.495   1.607   3.338  0.00  0.00     0.210 HD
ENDBRANCH   9  23
TORSDOF 3
