REMARK  5 active torsions:
REMARK  status: ('A' for Active; 'I' for Inactive)
REMARK    1  A    between atoms: C1_1  and  C2_2 
REMARK    2  A    between atoms: C2_2  and  O1_3 
REMARK    3  A    between atoms: O1_3  and  C3_4 
REMARK    4  A    between atoms: C3_4  and  C4_6 
REMARK    5  A    between atoms: C4_6  and  O3_9 
ROOT
ATOM      1  C3  <0> d           2.132   0.783   1.261  0.00  0.00     0.293 C 
ATOM      2  O2  <0> d           1.589   0.939   2.329  0.00  0.00    -0.262 OA
ENDROOT
BRANCH   1   3
ATOM      3  O1  <0> d           3.462   0.613   1.204  0.00  0.00    -0.319 OA
BRANCH   3   4
ATOM      4  C2  <0> d           4.184   0.628   2.463  0.00  0.00     0.026 C 
ATOM      5  H4  <0> d           4.032   1.588   2.958  0.00  0.00     0.074 H 
ATOM      6  H5  <0> d           3.814  -0.172   3.104  0.00  0.00     0.074 H 
BRANCH   4   7
ATOM      7  C1  <0> d           5.676   0.421   2.199  0.00  0.00    -0.056 C 
ATOM      8  H1  <0> d           6.218   0.433   3.145  0.00  0.00     0.030 H 
ATOM      9  H2  <0> d           5.828  -0.538   1.705  0.00  0.00     0.030 H 
ATOM     10  H3  <0> d           6.046   1.222   1.559  0.00  0.00     0.030 H 
ENDBRANCH   4   7
ENDBRANCH   3   4
ENDBRANCH   1   3
BRANCH   1  11
ATOM     11  C4  <0> d           1.317   0.779  -0.006  0.00  0.00     0.145 A 
ATOM     12  C6  <0> d           0.002  -0.004   0.002  0.00  0.00    -0.024 A 
ATOM     13  C5  <0> d          -0.019   1.526   0.010  0.00  0.00    -0.024 A 
ATOM     14  H8  <0> d          -0.273  -0.516   0.924  0.00  0.00     0.038 H 
ATOM     15  H9  <0> d          -0.290  -0.506  -0.920  0.00  0.00     0.038 H 
ATOM     16  H6  <0> d          -0.325   2.030  -0.906  0.00  0.00     0.038 H 
ATOM     17  H7  <0> d          -0.307   2.020   0.938  0.00  0.00     0.038 H 
BRANCH  11  18
ATOM     18  O3  <0> d           2.067   0.796  -1.222  0.00  0.00    -0.380 OA
ATOM     19  H10 <0> d           2.901   0.309  -1.177  0.00  0.00     0.211 HD
ENDBRANCH  11  18
ENDBRANCH   1  11
TORSDOF 5
