REMARK  1 active torsions:
REMARK  status: ('A' for Active; 'I' for Inactive)
REMARK    1  A    between atoms: C1_1  and  C2_2 
ROOT
ATOM      1  C2  <0> d           1.311   2.007   0.000  0.00  0.00     0.061 A 
ATOM      2  C3  <0> d          -0.021   1.728   0.011  0.00  0.00    -0.000 A 
ATOM      3  S1  <0> d           0.002  -0.004   0.002  0.00  0.00     0.025 SA
ATOM      4  N1  <0> d           1.564  -0.235  -0.014  0.00  0.00    -0.111 NA
ATOM      5  N2  <0> d           2.083   0.941  -0.013  0.00  0.00    -0.147 NA
ATOM      6  H4  <0> d          -0.864   2.403   0.019  0.00  0.00     0.100 H 
ENDROOT
BRANCH   1   7
ATOM      7  C1  <0> d           1.854   3.413   0.003  0.00  0.00    -0.033 C 
ATOM      8  H1  <0> d           1.995   3.746   1.031  0.00  0.00     0.035 H 
ATOM      9  H2  <0> d           2.811   3.434  -0.520  0.00  0.00     0.035 H 
ATOM     10  H3  <0> d           1.150   4.075  -0.501  0.00  0.00     0.035 H 
ENDBRANCH   1   7
TORSDOF 1
