REMARK  4 active torsions:
REMARK  status: ('A' for Active; 'I' for Inactive)
REMARK    1  A    between atoms: C1_1  and  C2_2 
REMARK    2  A    between atoms: C4_4  and  C8_10 
REMARK    3  A    between atoms: N1_5  and  C5_7 
REMARK    4  A    between atoms: C5_7  and  C6_8 
ROOT
ATOM      1  C2  <0> d          -3.593   0.208  -2.290  0.00  0.00     0.053 A 
ATOM      2  C3  <0> d          -3.042   1.209  -3.096  0.00  0.00    -0.035 A 
ATOM      3  C4  <0> d          -2.160   1.909  -2.346  0.00  0.00     0.029 A 
ATOM      4  N1  <0> d          -2.146   1.365  -1.112  0.00  0.00    -0.271 N 
ATOM      5  N2  <0> d          -3.057   0.300  -1.100  0.00  0.00    -0.177 NA
ATOM      6  H4  <0> d          -3.282   1.393  -4.133  0.00  0.00     0.089 H 
ENDROOT
BRANCH   4   7
ATOM      7  C5  <0> d          -1.328   1.812   0.018  0.00  0.00     0.031 C 
ATOM      8  H5  <0> d          -1.853   1.605   0.951  0.00  0.00     0.073 H 
ATOM      9  H6  <0> d          -1.145   2.883  -0.066  0.00  0.00     0.073 H 
BRANCH   7  10
ATOM     10  C6  <0> d          -0.013   1.076   0.008  0.00  0.00    -0.093 C 
ATOM     11  C7  <0> d           1.113   1.746   0.001  0.00  0.00    -0.123 C 
ATOM     12  H8  <0> d           1.098   2.826   0.007  0.00  0.00     0.066 H 
ATOM     13  H9  <0> d           2.055   1.219  -0.011  0.00  0.00     0.066 H 
ATOM     14  H7  <0> d           0.002  -0.004   0.002  0.00  0.00     0.078 H 
ENDBRANCH   7  10
ENDBRANCH   4   7
BRANCH   3  15
ATOM     15  C8  <0> d          -1.338   3.085  -2.808  0.00  0.00    -0.036 C 
ATOM     16  H10 <0> d          -0.389   2.729  -3.210  0.00  0.00     0.035 H 
ATOM     17  H11 <0> d          -1.880   3.626  -3.583  0.00  0.00     0.035 H 
ATOM     18  H12 <0> d          -1.149   3.749  -1.966  0.00  0.00     0.035 H 
ENDBRANCH   3  15
BRANCH   1  19
ATOM     19  C1  <0> d          -4.627  -0.802  -2.717  0.00  0.00    -0.034 C 
ATOM     20  H1  <0> d          -5.624  -0.403  -2.532  0.00  0.00     0.035 H 
ATOM     21  H2  <0> d          -4.511  -1.013  -3.780  0.00  0.00     0.035 H 
ATOM     22  H3  <0> d          -4.493  -1.722  -2.148  0.00  0.00     0.035 H 
ENDBRANCH   1  19
TORSDOF 4
