REMARK  2 active torsions:
REMARK  status: ('A' for Active; 'I' for Inactive)
REMARK    1  A    between atoms: C4_4  and  C7_7 
REMARK    2  A    between atoms: C7_7  and  C8_8 
REMARK       I    between atoms: C8_8  and  N1_10 
ROOT
ATOM      1  C1  <0> d           1.279   6.284  -1.158  0.00  0.00    -0.065 C 
ATOM      2  C2  <0> d           1.989   5.896   0.141  0.00  0.00    -0.065 C 
ATOM      3  C3  <0> d           2.289   4.396   0.130  0.00  0.00    -0.061 C 
ATOM      4  C4  <0> d           0.979   3.615   0.012  0.00  0.00    -0.046 C 
ATOM      5  C5  <0> d           0.268   4.003  -1.286  0.00  0.00    -0.061 C 
ATOM      6  C6  <0> d          -0.032   5.503  -1.276  0.00  0.00    -0.065 C 
ATOM      7  H1  <0> d           1.926   6.046  -2.015  0.00  0.00     0.033 H 
ATOM      8  H2  <0> d           1.063   7.363  -1.150  0.00  0.00     0.033 H 
ATOM      9  H3  <0> d           2.931   6.458   0.225  0.00  0.00     0.033 H 
ATOM     10  H4  <0> d           1.342   6.135   0.998  0.00  0.00     0.033 H 
ATOM     11  H5  <0> d           2.936   4.158  -0.728  0.00  0.00     0.033 H 
ATOM     12  H6  <0> d           2.800   4.117   1.063  0.00  0.00     0.033 H 
ATOM     13  H7  <0> d           0.332   3.853   0.869  0.00  0.00     0.040 H 
ATOM     14  H8  <0> d           0.915   3.764  -2.143  0.00  0.00     0.033 H 
ATOM     15  H9  <0> d          -0.674   3.441  -1.371  0.00  0.00     0.033 H 
ATOM     16  H10 <0> d          -0.679   5.741  -0.418  0.00  0.00     0.033 H 
ATOM     17  H11 <0> d          -0.542   5.782  -2.209  0.00  0.00     0.033 H 
ENDROOT
BRANCH   4  18
ATOM     18  C7  <0> d           1.278   2.115   0.001  0.00  0.00     0.012 C 
ATOM     19  H12 <0> d           1.850   1.862  -0.904  0.00  0.00     0.047 H 
ATOM     20  H13 <0> d           1.867   1.852   0.892  0.00  0.00     0.047 H 
BRANCH  18  21
ATOM     21  C8  <0> d          -0.016   1.344   0.009  0.00  0.00     0.215 C 
ATOM     22  O1  <0> d          -1.075   1.936   0.018  0.00  0.00    -0.274 OA
ATOM     23  N1  <0> d           0.002  -0.004   0.002  0.00  0.00    -0.370 N 
ATOM     24  H14 <0> d          -0.943  -0.567   0.008  0.00  0.00     0.159 HD
ATOM     25  H15 <0> d           0.962  -0.541  -0.010  0.00  0.00     0.159 HD
ENDBRANCH  18  21
ENDBRANCH   4  18
TORSDOF 2
