REMARK  3 active torsions:
REMARK  status: ('A' for Active; 'I' for Inactive)
REMARK    1  A    between atoms: C1_1  and  N1_2 
REMARK       I    between atoms: N1_2  and  C2_3 
REMARK    2  A    between atoms: C2_3  and  C3_5 
REMARK    3  A    between atoms: N3_8  and  C6_10 
ROOT
ATOM      1  C3  <0> d           1.089   1.908   0.002  0.00  0.00     0.068 A 
ATOM      2  C4  <0> d           0.608   3.236   0.013  0.00  0.00     0.038 A 
ATOM      3  N2  <0> d          -0.696   3.194   0.025  0.00  0.00    -0.185 NA
ATOM      4  N3  <0> d          -1.105   1.856   0.017  0.00  0.00    -0.285 N 
ATOM      5  C5  <0> d          -0.013   1.076   0.008  0.00  0.00     0.015 A 
ATOM      6  H5  <0> d           1.214   4.131   0.012  0.00  0.00     0.119 H 
ATOM      7  H6  <0> d           0.002  -0.004   0.002  0.00  0.00     0.115 H 
ENDROOT
BRANCH   1   8
ATOM      8  C2  <0> d           2.502   1.489  -0.013  0.00  0.00     0.254 C 
ATOM      9  N1  <0> d           3.480   2.416  -0.018  0.00  0.00    -0.361 N 
ATOM     10  H4  <0> d           3.224   3.486  -0.010  0.00  0.00     0.162 HD
ATOM     11  O1  <0> d           2.786   0.306  -0.021  0.00  0.00    -0.268 OA
BRANCH   9  12
ATOM     12  C1  <0> d           4.885   2.000  -0.032  0.00  0.00    -0.018 C 
ATOM     13  H1  <0> d           5.531   2.890  -0.034  0.00  0.00     0.056 H 
ATOM     14  H2  <0> d           5.080   1.403  -0.935  0.00  0.00     0.056 H 
ATOM     15  H3  <0> d           5.097   1.394   0.861  0.00  0.00     0.056 H 
ENDBRANCH   9  12
ENDBRANCH   1   8
BRANCH   4  16
ATOM     16  C6  <0> d          -2.493   1.385   0.021  0.00  0.00     0.002 C 
ATOM     17  H7  <0> d          -2.507   0.285   0.012  0.00  0.00     0.059 H 
ATOM     18  H8  <0> d          -3.011   1.765  -0.872  0.00  0.00     0.059 H 
ATOM     19  H9  <0> d          -3.002   1.752   0.924  0.00  0.00     0.059 H 
ENDBRANCH   4  16
TORSDOF 3
