REMARK  2 active torsions:
REMARK  status: ('A' for Active; 'I' for Inactive)
REMARK    1  A    between atoms: C4_4  and  C7_7 
REMARK    2  A    between atoms: C7_7  and  O1_8 
ROOT
ATOM      1  C1  <0> d          -2.908   1.865   0.040  0.00  0.00    -0.065 C 
ATOM      2  C2  <0> d          -2.192   1.372  -1.219  0.00  0.00    -0.062 C 
ATOM      3  C3  <0> d          -0.757   1.902  -1.230  0.00  0.00    -0.029 C 
ATOM      4  C4  <0> d          -0.017   1.395   0.010  0.00  0.00     0.124 C 
ATOM      5  C5  <0> d          -0.733   1.888   1.268  0.00  0.00    -0.029 C 
ATOM      6  C6  <0> d          -2.168   1.359   1.279  0.00  0.00    -0.062 C 
ATOM      7  F1  <0> d           0.002  -0.004   0.002  0.00  0.00    -0.241 F 
ATOM      8  H1  <0> d          -3.940   1.485   0.048  0.00  0.00     0.033 H 
ATOM      9  H2  <0> d          -2.923   2.965   0.046  0.00  0.00     0.033 H 
ATOM     10  H3  <0> d          -2.177   0.272  -1.225  0.00  0.00     0.033 H 
ATOM     11  H4  <0> d          -2.724   1.736  -2.110  0.00  0.00     0.033 H 
ATOM     12  H5  <0> d          -0.242   1.547  -2.135  0.00  0.00     0.037 H 
ATOM     13  H6  <0> d          -0.772   3.002  -1.224  0.00  0.00     0.037 H 
ATOM     14  H7  <0> d          -0.201   1.524   2.160  0.00  0.00     0.037 H 
ATOM     15  H8  <0> d          -0.748   2.988   1.275  0.00  0.00     0.037 H 
ATOM     16  H9  <0> d          -2.683   1.713   2.184  0.00  0.00     0.033 H 
ATOM     17  H10 <0> d          -2.154   0.259   1.273  0.00  0.00     0.033 H 
ENDROOT
BRANCH   4  18
ATOM     18  C7  <0> d           1.419   1.924  -0.001  0.00  0.00     0.050 C 
ATOM     19  H11 <0> d           1.933   1.570  -0.906  0.00  0.00     0.079 H 
ATOM     20  H12 <0> d           1.404   3.024   0.005  0.00  0.00     0.079 H 
BRANCH  18  21
ATOM     21  O1  <0> d           2.110   1.451   1.157  0.00  0.00    -0.398 OA
ATOM     22  H13 <0> d           3.161   1.730   1.322  0.00  0.00     0.209 HD
ENDBRANCH  18  21
ENDBRANCH   4  18
TORSDOF 2
