REMARK  5 active torsions:
REMARK  status: ('A' for Active; 'I' for Inactive)
REMARK    1  A    between atoms: C1_1  and  C2_2 
REMARK    2  A    between atoms: C2_2  and  C3_4 
REMARK    3  A    between atoms: C2_2  and  C5_7 
REMARK    4  A    between atoms: C3_4  and  C4_5 
REMARK    5  A    between atoms: C4_5  and  O1_6 
ROOT
ATOM      1  C2  <0> d          -1.413  -2.063   0.004  0.00  0.00    -0.030 C 
ATOM      2  H1  <0> d          -0.810  -2.423   0.839  0.00  0.00     0.046 H 
ENDROOT
BRANCH   1   3
ATOM      3  C1  <0> d          -0.809  -2.558  -1.311  0.00  0.00    -0.069 C 
ATOM      4  H2  <0> d          -1.411  -2.198  -2.146  0.00  0.00     0.028 H 
ATOM      5  H3  <0> d           0.209  -2.180  -1.409  0.00  0.00     0.028 H 
ATOM      6  H4  <0> d          -0.794  -3.648  -1.317  0.00  0.00     0.028 H 
ENDBRANCH   1   3
BRANCH   1   7
ATOM      7  C3  <0> d          -1.433  -0.534   0.013  0.00  0.00    -0.039 C 
ATOM      8  H5  <0> d          -1.944  -0.182   0.910  0.00  0.00     0.037 H 
ATOM      9  H6  <0> d          -1.960  -0.173  -0.870  0.00  0.00     0.037 H 
BRANCH   7  10
ATOM     10  C4  <0> d           0.002  -0.004   0.002  0.00  0.00     0.017 C 
ATOM     11  H7  <0> d           0.512  -0.356  -0.895  0.00  0.00     0.074 H 
ATOM     12  H8  <0> d           0.529  -0.365   0.885  0.00  0.00     0.074 H 
BRANCH  10  13
ATOM     13  O1  <0> d          -0.017   1.425   0.010  0.00  0.00    -0.401 OA
ATOM     14  H9  <0> d           0.861   1.830   0.004  0.00  0.00     0.209 HD
ENDBRANCH  10  13
ENDBRANCH   7  10
ENDBRANCH   1   7
BRANCH   1  15
ATOM     15  C5  <0> d          -2.820  -2.586   0.139  0.00  0.00    -0.054 A 
ATOM     16  C10 <0> d          -3.159  -3.391   1.210  0.00  0.00    -0.076 A 
ATOM     17  C9  <0> d          -4.450  -3.870   1.333  0.00  0.00    -0.082 A 
ATOM     18  H14 <0> d          -2.415  -3.646   1.950  0.00  0.00     0.084 H 
ATOM     19  C8  <0> d          -5.402  -3.543   0.386  0.00  0.00    -0.083 A 
ATOM     20  H13 <0> d          -4.714  -4.500   2.170  0.00  0.00     0.083 H 
ATOM     21  C7  <0> d          -5.063  -2.737  -0.685  0.00  0.00    -0.082 A 
ATOM     22  H12 <0> d          -6.410  -3.917   0.482  0.00  0.00     0.083 H 
ATOM     23  C6  <0> d          -3.773  -2.255  -0.806  0.00  0.00    -0.076 A 
ATOM     24  H11 <0> d          -5.806  -2.482  -1.425  0.00  0.00     0.083 H 
ATOM     25  H10 <0> d          -3.509  -1.622  -1.640  0.00  0.00     0.084 H 
ENDBRANCH   1  15
TORSDOF 5
