REMARK  4 active torsions:
REMARK  status: ('A' for Active; 'I' for Inactive)
REMARK    1  A    between atoms: C1_1  and  C2_2 
REMARK    2  A    between atoms: C2_2  and  C3_3 
REMARK    3  A    between atoms: C2_2  and  C4_4 
REMARK    4  A    between atoms: C4_4  and  C5_6 
ROOT
ATOM      1  C2  <0> d           1.280   1.981   0.001  0.00  0.00     0.004 C 
ATOM      2  H4  <0> d           1.144   2.856  -0.465  0.00  0.00     0.051 H 
ENDROOT
BRANCH   1   3
ATOM      3  C1  <0> d           1.732   2.235   1.440  0.00  0.00    -0.066 C 
ATOM      4  H1  <0> d           2.669   2.792   1.434  0.00  0.00     0.028 H 
ATOM      5  H2  <0> d           0.970   2.811   1.964  0.00  0.00     0.028 H 
ATOM      6  H3  <0> d           1.880   1.281   1.947  0.00  0.00     0.028 H 
ENDBRANCH   1   3
BRANCH   1   7
ATOM      7  C3  <0> d           2.351   1.173  -0.735  0.00  0.00    -0.066 C 
ATOM      8  H5  <0> d           2.029   0.993  -1.761  0.00  0.00     0.028 H 
ATOM      9  H6  <0> d           3.287   1.731  -0.741  0.00  0.00     0.028 H 
ATOM     10  H7  <0> d           2.499   0.220  -0.228  0.00  0.00     0.028 H 
ENDBRANCH   1   7
BRANCH   1  11
ATOM     11  C4  <0> d          -0.014   1.210   0.009  0.00  0.00     0.186 C 
ATOM     12  O1  <0> d           0.002  -0.004   0.002  0.00  0.00    -0.290 OA
BRANCH  11  13
ATOM     13  C5  <0> d          -1.248   1.900   0.018  0.00  0.00     0.121 A 
ATOM     14  O2  <0> d          -1.410   3.240   0.032  0.00  0.00    -0.319 OA
ATOM     15  C8  <0> d          -2.716   3.531   0.034  0.00  0.00     0.019 A 
ATOM     16  C7  <0> d          -3.425   2.379   0.031  0.00  0.00    -0.059 A 
ATOM     17  H10 <0> d          -3.137   4.526   0.042  0.00  0.00     0.123 H 
ATOM     18  C6  <0> d          -2.502   1.324   0.021  0.00  0.00    -0.045 A 
ATOM     19  H9  <0> d          -4.501   2.288   0.035  0.00  0.00     0.086 H 
ATOM     20  H8  <0> d          -2.728   0.268   0.016  0.00  0.00     0.088 H 
ENDBRANCH  11  13
ENDBRANCH   1  11
TORSDOF 4
