REMARK  1 active torsions:
REMARK  status: ('A' for Active; 'I' for Inactive)
REMARK    1  A    between atoms: C1_1  and  C2_2 
ROOT
ATOM      1  C2  <0> d           2.396   0.043  -0.021  0.00  0.00    -0.055 A 
ATOM      2  C3  <0> d           2.383   1.426  -0.014  0.00  0.00    -0.075 A 
ATOM      3  C4  <0> d           1.183   2.106   0.002  0.00  0.00    -0.062 A 
ATOM      4  C5  <0> d          -0.017   1.394   0.010  0.00  0.00     0.051 A 
ATOM      5  C6  <0> d           0.002  -0.004   0.002  0.00  0.00    -0.031 A 
ATOM      6  C7  <0> d           1.209  -0.672  -0.013  0.00  0.00    -0.044 A 
ATOM      7  C8  <0> d           0.966  -2.167  -0.018  0.00  0.00    -0.040 C 
ATOM      8  C9  <0> d          -0.499  -2.340   0.435  0.00  0.00    -0.058 C 
ATOM      9  C10 <0> d          -1.137  -1.001   0.008  0.00  0.00    -0.039 C 
ATOM     10  C11 <0> d          -1.266   2.094   0.019  0.00  0.00     0.100 C 
ATOM     11  N1  <0> d          -2.257   2.650   0.027  0.00  0.00    -0.191 NA
ATOM     12  H4  <0> d           3.313   1.974  -0.021  0.00  0.00     0.084 H 
ATOM     13  H5  <0> d           1.173   3.186   0.007  0.00  0.00     0.085 H 
ATOM     14  H6  <0> d           1.640  -2.662   0.681  0.00  0.00     0.040 H 
ATOM     15  H7  <0> d           1.101  -2.568  -1.023  0.00  0.00     0.040 H 
ATOM     16  H8  <0> d          -0.557  -2.470   1.515  0.00  0.00     0.033 H 
ATOM     17  H9  <0> d          -0.969  -3.176  -0.084  0.00  0.00     0.033 H 
ATOM     18  H10 <0> d          -1.900  -0.699   0.726  0.00  0.00     0.040 H 
ATOM     19  H11 <0> d          -1.569  -1.087  -0.989  0.00  0.00     0.040 H 
ENDROOT
BRANCH   1  20
ATOM     20  C1  <0> d           3.712  -0.692  -0.037  0.00  0.00    -0.051 C 
ATOM     21  H1  <0> d           4.019  -0.863  -1.069  0.00  0.00     0.033 H 
ATOM     22  H2  <0> d           4.468  -0.094   0.472  0.00  0.00     0.033 H 
ATOM     23  H3  <0> d           3.600  -1.648   0.473  0.00  0.00     0.033 H 
ENDBRANCH   1  20
TORSDOF 1
