REMARK  5 active torsions:
REMARK  status: ('A' for Active; 'I' for Inactive)
REMARK    1  A    between atoms: C1_1  and  N1_2 
REMARK    2  A    between atoms: N1_2  and  C2_3 
REMARK    3  A    between atoms: N1_2  and  C3_4 
REMARK    4  A    between atoms: C6_7  and  C9_10 
REMARK    5  A    between atoms: C9_10  and  O1_11 
ROOT
ATOM      1  C3  <0> d          -2.013   2.464   3.524  0.00  0.00     0.029 A 
ATOM      2  C4  <0> d          -2.368   1.249   2.953  0.00  0.00    -0.057 A 
ATOM      3  C5  <0> d          -1.720   0.806   1.817  0.00  0.00    -0.073 A 
ATOM      4  C6  <0> d          -0.718   1.572   1.248  0.00  0.00    -0.035 A 
ATOM      5  C7  <0> d          -0.358   2.780   1.817  0.00  0.00    -0.073 A 
ATOM      6  C8  <0> d          -1.007   3.231   2.950  0.00  0.00    -0.057 A 
ATOM      7  H7  <0> d          -3.150   0.650   3.397  0.00  0.00     0.086 H 
ATOM      8  H8  <0> d          -1.995  -0.138   1.372  0.00  0.00     0.084 H 
ATOM      9  H9  <0> d           0.427   3.373   1.373  0.00  0.00     0.084 H 
ATOM     10  H10 <0> d          -0.729   4.176   3.392  0.00  0.00     0.086 H 
ENDROOT
BRANCH   1  11
ATOM     11  N1  <0> d          -2.667   2.915   4.673  0.00  0.00    -0.390 N 
BRANCH  11  12
ATOM     12  C1  <0> d          -3.729   2.106   5.277  0.00  0.00    -0.019 C 
ATOM     13  H1  <0> d          -3.295   1.427   6.011  0.00  0.00     0.056 H 
ATOM     14  H2  <0> d          -4.449   2.759   5.768  0.00  0.00     0.056 H 
ATOM     15  H3  <0> d          -4.232   1.528   4.501  0.00  0.00     0.056 H 
ENDBRANCH  11  12
BRANCH  11  16
ATOM     16  C2  <0> d          -2.292   4.197   5.275  0.00  0.00    -0.019 C 
ATOM     17  H4  <0> d          -2.448   4.997   4.551  0.00  0.00     0.056 H 
ATOM     18  H5  <0> d          -2.906   4.378   6.156  0.00  0.00     0.056 H 
ATOM     19  H6  <0> d          -1.241   4.169   5.564  0.00  0.00     0.056 H 
ENDBRANCH  11  16
ENDBRANCH   1  11
BRANCH   4  20
ATOM     20  C9  <0> d          -0.013   1.086   0.008  0.00  0.00     0.040 C 
ATOM     21  H11 <0> d           0.002  -0.004   0.002  0.00  0.00     0.081 H 
ATOM     22  H12 <0> d           1.010   1.463   0.000  0.00  0.00     0.081 H 
BRANCH  20  23
ATOM     23  O1  <0> d          -0.704   1.559  -1.150  0.00  0.00    -0.396 OA
ATOM     24  H13 <0> d          -0.304   1.284  -1.986  0.00  0.00     0.209 HD
ENDBRANCH  20  23
ENDBRANCH   4  20
TORSDOF 5
