REMARK  0 active torsions:
REMARK  status: ('A' for Active; 'I' for Inactive)
ROOT
ATOM      1  C1  <0> d          -0.017   1.378   0.010  0.00  0.00    -0.058 A 
ATOM      2  C2  <0> d           1.184   2.067   0.002  0.00  0.00     0.002 A 
ATOM      3  N1  <0> d           2.330   1.416  -0.013  0.00  0.00    -0.271 NA
ATOM      4  C3  <0> d           2.389   0.101  -0.020  0.00  0.00     0.028 A 
ATOM      5  C4  <0> d           1.223  -0.666  -0.014  0.00  0.00     0.052 A 
ATOM      6  C5  <0> d           0.002  -0.004   0.002  0.00  0.00    -0.027 A 
ATOM      7  C6  <0> d          -1.103  -1.032   0.007  0.00  0.00    -0.024 A 
ATOM      8  C7  <0> d          -0.371  -2.385  -0.008  0.00  0.00    -0.004 A 
ATOM      9  N2  <0> d           1.056  -2.050  -0.019  0.00  0.00    -0.388 N 
ATOM     10  H1  <0> d          -0.955   1.913   0.026  0.00  0.00     0.086 H 
ATOM     11  H2  <0> d           1.181   3.147   0.007  0.00  0.00     0.114 H 
ATOM     12  H3  <0> d           3.350  -0.390  -0.032  0.00  0.00     0.118 H 
ATOM     13  H4  <0> d          -1.708  -0.936   0.908  0.00  0.00     0.042 H 
ATOM     14  H5  <0> d          -1.725  -0.926  -0.882  0.00  0.00     0.042 H 
ATOM     15  H6  <0> d          -0.618  -2.957   0.886  0.00  0.00     0.064 H 
ATOM     16  H7  <0> d          -0.635  -2.947  -0.903  0.00  0.00     0.064 H 
ATOM     17  H8  <0> d           1.778  -2.697  -0.030  0.00  0.00     0.159 HD
ENDROOT
TORSDOF 0
