REMARK  5 active torsions:
REMARK  status: ('A' for Active; 'I' for Inactive)
REMARK    1  A    between atoms: C2_2  and  C3_3 
REMARK    2  A    between atoms: C3_3  and  C4_4 
REMARK    3  A    between atoms: C4_4  and  C5_5 
REMARK    4  A    between atoms: C5_5  and  C6_6 
REMARK    5  A    between atoms: C6_6  and  C7_7 
ROOT
ATOM      1  C1  <0> d           4.319   8.175   0.005  0.00  0.00    -0.154 C 
ATOM      2  C2  <0> d           4.274   7.001  -0.001  0.00  0.00    -0.117 C 
ATOM      3  H1  <0> d           4.360   9.224   0.010  0.00  0.00     0.166 H 
ENDROOT
BRANCH   2   4
ATOM      4  C3  <0> d           4.217   5.531  -0.009  0.00  0.00    -0.010 C 
ATOM      5  H2  <0> d           4.724   5.143   0.875  0.00  0.00     0.051 H 
ATOM      6  H3  <0> d           4.707   5.152  -0.905  0.00  0.00     0.051 H 
BRANCH   4   7
ATOM      7  C4  <0> d           2.755   5.077   0.003  0.00  0.00    -0.055 C 
ATOM      8  H4  <0> d           2.248   5.465  -0.880  0.00  0.00     0.034 H 
ATOM      9  H5  <0> d           2.265   5.455   0.900  0.00  0.00     0.034 H 
BRANCH   7  10
ATOM     10  C5  <0> d           2.696   3.548  -0.005  0.00  0.00    -0.055 C 
ATOM     11  H6  <0> d           3.204   3.160   0.878  0.00  0.00     0.033 H 
ATOM     12  H7  <0> d           3.187   3.170  -0.901  0.00  0.00     0.033 H 
BRANCH  10  13
ATOM     13  C6  <0> d           1.235   3.094   0.007  0.00  0.00     0.016 C 
ATOM     14  H8  <0> d           0.727   3.482  -0.876  0.00  0.00     0.049 H 
ATOM     15  H9  <0> d           0.744   3.473   0.904  0.00  0.00     0.049 H 
BRANCH  13  16
ATOM     16  C7  <0> d           1.177   1.588  -0.001  0.00  0.00     0.172 C 
ATOM     17  O1  <0> d           2.199   0.944  -0.014  0.00  0.00    -0.648 OA
ATOM     18  O2  <0> d          -0.011   0.963   0.007  0.00  0.00    -0.648 OA
ENDBRANCH  13  16
ENDBRANCH  10  13
ENDBRANCH   7  10
ENDBRANCH   4   7
ENDBRANCH   2   4
TORSDOF 5
