REMARK  1 active torsions:
REMARK  status: ('A' for Active; 'I' for Inactive)
REMARK    1  A    between atoms: C1_1  and  C2_2 
ROOT
ATOM      1  C2  <0> d           1.097   2.025   0.003  0.00  0.00     0.033 A 
ATOM      2  C3  <0> d           2.331   1.403  -0.013  0.00  0.00    -0.059 A 
ATOM      3  C4  <0> d           2.391   0.017  -0.020  0.00  0.00    -0.077 A 
ATOM      4  C5  <0> d           1.203  -0.695  -0.013  0.00  0.00    -0.027 A 
ATOM      5  C6  <0> d           0.002  -0.004   0.002  0.00  0.00     0.210 A 
ATOM      6  N1  <0> d          -0.016   1.316   0.009  0.00  0.00    -0.226 NA
ATOM      7  F1  <0> d          -1.163  -0.688   0.009  0.00  0.00    -0.184 F 
ATOM      8  H4  <0> d           3.238   1.989  -0.019  0.00  0.00     0.086 H 
ATOM      9  H5  <0> d           3.342  -0.494  -0.032  0.00  0.00     0.083 H 
ATOM     10  H6  <0> d           1.212  -1.775  -0.019  0.00  0.00     0.090 H 
ENDROOT
BRANCH   1  11
ATOM     11  C1  <0> d           1.022   3.530   0.011  0.00  0.00    -0.035 C 
ATOM     12  H1  <0> d           1.013   3.887   1.041  0.00  0.00     0.035 H 
ATOM     13  H2  <0> d           1.887   3.940  -0.509  0.00  0.00     0.035 H 
ATOM     14  H3  <0> d           0.110   3.851  -0.492  0.00  0.00     0.035 H 
ENDBRANCH   1  11
TORSDOF 1
