REMARK  6 active torsions:
REMARK  status: ('A' for Active; 'I' for Inactive)
REMARK    1  A    between atoms: C1_1  and  C2_2 
REMARK    2  A    between atoms: C2_2  and  C3_3 
REMARK    3  A    between atoms: C3_3  and  C4_5 
REMARK    4  A    between atoms: C3_3  and  O1_8 
REMARK    5  A    between atoms: O1_8  and  C6_9 
REMARK    6  A    between atoms: C6_9  and  C7_10 
ROOT
ATOM      1  C4  <0> d           0.249   0.680   0.294  0.00  0.00     0.039 C 
ATOM      2  C5  <0> d          -0.239   0.602  -1.092  0.00  0.00     0.061 C 
ATOM      3  N1  <0> d          -0.616   0.542  -2.162  0.00  0.00    -0.197 NA
ATOM      4  H7  <0> d           0.281  -0.321   0.725  0.00  0.00     0.058 H 
ATOM      5  H8  <0> d           1.250   1.111   0.304  0.00  0.00     0.058 H 
ENDROOT
BRANCH   1   6
ATOM      6  C3  <0> d          -0.694   1.559   1.119  0.00  0.00     0.049 C 
ATOM      7  H1  <0> d          -0.795   2.533   0.638  0.00  0.00     0.084 H 
BRANCH   6   8
ATOM      8  C2  <0> d          -0.121   1.742   2.526  0.00  0.00    -0.043 C 
ATOM      9  H5  <0> d          -0.086   0.777   3.032  0.00  0.00     0.036 H 
ATOM     10  H6  <0> d           0.886   2.153   2.457  0.00  0.00     0.036 H 
BRANCH   8  11
ATOM     11  C1  <0> d          -1.011   2.702   3.318  0.00  0.00    -0.074 C 
ATOM     12  H2  <0> d          -1.020   3.676   2.829  0.00  0.00     0.027 H 
ATOM     13  H3  <0> d          -2.025   2.306   3.359  0.00  0.00     0.027 H 
ATOM     14  H4  <0> d          -0.620   2.807   4.330  0.00  0.00     0.027 H 
ENDBRANCH   8  11
ENDBRANCH   6   8
BRANCH   6  15
ATOM     15  O1  <0> d          -1.976   0.934   1.204  0.00  0.00    -0.385 OA
BRANCH  15  16
ATOM     16  C6  <0> d          -3.041   1.718   0.662  0.00  0.00     0.017 C 
ATOM     17  H9  <0> d          -3.104   2.665   1.197  0.00  0.00     0.073 H 
ATOM     18  H10 <0> d          -2.851   1.909  -0.394  0.00  0.00     0.073 H 
BRANCH  16  19
ATOM     19  C7  <0> d          -4.361   0.958   0.813  0.00  0.00    -0.056 C 
ATOM     20  H11 <0> d          -5.173   1.555   0.399  0.00  0.00     0.030 H 
ATOM     21  H12 <0> d          -4.297   0.010   0.277  0.00  0.00     0.030 H 
ATOM     22  H13 <0> d          -4.551   0.766   1.869  0.00  0.00     0.030 H 
ENDBRANCH  16  19
ENDBRANCH  15  16
ENDBRANCH   6  15
ENDBRANCH   1   6
TORSDOF 6
