REMARK  7 active torsions:
REMARK  status: ('A' for Active; 'I' for Inactive)
REMARK    1  A    between atoms: C1_1  and  C2_2 
REMARK    2  A    between atoms: C2_2  and  C3_4 
REMARK    3  A    between atoms: C2_2  and  C6_9 
REMARK    4  A    between atoms: C3_4  and  C4_5 
REMARK    5  A    between atoms: C4_5  and  C5_6 
REMARK    6  A    between atoms: C6_9  and  O4_11 
REMARK    7  A    between atoms: O4_11  and  C7_12 
ROOT
ATOM      1  C2  <0> d           0.002  -0.004   0.002  0.00  0.00     0.027 C 
ATOM      2  H1  <0> d           0.512  -0.356  -0.895  0.00  0.00     0.054 H 
ENDROOT
BRANCH   1   3
ATOM      3  C1  <0> d          -0.019   1.526   0.010  0.00  0.00    -0.064 C 
ATOM      4  H2  <0> d           1.004   1.903   0.003  0.00  0.00     0.028 H 
ATOM      5  H3  <0> d          -0.546   1.887  -0.873  0.00  0.00     0.028 H 
ATOM      6  H4  <0> d          -0.529   1.877   0.907  0.00  0.00     0.028 H 
ENDBRANCH   1   3
BRANCH   1   7
ATOM      7  C3  <0> d          -1.433  -0.534   0.013  0.00  0.00    -0.044 C 
ATOM      8  H5  <0> d          -1.419  -1.620   0.097  0.00  0.00     0.035 H 
ATOM      9  H6  <0> d          -1.970  -0.111   0.862  0.00  0.00     0.035 H 
BRANCH   7  10
ATOM     10  C4  <0> d          -2.135  -0.131  -1.286  0.00  0.00     0.016 C 
ATOM     11  H7  <0> d          -2.150   0.956  -1.369  0.00  0.00     0.049 H 
ATOM     12  H8  <0> d          -1.598  -0.554  -2.135  0.00  0.00     0.049 H 
BRANCH  10  13
ATOM     13  C5  <0> d          -3.549  -0.653  -1.275  0.00  0.00     0.172 C 
ATOM     14  O1  <0> d          -3.957  -1.288  -0.318  0.00  0.00    -0.648 OA
ATOM     15  O2  <0> d          -4.285  -0.440  -2.224  0.00  0.00    -0.648 OA
ENDBRANCH  10  13
ENDBRANCH   7  10
ENDBRANCH   1   7
BRANCH   1  16
ATOM     16  C6  <0> d           0.731  -0.503   1.223  0.00  0.00     0.262 C 
ATOM     17  O3  <0> d           0.161  -1.210   2.020  0.00  0.00    -0.265 OA
BRANCH  16  18
ATOM     18  O4  <0> d           2.014  -0.163   1.425  0.00  0.00    -0.326 OA
BRANCH  18  19
ATOM     19  C7  <0> d           2.642  -0.672   2.603  0.00  0.00     0.013 C 
ATOM     20  H9  <0> d           3.674  -0.322   2.644  0.00  0.00     0.067 H 
ATOM     21  H10 <0> d           2.103  -0.320   3.483  0.00  0.00     0.067 H 
ATOM     22  H11 <0> d           2.628  -1.761   2.580  0.00  0.00     0.067 H 
ENDBRANCH  18  19
ENDBRANCH  16  18
ENDBRANCH   1  16
TORSDOF 7
