REMARK  7 active torsions:
REMARK  status: ('A' for Active; 'I' for Inactive)
REMARK    1  A    between atoms: C1_1  and  C2_2 
REMARK    2  A    between atoms: C2_2  and  C3_4 
REMARK    3  A    between atoms: C2_2  and  O2_11 
REMARK    4  A    between atoms: C3_4  and  C4_5 
REMARK    5  A    between atoms: C4_5  and  C5_7 
REMARK    6  A    between atoms: C4_5  and  O1_10 
REMARK    7  A    between atoms: C5_7  and  C6_8 
ROOT
ATOM      1  C4  <0> d          -2.182   1.345  -1.162  0.00  0.00     0.041 C 
ATOM      2  H2  <0> d          -2.291   0.261  -1.126  0.00  0.00     0.083 H 
ENDROOT
BRANCH   1   3
ATOM      3  C3  <0> d          -3.564   1.998  -1.081  0.00  0.00    -0.017 C 
ATOM      4  H6  <0> d          -4.010   1.785  -0.110  0.00  0.00     0.040 H 
ATOM      5  H7  <0> d          -3.463   3.076  -1.206  0.00  0.00     0.040 H 
BRANCH   3   6
ATOM      6  C2  <0> d          -4.458   1.437  -2.188  0.00  0.00     0.034 C 
ATOM      7  H1  <0> d          -4.487   0.350  -2.116  0.00  0.00     0.082 H 
BRANCH   6   8
ATOM      8  C1  <0> d          -5.874   1.996  -2.032  0.00  0.00    -0.052 C 
ATOM      9  H3  <0> d          -5.846   3.083  -2.104  0.00  0.00     0.030 H 
ATOM     10  H4  <0> d          -6.512   1.596  -2.821  0.00  0.00     0.030 H 
ATOM     11  H5  <0> d          -6.274   1.706  -1.060  0.00  0.00     0.030 H 
ENDBRANCH   6   8
BRANCH   6  12
ATOM     12  O2  <0> d          -3.935   1.817  -3.462  0.00  0.00    -0.396 OA
ATOM     13  H14 <0> d          -4.453   1.495  -4.213  0.00  0.00     0.210 HD
ENDBRANCH   6  12
ENDBRANCH   3   6
ENDBRANCH   1   3
BRANCH   1  14
ATOM     14  C5  <0> d          -1.328   1.812   0.018  0.00  0.00    -0.026 C 
ATOM     15  H8  <0> d          -1.853   1.605   0.951  0.00  0.00     0.042 H 
ATOM     16  H9  <0> d          -1.145   2.883  -0.066  0.00  0.00     0.042 H 
BRANCH  14  17
ATOM     17  C6  <0> d          -0.013   1.076   0.008  0.00  0.00    -0.110 C 
ATOM     18  C7  <0> d           1.113   1.746   0.001  0.00  0.00    -0.125 C 
ATOM     19  H11 <0> d           2.055   1.219  -0.011  0.00  0.00     0.066 H 
ATOM     20  H12 <0> d           1.098   2.826   0.007  0.00  0.00     0.066 H 
ATOM     21  H10 <0> d           0.002  -0.004   0.002  0.00  0.00     0.075 H 
ENDBRANCH  14  17
ENDBRANCH   1  14
BRANCH   1  22
ATOM     22  O1  <0> d          -1.549   1.720  -2.387  0.00  0.00    -0.395 OA
ATOM     23  H13 <0> d          -1.420   2.673  -2.487  0.00  0.00     0.210 HD
ENDBRANCH   1  22
TORSDOF 7
