REMARK  5 active torsions:
REMARK  status: ('A' for Active; 'I' for Inactive)
REMARK    1  A    between atoms: C1_1  and  C2_2 
REMARK    2  A    between atoms: C1_1  and  O5_14 
REMARK    3  A    between atoms: C3_4  and  O4_13 
REMARK    4  A    between atoms: C4_6  and  O3_12 
REMARK    5  A    between atoms: C5_8  and  O2_11 
ROOT
ATOM      1  C2  <0> d          -0.729   1.579   1.267  0.00  0.00     0.089 C 
ATOM      2  H1  <0> d          -1.774   1.272   1.253  0.00  0.00     0.090 H 
ATOM      3  C3  <0> d          -0.025   1.041   2.532  0.00  0.00     0.092 C 
ATOM      4  H2  <0> d          -0.545   0.163   2.914  0.00  0.00     0.091 H 
ATOM      5  C4  <0> d          -0.119   2.208   3.540  0.00  0.00     0.110 C 
ATOM      6  H3  <0> d           0.875   2.550   3.826  0.00  0.00     0.094 H 
ATOM      7  C5  <0> d          -0.870   3.314   2.764  0.00  0.00     0.156 C 
ATOM      8  H4  <0> d          -1.937   3.272   2.982  0.00  0.00     0.133 H 
ATOM      9  O1  <0> d          -0.628   3.016   1.372  0.00  0.00    -0.349 OA
ENDROOT
BRANCH   1  10
ATOM     10  C1  <0> d          -0.013   1.086   0.008  0.00  0.00     0.043 C 
ATOM     11  H5  <0> d           0.002  -0.004   0.002  0.00  0.00     0.078 H 
ATOM     12  H6  <0> d           1.010   1.463   0.000  0.00  0.00     0.078 H 
BRANCH  10  13
ATOM     13  O5  <0> d          -0.704   1.559  -1.150  0.00  0.00    -0.398 OA
ATOM     14  H10 <0> d          -0.304   1.284  -1.986  0.00  0.00     0.209 HD
ENDBRANCH  10  13
ENDBRANCH   1  10
BRANCH   3  15
ATOM     15  O4  <0> d           1.342   0.731   2.251  0.00  0.00    -0.390 OA
ATOM     16  H9  <0> d           1.832   0.389   3.011  0.00  0.00     0.210 HD
ENDBRANCH   3  15
BRANCH   7  17
ATOM     17  O2  <0> d          -0.345   4.601   3.096  0.00  0.00    -0.369 OA
ATOM     18  H7  <0> d          -0.747   5.329   2.603  0.00  0.00     0.212 HD
ENDBRANCH   7  17
BRANCH   5  19
ATOM     19  O3  <0> d          -0.863   1.814   4.694  0.00  0.00    -0.388 OA
ATOM     20  H8  <0> d          -1.005   2.526   5.333  0.00  0.00     0.210 HD
ENDBRANCH   5  19
TORSDOF 5
