REMARK  4 active torsions:
REMARK  status: ('A' for Active; 'I' for Inactive)
REMARK    1  A    between atoms: C1_1  and  N1_2 
REMARK    2  A    between atoms: C4_6  and  S1_7 
REMARK    3  A    between atoms: S1_7  and  C5_8 
REMARK    4  A    between atoms: C5_8  and  C6_9 
ROOT
ATOM      1  N1  <0> d           0.002  -0.004   0.002  0.00  0.00    -0.339 N 
ATOM      2  C2  <0> d           0.009  -0.817  -1.109  0.00  0.00    -0.002 A 
ATOM      3  C3  <0> d           0.028  -2.086  -0.667  0.00  0.00     0.020 A 
ATOM      4  N2  <0> d           0.033  -2.065   0.677  0.00  0.00    -0.235 NA
ATOM      5  C4  <0> d           0.024  -0.820   1.092  0.00  0.00     0.168 A 
ATOM      6  H4  <0> d          -0.000  -0.496  -2.140  0.00  0.00     0.113 H 
ATOM      7  H5  <0> d           0.037  -2.971  -1.285  0.00  0.00     0.117 H 
ENDROOT
BRANCH   5   8
ATOM      8  S1  <0> d           0.032  -0.293   2.773  0.00  0.00    -0.088 SA
BRANCH   8   9
ATOM      9  C5  <0> d           0.062  -1.841   3.718  0.00  0.00    -0.002 C 
ATOM     10  H6  <0> d          -0.822  -2.431   3.477  0.00  0.00     0.055 H 
ATOM     11  H7  <0> d           0.958  -2.407   3.460  0.00  0.00     0.055 H 
BRANCH   9  12
ATOM     12  C6  <0> d           0.072  -1.530   5.192  0.00  0.00    -0.103 C 
ATOM     13  C7  <0> d          -0.944  -1.878   5.942  0.00  0.00    -0.124 C 
ATOM     14  H9  <0> d          -0.937  -1.655   6.998  0.00  0.00     0.066 H 
ATOM     15  H10 <0> d          -1.789  -2.388   5.503  0.00  0.00     0.066 H 
ATOM     16  H8  <0> d           0.917  -1.021   5.631  0.00  0.00     0.076 H 
ENDBRANCH   9  12
ENDBRANCH   8   9
ENDBRANCH   5   8
BRANCH   1  17
ATOM     17  C1  <0> d          -0.018   1.461   0.010  0.00  0.00    -0.013 C 
ATOM     18  H1  <0> d           1.005   1.838   0.002  0.00  0.00     0.057 H 
ATOM     19  H2  <0> d          -0.545   1.822  -0.873  0.00  0.00     0.057 H 
ATOM     20  H3  <0> d          -0.528   1.812   0.907  0.00  0.00     0.057 H 
ENDBRANCH   1  17
TORSDOF 4
