REMARK  6 active torsions:
REMARK  status: ('A' for Active; 'I' for Inactive)
REMARK    1  A    between atoms: C1_1  and  C2_2 
REMARK    2  A    between atoms: C3_4  and  C7_12 
REMARK    3  A    between atoms: N2_5  and  C4_7 
REMARK    4  A    between atoms: C4_7  and  C5_9 
REMARK    5  A    between atoms: C4_7  and  C6_10 
REMARK    6  A    between atoms: C6_10  and  O1_11 
ROOT
ATOM      1  C2  <0> d           4.537   4.261   0.264  0.00  0.00     0.144 A 
ATOM      2  N1  <0> d           4.125   4.852  -0.856  0.00  0.00    -0.218 NA
ATOM      3  C3  <0> d           2.884   4.519  -1.103  0.00  0.00     0.121 A 
ATOM      4  N2  <0> d           2.469   3.699  -0.122  0.00  0.00    -0.248 N 
ATOM      5  N3  <0> d           3.558   3.544   0.751  0.00  0.00    -0.155 NA
ENDROOT
BRANCH   4   6
ATOM      6  C4  <0> d           1.145   3.085   0.008  0.00  0.00     0.053 C 
ATOM      7  H1  <0> d           0.516   3.397  -0.827  0.00  0.00     0.078 H 
BRANCH   6   8
ATOM      8  C5  <0> d           0.503   3.530   1.324  0.00  0.00    -0.053 C 
ATOM      9  H5  <0> d           1.132   3.218   2.158  0.00  0.00     0.030 H 
ATOM     10  H6  <0> d           0.402   4.615   1.330  0.00  0.00     0.030 H 
ATOM     11  H7  <0> d          -0.482   3.073   1.420  0.00  0.00     0.030 H 
ENDBRANCH   6   8
BRANCH   6  12
ATOM     12  C6  <0> d           1.286   1.562  -0.002  0.00  0.00     0.037 C 
ATOM     13  H8  <0> d           1.840   1.243   0.881  0.00  0.00     0.077 H 
ATOM     14  H9  <0> d           1.823   1.252  -0.899  0.00  0.00     0.077 H 
BRANCH  12  15
ATOM     15  O1  <0> d          -0.011   0.963   0.007  0.00  0.00    -0.399 OA
ATOM     16  H10 <0> d           0.002  -0.004   0.002  0.00  0.00     0.209 HD
ENDBRANCH  12  15
ENDBRANCH   6  12
ENDBRANCH   4   6
BRANCH   3  17
ATOM     17  C7  <0> d           2.062   4.977  -2.281  0.00  0.00    -0.020 C 
ATOM     18  H11 <0> d           1.541   5.899  -2.024  0.00  0.00     0.037 H 
ATOM     19  H12 <0> d           2.717   5.155  -3.134  0.00  0.00     0.037 H 
ATOM     20  H13 <0> d           1.334   4.207  -2.537  0.00  0.00     0.037 H 
ENDBRANCH   3  17
BRANCH   1  21
ATOM     21  C1  <0> d           5.909   4.396   0.872  0.00  0.00    -0.018 C 
ATOM     22  H2  <0> d           6.561   3.619   0.473  0.00  0.00     0.038 H 
ATOM     23  H3  <0> d           6.320   5.375   0.628  0.00  0.00     0.038 H 
ATOM     24  H4  <0> d           5.839   4.290   1.955  0.00  0.00     0.038 H 
ENDBRANCH   1  21
TORSDOF 6
