REMARK  5 active torsions:
REMARK  status: ('A' for Active; 'I' for Inactive)
REMARK    1  A    between atoms: C1_1  and  C2_2 
REMARK    2  A    between atoms: C2_2  and  O1_3 
REMARK    3  A    between atoms: O1_3  and  C3_4 
REMARK    4  A    between atoms: C3_4  and  C4_6 
REMARK    5  A    between atoms: C6_10  and  C7_12 
ROOT
ATOM      1  C4  <0> d           0.002  -0.004   0.002  0.00  0.00     0.139 C 
ATOM      2  H1  <0> d           0.753  -0.286   0.754  0.00  0.00     0.095 H 
ATOM      3  C5  <0> d           0.247  -0.546  -1.427  0.00  0.00     0.057 C 
ATOM      4  O3  <0> d          -0.631  -1.691  -1.447  0.00  0.00    -0.336 OA
ATOM      5  C6  <0> d          -1.604  -1.475  -0.543  0.00  0.00     0.131 C 
ATOM      6  N1  <0> d          -1.333  -0.552   0.310  0.00  0.00    -0.253 NA
ATOM      7  H7  <0> d          -0.024   0.225  -2.164  0.00  0.00     0.079 H 
ATOM      8  H8  <0> d           1.309  -0.807  -1.544  0.00  0.00     0.079 H 
ENDROOT
BRANCH   1   9
ATOM      9  C3  <0> d          -0.018   1.503   0.010  0.00  0.00     0.286 C 
ATOM     10  O2  <0> d          -1.073   2.093   0.018  0.00  0.00    -0.263 OA
BRANCH   9  11
ATOM     11  O1  <0> d           1.135   2.190   0.003  0.00  0.00    -0.320 OA
BRANCH  11  12
ATOM     12  C2  <0> d           1.039   3.639   0.012  0.00  0.00     0.026 C 
ATOM     13  H5  <0> d           0.506   3.965   0.917  0.00  0.00     0.074 H 
ATOM     14  H6  <0> d           0.489   3.975  -0.879  0.00  0.00     0.074 H 
BRANCH  12  15
ATOM     15  C1  <0> d           2.445   4.242   0.002  0.00  0.00    -0.056 C 
ATOM     16  H2  <0> d           2.372   5.340   0.008  0.00  0.00     0.030 H 
ATOM     17  H3  <0> d           2.978   3.916  -0.904  0.00  0.00     0.030 H 
ATOM     18  H4  <0> d           2.995   3.906   0.893  0.00  0.00     0.030 H 
ENDBRANCH  12  15
ENDBRANCH  11  12
ENDBRANCH   9  11
ENDBRANCH   1   9
BRANCH   5  19
ATOM     19  C7  <0> d          -2.898  -2.248  -0.532  0.00  0.00    -0.016 C 
ATOM     20  H9  <0> d          -3.530  -1.893   0.296  0.00  0.00     0.038 H 
ATOM     21  H10 <0> d          -2.685  -3.318  -0.397  0.00  0.00     0.038 H 
ATOM     22  H11 <0> d          -3.424  -2.096  -1.486  0.00  0.00     0.038 H 
ENDBRANCH   5  19
TORSDOF 5
