REMARK  7 active torsions:
REMARK  status: ('A' for Active; 'I' for Inactive)
REMARK    1  A    between atoms: C1_1  and  C2_2 
REMARK    2  A    between atoms: C2_2  and  C3_3 
REMARK    3  A    between atoms: C3_3  and  C4_5 
REMARK    4  A    between atoms: C3_3  and  C5_6 
REMARK    5  A    between atoms: C5_6  and  C6_7 
REMARK    6  A    between atoms: C6_7  and  C7_9 
REMARK    7  A    between atoms: C7_9  and  C8_10 
ROOT
ATOM      1  C3  <0> d          -0.729   1.579   1.267  0.00  0.00    -0.052 C 
ATOM      2  H1  <0> d          -1.776   1.277   1.232  0.00  0.00     0.040 H 
ENDROOT
BRANCH   1   3
ATOM      3  C2  <0> d          -0.013   1.086   0.008  0.00  0.00    -0.065 C 
ATOM      4  H5  <0> d           0.002  -0.004   0.002  0.00  0.00     0.033 H 
ATOM      5  H6  <0> d           1.010   1.463   0.000  0.00  0.00     0.033 H 
BRANCH   3   6
ATOM      6  C1  <0> d          -0.753   1.593  -1.232  0.00  0.00    -0.076 C 
ATOM      7  H2  <0> d          -0.767   2.683  -1.226  0.00  0.00     0.027 H 
ATOM      8  H3  <0> d          -0.242   1.241  -2.128  0.00  0.00     0.027 H 
ATOM      9  H4  <0> d          -1.775   1.215  -1.224  0.00  0.00     0.027 H 
ENDBRANCH   3   6
ENDBRANCH   1   3
BRANCH   1  10
ATOM     10  C4  <0> d          -0.641   3.105   1.339  0.00  0.00    -0.073 C 
ATOM     11  H7  <0> d          -1.115   3.538   0.458  0.00  0.00     0.028 H 
ATOM     12  H8  <0> d          -1.151   3.457   2.235  0.00  0.00     0.028 H 
ATOM     13  H9  <0> d           0.406   3.407   1.374  0.00  0.00     0.028 H 
ENDBRANCH   1  10
BRANCH   1  14
ATOM     14  C5  <0> d          -0.064   0.971   2.503  0.00  0.00    -0.007 C 
ATOM     15  H10 <0> d          -0.049  -0.025   2.418  0.00  0.00     0.044 H 
ATOM     16  H11 <0> d           0.957   1.344   2.587  0.00  0.00     0.044 H 
BRANCH  14  17
ATOM     17  C6  <0> d          -0.843   1.358   3.734  0.00  0.00     0.127 C 
ATOM     18  O1  <0> d          -1.828   2.049   3.633  0.00  0.00    -0.298 OA
BRANCH  17  19
ATOM     19  C7  <0> d          -0.392   0.883   5.091  0.00  0.00    -0.013 C 
ATOM     20  H12 <0> d          -0.390  -0.117   5.111  0.00  0.00     0.043 H 
ATOM     21  H13 <0> d           0.614   1.252   5.290  0.00  0.00     0.043 H 
BRANCH  19  22
ATOM     22  C8  <0> d          -1.350   1.412   6.161  0.00  0.00    -0.070 C 
ATOM     23  H14 <0> d          -2.356   1.043   5.962  0.00  0.00     0.028 H 
ATOM     24  H15 <0> d          -1.024   1.069   7.143  0.00  0.00     0.028 H 
ATOM     25  H16 <0> d          -1.352   2.502   6.139  0.00  0.00     0.028 H 
ENDBRANCH  19  22
ENDBRANCH  17  19
ENDBRANCH  14  17
ENDBRANCH   1  14
TORSDOF 7
