REMARK  2 active torsions:
REMARK  status: ('A' for Active; 'I' for Inactive)
REMARK    1  A    between atoms: C1_1  and  C2_2 
REMARK    2  A    between atoms: C2_2  and  O2_8 
ROOT
ATOM      1  C2  <0> d          -0.729   1.579   1.267  0.00  0.00     0.078 C 
ATOM      2  C3  <0> d          -2.208   1.127   1.275  0.00  0.00     0.039 C 
ATOM      3  C4  <0> d          -2.949   2.297   1.884  0.00  0.00     0.220 C 
ATOM      4  O1  <0> d          -4.078   2.250   2.325  0.00  0.00    -0.274 OA
ATOM      5  N1  <0> d          -2.175   3.396   1.865  0.00  0.00    -0.358 N 
ATOM      6  C5  <0> d          -0.869   3.118   1.256  0.00  0.00     0.024 C 
ATOM      7  H4  <0> d          -2.556   0.942   0.259  0.00  0.00     0.051 H 
ATOM      8  H5  <0> d          -2.331   0.236   1.890  0.00  0.00     0.051 H 
ATOM      9  H6  <0> d          -2.445   4.261   2.210  0.00  0.00     0.162 HD
ATOM     10  H7  <0> d          -0.073   3.573   1.845  0.00  0.00     0.068 H 
ATOM     11  H8  <0> d          -0.842   3.492   0.233  0.00  0.00     0.068 H 
ENDROOT
BRANCH   1  12
ATOM     12  C1  <0> d          -0.013   1.086   0.008  0.00  0.00    -0.046 C 
ATOM     13  H1  <0> d           0.002  -0.004   0.002  0.00  0.00     0.031 H 
ATOM     14  H2  <0> d           1.010   1.463   0.000  0.00  0.00     0.031 H 
ATOM     15  H3  <0> d          -0.540   1.447  -0.875  0.00  0.00     0.031 H 
ENDBRANCH   1  12
BRANCH   1  16
ATOM     16  O2  <0> d          -0.052   1.135   2.444  0.00  0.00    -0.388 OA
ATOM     17  H9  <0> d           0.866   1.435   2.507  0.00  0.00     0.210 HD
ENDBRANCH   1  16
TORSDOF 2
