REMARK  5 active torsions:
REMARK  status: ('A' for Active; 'I' for Inactive)
REMARK    1  A    between atoms: C1_1  and  O1_2 
REMARK    2  A    between atoms: O1_2  and  C2_3 
REMARK    3  A    between atoms: C2_3  and  C3_5 
REMARK    4  A    between atoms: C3_5  and  C4_7 
REMARK    5  A    between atoms: C3_5  and  O4_12 
ROOT
ATOM      1  C3  <0> d          -1.250   2.205   0.020  0.00  0.00     0.165 C 
ATOM      2  H1  <0> d          -2.104   1.625  -0.330  0.00  0.00     0.109 H 
ENDROOT
BRANCH   1   3
ATOM      3  C2  <0> d          -1.513   2.688   1.423  0.00  0.00     0.294 C 
ATOM      4  O2  <0> d          -1.441   3.866   1.681  0.00  0.00    -0.262 OA
BRANCH   3   5
ATOM      5  O1  <0> d          -1.828   1.809   2.388  0.00  0.00    -0.324 OA
BRANCH   5   6
ATOM      6  C1  <0> d          -2.068   2.345   3.716  0.00  0.00     0.013 C 
ATOM      7  H2  <0> d          -1.173   2.858   4.068  0.00  0.00     0.067 H 
ATOM      8  H3  <0> d          -2.900   3.049   3.678  0.00  0.00     0.067 H 
ATOM      9  H4  <0> d          -2.313   1.530   4.397  0.00  0.00     0.067 H 
ENDBRANCH   5   6
ENDBRANCH   3   5
ENDBRANCH   1   3
BRANCH   1  10
ATOM     10  C4  <0> d          -0.016   1.341   0.009  0.00  0.00     0.091 A 
ATOM     11  O3  <0> d           1.252   1.783  -0.000  0.00  0.00    -0.324 OA
ATOM     12  C7  <0> d           2.091   0.734  -0.014  0.00  0.00     0.019 A 
ATOM     13  C6  <0> d           1.361  -0.395  -0.013  0.00  0.00    -0.059 A 
ATOM     14  H7  <0> d           3.170   0.789  -0.024  0.00  0.00     0.123 H 
ATOM     15  C5  <0> d           0.002  -0.004   0.002  0.00  0.00    -0.049 A 
ATOM     16  H6  <0> d           1.739  -1.407  -0.022  0.00  0.00     0.086 H 
ATOM     17  H5  <0> d          -0.856  -0.659   0.006  0.00  0.00     0.087 H 
ENDBRANCH   1  10
BRANCH   1  18
ATOM     18  O4  <0> d          -1.053   3.329  -0.841  0.00  0.00    -0.379 OA
ATOM     19  H8  <0> d          -0.308   3.892  -0.588  0.00  0.00     0.211 HD
ENDBRANCH   1  18
TORSDOF 5
