REMARK  2 active torsions:
REMARK  status: ('A' for Active; 'I' for Inactive)
REMARK    1  A    between atoms: C1_1  and  S1_2 
REMARK    2  A    between atoms: S1_2  and  C2_3 
ROOT
ATOM      1  C2  <0> d          -2.505   1.000  -1.304  0.00  0.00     0.171 A 
ATOM      2  N1  <0> d          -2.788   0.249  -0.259  0.00  0.00    -0.197 NA
ATOM      3  C3  <0> d          -4.001  -0.290  -0.103  0.00  0.00     0.208 A 
ATOM      4  C4  <0> d          -4.984  -0.061  -1.051  0.00  0.00     0.036 A 
ATOM      5  C5  <0> d          -4.677   0.738  -2.160  0.00  0.00     0.251 A 
ATOM      6  N2  <0> d          -3.437   1.261  -2.263  0.00  0.00    -0.302 N 
ATOM      7  O1  <0> d          -5.518   0.961  -3.016  0.00  0.00    -0.268 OA
ATOM      8  O2  <0> d          -4.267  -1.058   0.979  0.00  0.00    -0.170 OA
ATOM      9  H4  <0> d          -5.968  -0.491  -0.938  0.00  0.00     0.099 H 
ATOM     10  H5  <0> d          -3.209   1.819  -3.022  0.00  0.00     0.171 HD
ENDROOT
BRANCH   1  11
ATOM     11  S1  <0> d          -0.890   1.687  -1.462  0.00  0.00    -0.096 SA
BRANCH  11  12
ATOM     12  C1  <0> d          -0.013   1.086   0.008  0.00  0.00    -0.027 C 
ATOM     13  H1  <0> d           0.002  -0.004   0.002  0.00  0.00     0.042 H 
ATOM     14  H2  <0> d           1.010   1.463   0.000  0.00  0.00     0.042 H 
ATOM     15  H3  <0> d          -0.523   1.437   0.905  0.00  0.00     0.042 H 
ENDBRANCH  11  12
ENDBRANCH   1  11
TORSDOF 2
