REMARK  0 active torsions:
REMARK  status: ('A' for Active; 'I' for Inactive)
ROOT
ATOM      1  C1  <0> d           0.002  -0.004   0.002  0.00  0.00    -0.079 A 
ATOM      2  C2  <0> d           1.232  -0.684  -0.013  0.00  0.00    -0.066 A 
ATOM      3  C3  <0> d           2.394   0.004  -0.021  0.00  0.00     0.006 A 
ATOM      4  N1  <0> d           2.392   1.368  -0.013  0.00  0.00    -0.225 N 
ATOM      5  C4  <0> d           1.204   2.058   0.002  0.00  0.00     0.078 A 
ATOM      6  C5  <0> d          -0.016   1.356   0.009  0.00  0.00    -0.054 A 
ATOM      7  C6  <0> d           1.538   3.402   0.005  0.00  0.00     0.053 A 
ATOM      8  N2  <0> d           2.860   3.502  -0.007  0.00  0.00    -0.142 NA
ATOM      9  N3  <0> d           3.404   2.335  -0.018  0.00  0.00    -0.061 NA
ATOM     10  H1  <0> d          -0.924  -0.559   0.007  0.00  0.00     0.083 H 
ATOM     11  H2  <0> d           1.248  -1.764  -0.020  0.00  0.00     0.085 H 
ATOM     12  H3  <0> d           3.332  -0.531  -0.032  0.00  0.00     0.114 H 
ATOM     13  H4  <0> d          -0.955   1.890   0.017  0.00  0.00     0.087 H 
ATOM     14  H5  <0> d           0.842   4.227   0.016  0.00  0.00     0.121 H 
ENDROOT
TORSDOF 0
