REMARK  0 active torsions:
REMARK  status: ('A' for Active; 'I' for Inactive)
ROOT
ATOM      1  C1  <0> d          -1.215   1.750   0.017  0.00  0.00    -0.044 A 
ATOM      2  C2  <0> d          -0.013   1.076   0.008  0.00  0.00    -0.058 A 
ATOM      3  C3  <0> d           1.187   1.792   0.000  0.00  0.00     0.066 A 
ATOM      4  C4  <0> d           1.160   3.190   0.008  0.00  0.00     0.057 A 
ATOM      5  C5  <0> d          -0.050   3.853   0.022  0.00  0.00    -0.023 A 
ATOM      6  C6  <0> d          -1.236   3.136   0.029  0.00  0.00     0.118 A 
ATOM      7  F1  <0> d          -2.418   3.791   0.043  0.00  0.00    -0.206 F 
ATOM      8 Cl1  <0> d           2.645   4.089  -0.002  0.00  0.00    -0.083 Cl
ATOM      9  C7  <0> d           2.439   1.097  -0.015  0.00  0.00     0.101 C 
ATOM     10  N1  <0> d           3.432   0.546  -0.028  0.00  0.00    -0.191 NA
ATOM     11  H1  <0> d          -2.143   1.197   0.019  0.00  0.00     0.088 H 
ATOM     12  H2  <0> d           0.002  -0.004   0.002  0.00  0.00     0.086 H 
ATOM     13  H3  <0> d          -0.073   4.933   0.028  0.00  0.00     0.090 H 
ENDROOT
TORSDOF 0
