REMARK  4 active torsions:
REMARK  status: ('A' for Active; 'I' for Inactive)
REMARK    1  A    between atoms: C1_1  and  C2_2 
REMARK    2  A    between atoms: C2_2  and  O2_4 
REMARK    3  A    between atoms: O2_4  and  C3_5 
REMARK    4  A    between atoms: C6_8  and  O3_11 
ROOT
ATOM      1  C3  <0> d           0.052  -2.026  -1.224  0.00  0.00     0.079 A 
ATOM      2  C4  <0> d           0.030  -2.773  -0.055  0.00  0.00    -0.048 A 
ATOM      3  C5  <0> d           0.083  -4.152  -0.115  0.00  0.00    -0.048 A 
ATOM      4  C6  <0> d           0.158  -4.790  -1.345  0.00  0.00     0.065 A 
ATOM      5  C7  <0> d           0.179  -4.043  -2.514  0.00  0.00    -0.048 A 
ATOM      6  C8  <0> d           0.120  -2.665  -2.453  0.00  0.00    -0.048 A 
ATOM      7  H4  <0> d          -0.028  -2.276   0.902  0.00  0.00     0.087 H 
ATOM      8  H5  <0> d           0.067  -4.734   0.795  0.00  0.00     0.087 H 
ATOM      9  H6  <0> d           0.237  -4.540  -3.471  0.00  0.00     0.087 H 
ATOM     10  H7  <0> d           0.133  -2.083  -3.364  0.00  0.00     0.087 H 
ENDROOT
BRANCH   1  11
ATOM     11  O2  <0> d           0.000  -0.669  -1.164  0.00  0.00    -0.279 OA
BRANCH  11  12
ATOM     12  C2  <0> d           1.120  -0.010  -0.826  0.00  0.00     0.260 C 
ATOM     13  O1  <0> d           2.107  -0.625  -0.500  0.00  0.00    -0.265 OA
BRANCH  12  14
ATOM     14  C1  <0> d           1.145   1.497  -0.855  0.00  0.00     0.004 C 
ATOM     15  H1  <0> d           1.460   1.837  -1.841  0.00  0.00     0.041 H 
ATOM     16  H2  <0> d           0.147   1.881  -0.640  0.00  0.00     0.041 H 
ATOM     17  H3  <0> d           1.845   1.863  -0.103  0.00  0.00     0.041 H 
ENDBRANCH  12  14
ENDBRANCH  11  12
ENDBRANCH   1  11
BRANCH   4  18
ATOM     18  O3  <0> d           0.210  -6.147  -1.404  0.00  0.00    -0.361 OA
ATOM     19  H8  <0> d          -0.657  -6.573  -1.458  0.00  0.00     0.217 HD
ENDBRANCH   4  18
TORSDOF 4
