REMARK  0 active torsions:
REMARK  status: ('A' for Active; 'I' for Inactive)
ROOT
ATOM      1  C1  <0> d          -1.274  -0.715   0.011  0.00  0.00    -0.038 A 
ATOM      2  C2  <0> d          -2.417  -0.003   0.026  0.00  0.00    -0.017 A 
ATOM      3  N1  <0> d          -2.402   1.361   0.033  0.00  0.00    -0.332 N 
ATOM      4  H1  <0> d          -3.349   1.921   0.041  0.00  0.00     0.168 HD
ATOM      5  C3  <0> d          -1.253   2.062   0.030  0.00  0.00     0.274 A 
ATOM      6  O1  <0> d          -1.286   3.282   0.037  0.00  0.00    -0.266 OA
ATOM      7  C4  <0> d          -0.017   1.395   0.010  0.00  0.00     0.131 A 
ATOM      8  C5  <0> d           0.002  -0.004   0.002  0.00  0.00     0.091 A 
ATOM      9  N2  <0> d           1.289  -0.382  -0.012  0.00  0.00    -0.242 NA
ATOM     10  C6  <0> d           2.058   0.674  -0.014  0.00  0.00     0.065 A 
ATOM     11  N3  <0> d           1.303   1.793  -0.001  0.00  0.00    -0.344 N 
ATOM     12  H2  <0> d           1.555   2.864   0.003  0.00  0.00     0.167 HD
ATOM     13  H3  <0> d          -1.301  -1.795   0.006  0.00  0.00     0.089 H 
ATOM     14  H4  <0> d          -3.365  -0.522   0.033  0.00  0.00     0.111 H 
ATOM     15  H5  <0> d           3.137   0.654  -0.024  0.00  0.00     0.143 H 
ENDROOT
TORSDOF 0
