REMARK  7 active torsions:
REMARK  status: ('A' for Active; 'I' for Inactive)
REMARK    1  A    between atoms: C1_1  and  C2_2 
REMARK    2  A    between atoms: C2_2  and  N1_3 
REMARK    3  A    between atoms: N1_3  and  C3_4 
REMARK    4  A    between atoms: N1_3  and  C5_6 
REMARK    5  A    between atoms: C3_4  and  C4_5 
REMARK    6  A    between atoms: C5_6  and  C6_7 
REMARK    7  A    between atoms: C7_8  and  C8_9 
ROOT
ATOM      1  C8  <0> d           0.592   3.709  -3.142  0.00  0.00    -0.026 C 
ATOM      2  C9  <0> d           0.738   4.854  -3.356  0.00  0.00    -0.141 C 
ATOM      3  H13 <0> d           0.868   5.878  -3.547  0.00  0.00     0.167 H 
ENDROOT
BRANCH   1   4
ATOM      4  C7  <0> d           0.421   2.366  -2.891  0.00  0.00    -0.014 C 
ATOM      5  C6  <0> d           0.275   1.221  -2.677  0.00  0.00    -0.062 C 
BRANCH   5   6
ATOM      6  C5  <0> d           0.092  -0.215  -2.408  0.00  0.00     0.168 C 
ATOM      7  H11 <0> d           0.539  -0.795  -3.216  0.00  0.00     0.099 H 
ATOM      8  H12 <0> d          -0.972  -0.440  -2.345  0.00  0.00     0.099 H 
BRANCH   6   9
ATOM      9  N1  <0> d           0.742  -0.562  -1.138  0.00  0.00     0.098 N 
BRANCH   9  10
ATOM     10  C2  <0> d          -0.061  -0.110   0.006  0.00  0.00     0.111 C 
ATOM     11  H4  <0> d          -0.323   0.940  -0.127  0.00  0.00     0.079 H 
ATOM     12  H5  <0> d           0.514  -0.228   0.924  0.00  0.00     0.079 H 
BRANCH  10  13
ATOM     13  C1  <0> d          -1.339  -0.947   0.094  0.00  0.00    -0.051 C 
ATOM     14  H1  <0> d          -1.865  -0.909  -0.860  0.00  0.00     0.029 H 
ATOM     15  H2  <0> d          -1.082  -1.980   0.326  0.00  0.00     0.029 H 
ATOM     16  H3  <0> d          -1.982  -0.547   0.879  0.00  0.00     0.029 H 
ENDBRANCH  10  13
ENDBRANCH   9  10
BRANCH   9  17
ATOM     17  C3  <0> d           1.006  -2.005  -1.058  0.00  0.00     0.111 C 
ATOM     18  H6  <0> d           0.062  -2.541  -0.951  0.00  0.00     0.079 H 
ATOM     19  H7  <0> d           1.509  -2.333  -1.968  0.00  0.00     0.079 H 
BRANCH  17  20
ATOM     20  C4  <0> d           1.897  -2.295   0.151  0.00  0.00    -0.051 C 
ATOM     21  H8  <0> d           2.840  -1.759   0.044  0.00  0.00     0.029 H 
ATOM     22  H9  <0> d           1.394  -1.967   1.060  0.00  0.00     0.029 H 
ATOM     23  H10 <0> d           2.092  -3.366   0.210  0.00  0.00     0.029 H 
ENDBRANCH  17  20
ENDBRANCH   9  17
ENDBRANCH   6   9
ENDBRANCH   5   6
ENDBRANCH   1   4
TORSDOF 7
