REMARK  3 active torsions:
REMARK  status: ('A' for Active; 'I' for Inactive)
REMARK    1  A    between atoms: C1_1  and  C2_2 
REMARK    2  A    between atoms: C2_2  and  O2_4 
REMARK    3  A    between atoms: O2_4  and  C3_5 
ROOT
ATOM      1  C3  <0> d          -1.547   3.284   2.683  0.00  0.00     0.052 C 
ATOM      2  H1  <0> d          -1.428   2.521   3.453  0.00  0.00     0.084 H 
ATOM      3  C4  <0> d          -3.045   3.534   2.395  0.00  0.00    -0.037 C 
ATOM      4  C5  <0> d          -3.271   5.034   2.756  0.00  0.00    -0.051 C 
ATOM      5  H2  <0> d          -4.154   5.510   2.329  0.00  0.00     0.040 H 
ATOM      6  C6  <0> d          -3.155   5.083   4.310  0.00  0.00    -0.061 C 
ATOM      7  C7  <0> d          -1.657   4.833   4.599  0.00  0.00    -0.059 C 
ATOM      8  C8  <0> d          -1.009   4.657   3.192  0.00  0.00    -0.028 C 
ATOM      9  H3  <0> d           0.072   4.792   3.144  0.00  0.00     0.043 H 
ATOM     10  C9  <0> d          -1.885   5.644   2.343  0.00  0.00    -0.056 C 
ATOM     11  H7  <0> d          -3.263   3.360   1.341  0.00  0.00     0.037 H 
ATOM     12  H8  <0> d          -3.664   2.894   3.023  0.00  0.00     0.037 H 
ATOM     13  H9  <0> d          -3.765   4.300   4.762  0.00  0.00     0.033 H 
ATOM     14  H10 <0> d          -3.456   6.062   4.683  0.00  0.00     0.033 H 
ATOM     15  H11 <0> d          -1.530   3.927   5.192  0.00  0.00     0.033 H 
ATOM     16  H12 <0> d          -1.220   5.688   5.114  0.00  0.00     0.033 H 
ATOM     17  H13 <0> d          -1.777   6.676   2.676  0.00  0.00     0.034 H 
ATOM     18  H14 <0> d          -1.696   5.543   1.274  0.00  0.00     0.034 H 
ENDROOT
BRANCH   1  19
ATOM     19  O2  <0> d          -0.857   2.889   1.469  0.00  0.00    -0.316 OA
BRANCH  19  20
ATOM     20  C2  <0> d          -0.718   1.572   1.248  0.00  0.00     0.255 C 
ATOM     21  O1  <0> d          -1.159   0.776   2.043  0.00  0.00    -0.266 OA
BRANCH  20  22
ATOM     22  C1  <0> d          -0.013   1.086   0.008  0.00  0.00     0.004 C 
ATOM     23  H4  <0> d           0.002  -0.004   0.002  0.00  0.00     0.041 H 
ATOM     24  H5  <0> d           1.010   1.463   0.000  0.00  0.00     0.041 H 
ATOM     25  H6  <0> d          -0.540   1.447  -0.875  0.00  0.00     0.041 H 
ENDBRANCH  20  22
ENDBRANCH  19  20
ENDBRANCH   1  19
TORSDOF 3
