REMARK  4 active torsions:
REMARK  status: ('A' for Active; 'I' for Inactive)
REMARK    1  A    between atoms: C1_1  and  C2_2 
REMARK    2  A    between atoms: C5_5  and  C9_10 
REMARK    3  A    between atoms: C6_6  and  N1_8 
REMARK    4  A    between atoms: N1_8  and  C8_9 
ROOT
ATOM      1  C2  <0> d           1.421   0.103   3.839  0.00  0.00    -0.060 A 
ATOM      2  C3  <0> d           0.773   0.550   4.976  0.00  0.00    -0.077 A 
ATOM      3  C4  <0> d          -0.363   1.331   4.866  0.00  0.00    -0.075 A 
ATOM      4  C5  <0> d          -0.854   1.668   3.619  0.00  0.00    -0.036 A 
ATOM      5  C6  <0> d          -0.205   1.221   2.475  0.00  0.00     0.034 A 
ATOM      6  C7  <0> d           0.933   0.432   2.590  0.00  0.00    -0.051 A 
ATOM      7  H4  <0> d           1.154   0.288   5.952  0.00  0.00     0.084 H 
ATOM      8  H5  <0> d          -0.867   1.679   5.756  0.00  0.00     0.084 H 
ATOM      9  H6  <0> d           1.438   0.079   1.702  0.00  0.00     0.087 H 
ENDROOT
BRANCH   5  10
ATOM     10  N1  <0> d          -0.698   1.558   1.213  0.00  0.00    -0.394 N 
ATOM     11  H7  <0> d          -1.602   2.179   1.124  0.00  0.00     0.159 HD
BRANCH  10  12
ATOM     12  C8  <0> d          -0.013   1.086   0.008  0.00  0.00    -0.021 C 
ATOM     13  H8  <0> d          -0.545   1.450  -0.883  0.00  0.00     0.056 H 
ATOM     14  H9  <0> d           0.002  -0.014   0.002  0.00  0.00     0.056 H 
ATOM     15  H10 <0> d           1.019   1.466   0.000  0.00  0.00     0.056 H 
ENDBRANCH  10  12
ENDBRANCH   5  10
BRANCH   4  16
ATOM     16  C9  <0> d          -2.091   2.519   3.500  0.00  0.00    -0.049 C 
ATOM     17  H11 <0> d          -2.326   2.679   2.438  0.00  0.00     0.033 H 
ATOM     18  H12 <0> d          -1.917   3.490   3.987  0.00  0.00     0.033 H 
ATOM     19  H13 <0> d          -2.935   2.010   3.989  0.00  0.00     0.033 H 
ENDBRANCH   4  16
BRANCH   1  20
ATOM     20  C1  <0> d           2.659  -0.748   3.964  0.00  0.00    -0.051 C 
ATOM     21  H1  <0> d           2.892  -0.902   5.028  0.00  0.00     0.033 H 
ATOM     22  H2  <0> d           3.503  -0.242   3.473  0.00  0.00     0.033 H 
ATOM     23  H3  <0> d           2.484  -1.721   3.482  0.00  0.00     0.033 H 
ENDBRANCH   1  20
TORSDOF 4
