REMARK  3 active torsions:
REMARK  status: ('A' for Active; 'I' for Inactive)
REMARK    1  A    between atoms: C1_1  and  C2_2 
REMARK    2  A    between atoms: C5_5  and  N1_8 
REMARK    3  A    between atoms: N1_8  and  C8_9 
ROOT
ATOM      1  C2  <0> d           1.171   2.086   0.002  0.00  0.00    -0.062 A 
ATOM      2  C3  <0> d          -0.017   1.377   0.010  0.00  0.00    -0.075 A 
ATOM      3  C4  <0> d           0.002  -0.004   0.002  0.00  0.00    -0.057 A 
ATOM      4  C5  <0> d           1.215  -0.681  -0.013  0.00  0.00     0.027 A 
ATOM      5  C6  <0> d           2.406   0.035  -0.021  0.00  0.00    -0.057 A 
ATOM      6  C7  <0> d           2.380   1.416  -0.013  0.00  0.00    -0.075 A 
ATOM      7  H4  <0> d          -0.960   1.903   0.017  0.00  0.00     0.084 H 
ATOM      8  H5  <0> d          -0.925  -0.557   0.008  0.00  0.00     0.086 H 
ATOM      9  H6  <0> d           3.351  -0.488  -0.032  0.00  0.00     0.086 H 
ATOM     10  H7  <0> d           3.305   1.973  -0.019  0.00  0.00     0.084 H 
ENDROOT
BRANCH   4  11
ATOM     11  N1  <0> d           1.238  -2.077  -0.021  0.00  0.00    -0.394 N 
ATOM     12  H8  <0> d           0.406  -2.576  -0.015  0.00  0.00     0.159 HD
BRANCH  11  13
ATOM     13  C8  <0> d           2.518  -2.789  -0.037  0.00  0.00    -0.021 C 
ATOM     14  H9  <0> d           3.077  -2.512  -0.931  0.00  0.00     0.056 H 
ATOM     15  H10 <0> d           3.094  -2.521   0.849  0.00  0.00     0.056 H 
ATOM     16  H11 <0> d           2.336  -3.864  -0.040  0.00  0.00     0.056 H 
ENDBRANCH  11  13
ENDBRANCH   4  11
BRANCH   1  17
ATOM     17  C1  <0> d           1.146   3.593   0.010  0.00  0.00    -0.051 C 
ATOM     18  H1  <0> d           1.150   3.951   1.040  0.00  0.00     0.033 H 
ATOM     19  H2  <0> d           2.025   3.973  -0.510  0.00  0.00     0.033 H 
ATOM     20  H3  <0> d           0.246   3.944  -0.494  0.00  0.00     0.033 H 
ENDBRANCH   1  17
TORSDOF 3
