REMARK  2 active torsions:
REMARK  status: ('A' for Active; 'I' for Inactive)
REMARK    1  A    between atoms: C7_9  and  C9_11 
REMARK    2  A    between atoms: C9_11  and  O1_12 
ROOT
ATOM      1  C1  <0> d          -0.245   5.021   0.032  0.00  0.00    -0.081 A 
ATOM      2  C2  <0> d           0.855   5.832   0.026  0.00  0.00    -0.071 A 
ATOM      3  C3  <0> d           2.131   5.267   0.011  0.00  0.00    -0.008 A 
ATOM      4  C4  <0> d           3.488   5.819   0.001  0.00  0.00    -0.056 A 
ATOM      5  C5  <0> d           4.335   4.778  -0.013  0.00  0.00    -0.022 A 
ATOM      6  N1  <0> d           3.632   3.604  -0.013  0.00  0.00    -0.365 N 
ATOM      7  H1  <0> d           4.026   2.718  -0.021  0.00  0.00     0.165 HD
ATOM      8  C6  <0> d           2.280   3.868   0.007  0.00  0.00     0.050 A 
ATOM      9  C7  <0> d           1.147   3.062   0.008  0.00  0.00    -0.007 A 
ATOM     10  C8  <0> d          -0.104   3.640   0.023  0.00  0.00    -0.073 A 
ATOM     11  H2  <0> d          -1.233   5.458   0.044  0.00  0.00     0.083 H 
ATOM     12  H3  <0> d           0.737   6.905   0.033  0.00  0.00     0.084 H 
ATOM     13  H4  <0> d           3.757   6.865   0.005  0.00  0.00     0.086 H 
ATOM     14  H5  <0> d           5.412   4.855  -0.022  0.00  0.00     0.111 H 
ATOM     15  H6  <0> d          -0.983   3.013   0.027  0.00  0.00     0.084 H 
ENDROOT
BRANCH   9  16
ATOM     16  C9  <0> d           1.286   1.562  -0.002  0.00  0.00     0.043 C 
ATOM     17  H7  <0> d           1.840   1.243   0.881  0.00  0.00     0.081 H 
ATOM     18  H8  <0> d           1.823   1.252  -0.899  0.00  0.00     0.081 H 
BRANCH  16  19
ATOM     19  O1  <0> d          -0.011   0.963   0.007  0.00  0.00    -0.396 OA
ATOM     20  H9  <0> d           0.002  -0.004   0.002  0.00  0.00     0.209 HD
ENDBRANCH  16  19
ENDBRANCH   9  16
TORSDOF 2
