REMARK  3 active torsions:
REMARK  status: ('A' for Active; 'I' for Inactive)
REMARK    1  A    between atoms: C1_1  and  C2_2 
REMARK    2  A    between atoms: C5_6  and  O1_8 
REMARK    3  A    between atoms: O1_8  and  C6_9 
ROOT
ATOM      1  C2  <0> d          -0.718   1.572   1.248  0.00  0.00     0.036 A 
ATOM      2  C3  <0> d          -0.006   1.809   2.413  0.00  0.00    -0.042 A 
ATOM      3  C4  <0> d          -0.694   2.256   3.530  0.00  0.00     0.008 A 
ATOM      4  N1  <0> d          -2.001   2.441   3.450  0.00  0.00    -0.219 NA
ATOM      5  C5  <0> d          -2.651   2.205   2.322  0.00  0.00     0.268 A 
ATOM      6  N2  <0> d          -2.024   1.783   1.236  0.00  0.00    -0.212 NA
ATOM      7  H4  <0> d           1.062   1.649   2.450  0.00  0.00     0.088 H 
ATOM      8  H5  <0> d          -0.169   2.450   4.454  0.00  0.00     0.115 H 
ENDROOT
BRANCH   5   9
ATOM      9  O1  <0> d          -3.990   2.406   2.276  0.00  0.00    -0.324 OA
BRANCH   9  10
ATOM     10  C6  <0> d          -4.618   2.868   3.474  0.00  0.00     0.013 C 
ATOM     11  H6  <0> d          -4.188   3.826   3.763  0.00  0.00     0.067 H 
ATOM     12  H7  <0> d          -5.688   2.987   3.300  0.00  0.00     0.067 H 
ATOM     13  H8  <0> d          -4.458   2.142   4.271  0.00  0.00     0.067 H 
ENDBRANCH   9  10
ENDBRANCH   5   9
BRANCH   1  14
ATOM     14  C1  <0> d          -0.013   1.086   0.008  0.00  0.00    -0.035 C 
ATOM     15  H1  <0> d           0.002  -0.004   0.002  0.00  0.00     0.035 H 
ATOM     16  H2  <0> d           1.010   1.463   0.000  0.00  0.00     0.035 H 
ATOM     17  H3  <0> d          -0.540   1.447  -0.875  0.00  0.00     0.035 H 
ENDBRANCH   1  14
TORSDOF 3
