REMARK  2 active torsions:
REMARK  status: ('A' for Active; 'I' for Inactive)
REMARK    1  A    between atoms: C1_1  and  C2_2 
REMARK    2  A    between atoms: C8_8  and  N3_12 
ROOT
ATOM      1  C2  <0> d           2.381   1.420  -0.013  0.00  0.00    -0.061 A 
ATOM      2  C3  <0> d           1.159   2.086   0.002  0.00  0.00    -0.075 A 
ATOM      3  C4  <0> d          -0.017   1.397   0.010  0.00  0.00    -0.054 A 
ATOM      4  C5  <0> d           0.002  -0.004   0.002  0.00  0.00     0.072 A 
ATOM      5  C6  <0> d           1.246  -0.680  -0.013  0.00  0.00     0.039 A 
ATOM      6  C7  <0> d           2.436   0.057  -0.021  0.00  0.00    -0.061 A 
ATOM      7  C8  <0> d           1.238  -2.096  -0.021  0.00  0.00     0.135 A 
ATOM      8  N1  <0> d           0.065  -2.716  -0.012  0.00  0.00    -0.224 NA
ATOM      9  C9  <0> d          -1.073  -2.041   0.002  0.00  0.00     0.089 A 
ATOM     10  N2  <0> d          -1.126  -0.730   0.009  0.00  0.00    -0.241 NA
ATOM     11  H4  <0> d           1.143   3.166   0.008  0.00  0.00     0.084 H 
ATOM     12  H5  <0> d          -0.958   1.928   0.017  0.00  0.00     0.087 H 
ATOM     13  H6  <0> d           3.390  -0.449  -0.033  0.00  0.00     0.085 H 
ATOM     14  H7  <0> d          -2.000  -2.594   0.009  0.00  0.00     0.146 H 
ENDROOT
BRANCH   1  15
ATOM     15  C1  <0> d           3.662   2.215  -0.022  0.00  0.00    -0.051 C 
ATOM     16  H1  <0> d           3.960   2.412  -1.051  0.00  0.00     0.033 H 
ATOM     17  H2  <0> d           3.506   3.160   0.499  0.00  0.00     0.033 H 
ATOM     18  H3  <0> d           4.445   1.648   0.481  0.00  0.00     0.033 H 
ENDBRANCH   1  15
BRANCH   7  19
ATOM     19  N3  <0> d           2.417  -2.811  -0.035  0.00  0.00    -0.383 N 
ATOM     20  H8  <0> d           3.267  -2.345  -0.041  0.00  0.00     0.157 HD
ATOM     21  H9  <0> d           2.395  -3.781  -0.040  0.00  0.00     0.157 HD
ENDBRANCH   7  19
TORSDOF 2
