REMARK  2 active torsions:
REMARK  status: ('A' for Active; 'I' for Inactive)
REMARK    1  A    between atoms: C1_1  and  O1_2 
REMARK    2  A    between atoms: O1_2  and  C2_3 
ROOT
ATOM      1  C2  <0> d          -1.287   3.110   0.032  0.00  0.00     0.079 A 
ATOM      2  C3  <0> d          -1.234   1.744   0.017  0.00  0.00    -0.050 A 
ATOM      3  C4  <0> d          -0.013   1.076   0.008  0.00  0.00    -0.080 A 
ATOM      4  C5  <0> d           1.164   1.762   0.000  0.00  0.00    -0.072 A 
ATOM      5  C6  <0> d           1.152   3.167   0.008  0.00  0.00    -0.023 A 
ATOM      6  C7  <0> d          -0.088   3.852   0.024  0.00  0.00     0.007 A 
ATOM      7  C8  <0> d          -0.100   5.256   0.030  0.00  0.00    -0.070 A 
ATOM      8  C9  <0> d           1.077   5.940   0.022  0.00  0.00    -0.082 A 
ATOM      9  C10 <0> d           2.297   5.267   0.007  0.00  0.00    -0.082 A 
ATOM     10  C11 <0> d           2.347   3.907   0.000  0.00  0.00    -0.072 A 
ATOM     11  H4  <0> d          -2.152   1.175   0.019  0.00  0.00     0.087 H 
ATOM     12  H5  <0> d           0.002  -0.004   0.002  0.00  0.00     0.083 H 
ATOM     13  H6  <0> d           2.102   1.228  -0.012  0.00  0.00     0.084 H 
ATOM     14  H7  <0> d          -1.038   5.791   0.042  0.00  0.00     0.085 H 
ATOM     15  H8  <0> d           1.065   7.020   0.027  0.00  0.00     0.083 H 
ATOM     16  H9  <0> d           3.217   5.833   0.001  0.00  0.00     0.083 H 
ATOM     17  H10 <0> d           3.300   3.398  -0.012  0.00  0.00     0.084 H 
ENDROOT
BRANCH   1  18
ATOM     18  O1  <0> d          -2.486   3.747   0.046  0.00  0.00    -0.355 OA
BRANCH  18  19
ATOM     19  C1  <0> d          -3.656   2.927   0.053  0.00  0.00     0.010 C 
ATOM     20  H1  <0> d          -3.651   2.294   0.940  0.00  0.00     0.066 H 
ATOM     21  H2  <0> d          -4.543   3.561   0.065  0.00  0.00     0.066 H 
ATOM     22  H3  <0> d          -3.668   2.302  -0.840  0.00  0.00     0.066 H 
ENDBRANCH  18  19
ENDBRANCH   1  18
TORSDOF 2
