REMARK  6 active torsions:
REMARK  status: ('A' for Active; 'I' for Inactive)
REMARK    1  A    between atoms: C1_1  and  C2_2 
REMARK    2  A    between atoms: C2_2  and  C3_3 
REMARK    3  A    between atoms: C2_2  and  C4_4 
REMARK    4  A    between atoms: C2_2  and  O1_5 
REMARK    5  A    between atoms: O1_5  and  C5_6 
REMARK    6  A    between atoms: C5_6  and  C6_7 
ROOT
ATOM      1  C2  <0> d          -3.701   1.593   0.028  0.00  0.00     0.050 C 
ENDROOT
BRANCH   1   2
ATOM      2  C1  <0> d          -3.869   2.469  -1.216  0.00  0.00    -0.048 C 
ATOM      3  H1  <0> d          -3.758   1.855  -2.109  0.00  0.00     0.031 H 
ATOM      4  H2  <0> d          -4.859   2.924  -1.208  0.00  0.00     0.031 H 
ATOM      5  H3  <0> d          -3.110   3.251  -1.215  0.00  0.00     0.031 H 
ENDBRANCH   1   2
BRANCH   1   6
ATOM      6  C3  <0> d          -4.767   0.496   0.027  0.00  0.00    -0.048 C 
ATOM      7  H4  <0> d          -4.648  -0.128   0.913  0.00  0.00     0.031 H 
ATOM      8  H5  <0> d          -5.758   0.951   0.035  0.00  0.00     0.031 H 
ATOM      9  H6  <0> d          -4.656  -0.118  -0.867  0.00  0.00     0.031 H 
ENDBRANCH   1   6
BRANCH   1  10
ATOM     10  C4  <0> d          -3.857   2.455   1.283  0.00  0.00    -0.048 C 
ATOM     11  H7  <0> d          -3.098   3.237   1.284  0.00  0.00     0.031 H 
ATOM     12  H8  <0> d          -4.848   2.910   1.290  0.00  0.00     0.031 H 
ATOM     13  H9  <0> d          -3.738   1.831   2.169  0.00  0.00     0.031 H 
ENDBRANCH   1  10
BRANCH   1  14
ATOM     14  O1  <0> d          -2.403   0.997   0.019  0.00  0.00    -0.371 OA
BRANCH  14  15
ATOM     15  C5  <0> d          -1.329   1.940   0.019  0.00  0.00     0.100 C 
ATOM     16  H10 <0> d          -1.391   2.561   0.913  0.00  0.00     0.091 H 
ATOM     17  H11 <0> d          -1.400   2.570  -0.867  0.00  0.00     0.091 H 
BRANCH  15  18
ATOM     18  C6  <0> d          -0.014   1.204   0.009  0.00  0.00     0.197 C 
ATOM     19  O2  <0> d           0.002  -0.004   0.002  0.00  0.00    -0.646 OA
ATOM     20  O3  <0> d           1.139   1.891   0.001  0.00  0.00    -0.646 OA
ENDBRANCH  15  18
ENDBRANCH  14  15
ENDBRANCH   1  14
TORSDOF 6
