REMARK  2 active torsions:
REMARK  status: ('A' for Active; 'I' for Inactive)
REMARK    1  A    between atoms: C2_2  and  S1_7 
REMARK    2  A    between atoms: S1_7  and  N3_10 
ROOT
ATOM      1  C1  <0> d          -0.016   1.345   0.009  0.00  0.00     0.020 A 
ATOM      2  C2  <0> d           1.267   1.775  -0.001  0.00  0.00     0.115 A 
ATOM      3  C3  <0> d           2.098   0.650  -0.015  0.00  0.00     0.045 A 
ATOM      4  N1  <0> d           1.341  -0.417  -0.013  0.00  0.00    -0.186 NA
ATOM      5  N2  <0> d           0.002  -0.004   0.002  0.00  0.00    -0.288 N 
ATOM      6  H1  <0> d          -0.774  -0.585   0.006  0.00  0.00     0.188 HD
ATOM      7  H2  <0> d          -0.897   1.970   0.025  0.00  0.00     0.116 H 
ATOM      8  H3  <0> d           3.178   0.660  -0.025  0.00  0.00     0.119 H 
ENDROOT
BRANCH   2   9
ATOM      9  S1  <0> d           1.797   3.455   0.003  0.00  0.00     0.259 S 
ATOM     10  O1  <0> d           3.102   3.471  -0.560  0.00  0.00    -0.201 OA
ATOM     11  O2  <0> d           0.727   4.220  -0.534  0.00  0.00    -0.201 OA
BRANCH   9  12
ATOM     12  N3  <0> d           1.959   3.914   1.586  0.00  0.00    -0.324 N 
ATOM     13  H4  <0> d           1.768   3.282   2.296  0.00  0.00     0.169 HD
ATOM     14  H5  <0> d           2.246   4.815   1.802  0.00  0.00     0.169 HD
ENDBRANCH   9  12
ENDBRANCH   2   9
TORSDOF 2
