REMARK  5 active torsions:
REMARK  status: ('A' for Active; 'I' for Inactive)
REMARK    1  A    between atoms: C1_1  and  C2_2 
REMARK    2  A    between atoms: C2_2  and  C3_3 
REMARK    3  A    between atoms: C3_3  and  C4_4 
REMARK    4  A    between atoms: C4_4  and  N1_5 
REMARK       I    between atoms: N1_5  and  C5_6 
REMARK       I    between atoms: C5_6  and  N2_8 
REMARK    5  A    between atoms: N2_8  and  C6_9 
ROOT
ATOM      1  C4  <0> d           1.281  -0.719  -0.014  0.00  0.00    -0.003 C 
ATOM      2  H8  <0> d           1.840  -0.443  -0.908  0.00  0.00     0.064 H 
ATOM      3  H9  <0> d           1.857  -0.453   0.872  0.00  0.00     0.064 H 
ENDROOT
BRANCH   1   4
ATOM      4  C3  <0> d           1.021  -2.227  -0.020  0.00  0.00    -0.051 C 
ATOM      5  H6  <0> d           0.462  -2.503   0.874  0.00  0.00     0.035 H 
ATOM      6  H7  <0> d           0.445  -2.493  -0.906  0.00  0.00     0.035 H 
BRANCH   4   7
ATOM      7  C2  <0> d           2.357  -2.974  -0.036  0.00  0.00    -0.067 C 
ATOM      8  H4  <0> d           2.916  -2.698  -0.930  0.00  0.00     0.032 H 
ATOM      9  H5  <0> d           2.933  -2.708   0.850  0.00  0.00     0.032 H 
BRANCH   7  10
ATOM     10  C1  <0> d           2.098  -4.482  -0.042  0.00  0.00    -0.076 C 
ATOM     11  H1  <0> d           1.521  -4.748  -0.928  0.00  0.00     0.027 H 
ATOM     12  H2  <0> d           3.049  -5.014  -0.054  0.00  0.00     0.027 H 
ATOM     13  H3  <0> d           1.538  -4.758   0.852  0.00  0.00     0.027 H 
ENDBRANCH   7  10
ENDBRANCH   4   7
ENDBRANCH   1   4
BRANCH   1  14
ATOM     14  N1  <0> d           0.002  -0.004   0.002  0.00  0.00    -0.343 N 
ATOM     15  C5  <0> d          -0.016   1.344   0.009  0.00  0.00     0.315 C 
ATOM     16  O1  <0> d           1.028   1.966   0.003  0.00  0.00    -0.247 OA
ATOM     17  N2  <0> d          -1.192   2.002   0.019  0.00  0.00    -0.347 N 
ATOM     18  H11 <0> d          -2.026   1.505   0.020  0.00  0.00     0.163 HD
ATOM     19  H10 <0> d          -0.831  -0.500   0.007  0.00  0.00     0.164 HD
BRANCH  17  20
ATOM     20  C6  <0> d          -1.212   3.466   0.027  0.00  0.00    -0.017 C 
ATOM     21  H12 <0> d          -0.699   3.832   0.916  0.00  0.00     0.056 H 
ATOM     22  H13 <0> d          -0.708   3.841  -0.864  0.00  0.00     0.056 H 
ATOM     23  H14 <0> d          -2.245   3.816   0.033  0.00  0.00     0.056 H 
ENDBRANCH  17  20
ENDBRANCH   1  14
TORSDOF 5
