REMARK  2 active torsions:
REMARK  status: ('A' for Active; 'I' for Inactive)
REMARK    1  A    between atoms: C4_5  and  C6_8 
REMARK    2  A    between atoms: C6_8  and  O2_9 
ROOT
ATOM      1  C1  <0> d          -0.017   1.411   0.010  0.00  0.00    -0.019 A 
ATOM      2  C2  <0> d          -1.205   2.054   0.019  0.00  0.00    -0.020 A 
ATOM      3  N1  <0> d          -2.369   1.359   0.021  0.00  0.00    -0.374 N 
ATOM      4  C3  <0> d          -2.384   0.004   0.013  0.00  0.00    -0.011 A 
ATOM      5  C4  <0> d          -1.230  -0.699   0.004  0.00  0.00     0.030 A 
ATOM      6  C5  <0> d           0.002  -0.004   0.002  0.00  0.00     0.182 A 
ATOM      7  O1  <0> d           1.062  -0.613  -0.011  0.00  0.00    -0.288 OA
ATOM      8  H1  <0> d           0.907   1.969   0.004  0.00  0.00     0.091 H 
ATOM      9  H2  <0> d          -1.227   3.134   0.025  0.00  0.00     0.111 H 
ATOM     10  H3  <0> d          -3.329  -0.520   0.015  0.00  0.00     0.112 H 
ATOM     11  H4  <0> d          -3.210   1.843   0.028  0.00  0.00     0.164 HD
ENDROOT
BRANCH   5  12
ATOM     12  C6  <0> d          -1.256  -2.206  -0.003  0.00  0.00     0.045 C 
ATOM     13  H5  <0> d          -0.752  -2.573  -0.897  0.00  0.00     0.081 H 
ATOM     14  H6  <0> d          -0.744  -2.582   0.883  0.00  0.00     0.081 H 
BRANCH  12  15
ATOM     15  O2  <0> d          -2.611  -2.659   0.001  0.00  0.00    -0.396 OA
ATOM     16  H7  <0> d          -2.703  -3.622  -0.004  0.00  0.00     0.209 HD
ENDBRANCH  12  15
ENDBRANCH   5  12
TORSDOF 2
