REMARK  3 active torsions:
REMARK  status: ('A' for Active; 'I' for Inactive)
REMARK    1  A    between atoms: C1_1  and  C2_2 
REMARK    2  A    between atoms: C4_4  and  C8_9 
REMARK    3  A    between atoms: C6_6  and  C7_8 
ROOT
ATOM      1  C8  <0> d           0.028  -2.841  -2.493  0.00  0.00     0.038 C 
ATOM      2  C9  <0> d           1.417  -3.075  -2.921  0.00  0.00     0.063 C 
ATOM      3  N2  <0> d           2.489  -3.255  -3.251  0.00  0.00    -0.197 NA
ATOM      4  H9  <0> d          -0.472  -3.799  -2.344  0.00  0.00     0.062 H 
ATOM      5  H10 <0> d          -0.497  -2.272  -3.259  0.00  0.00     0.062 H 
ENDROOT
BRANCH   1   6
ATOM      6  C4  <0> d           0.024  -2.067  -1.200  0.00  0.00    -0.041 A 
ATOM      7  C3  <0> d           0.005  -0.680  -1.203  0.00  0.00    -0.052 A 
ATOM      8  C2  <0> d           0.002  -0.004   0.002  0.00  0.00     0.031 A 
ATOM      9  H4  <0> d          -0.007  -0.136  -2.136  0.00  0.00     0.087 H 
ATOM     10  N1  <0> d           0.022  -0.662   1.145  0.00  0.00    -0.259 NA
ATOM     11  C6  <0> d           0.035  -1.980   1.186  0.00  0.00     0.031 A 
ATOM     12  C5  <0> d           0.039  -2.724   0.021  0.00  0.00    -0.052 A 
ATOM     13  H5  <0> d           0.054  -3.803   0.061  0.00  0.00     0.087 H 
BRANCH   8  14
ATOM     14  C1  <0> d          -0.018   1.503   0.010  0.00  0.00    -0.035 C 
ATOM     15  H1  <0> d           1.004   1.880   0.003  0.00  0.00     0.035 H 
ATOM     16  H2  <0> d          -0.545   1.864  -0.873  0.00  0.00     0.035 H 
ATOM     17  H3  <0> d          -0.529   1.854   0.907  0.00  0.00     0.035 H 
ENDBRANCH   8  14
BRANCH  11  18
ATOM     18  C7  <0> d           0.050  -2.683   2.519  0.00  0.00    -0.035 C 
ATOM     19  H6  <0> d           1.081  -2.839   2.836  0.00  0.00     0.035 H 
ATOM     20  H7  <0> d          -0.469  -2.072   3.258  0.00  0.00     0.035 H 
ATOM     21  H8  <0> d          -0.452  -3.647   2.427  0.00  0.00     0.035 H 
ENDBRANCH  11  18
ENDBRANCH   1   6
TORSDOF 3
