REMARK  3 active torsions:
REMARK  status: ('A' for Active; 'I' for Inactive)
REMARK    1  A    between atoms: C1_1  and  C2_2 
REMARK    2  A    between atoms: C2_2  and  C3_3 
REMARK    3  A    between atoms: C3_3  and  C5_7 
ROOT
ATOM      1  C3  <0> d           0.001   1.548  -2.528  0.00  0.00     0.051 C 
ATOM      2  H1  <0> d          -0.646   1.935  -3.315  0.00  0.00     0.069 H 
ATOM      3  C4  <0> d           0.381   0.161  -2.843  0.00  0.00     0.068 C 
ATOM      4  N1  <0> d           0.674  -0.909  -3.087  0.00  0.00    -0.197 NA
ENDROOT
BRANCH   1   5
ATOM      5  C2  <0> d           1.260   2.412  -2.431  0.00  0.00    -0.050 C 
ATOM      6  H5  <0> d           0.986   3.417  -2.111  0.00  0.00     0.034 H 
ATOM      7  H6  <0> d           1.946   1.974  -1.707  0.00  0.00     0.034 H 
BRANCH   5   8
ATOM      8  C1  <0> d           1.938   2.480  -3.801  0.00  0.00    -0.075 C 
ATOM      9  H2  <0> d           2.211   1.474  -4.121  0.00  0.00     0.027 H 
ATOM     10  H3  <0> d           1.251   2.918  -4.525  0.00  0.00     0.027 H 
ATOM     11  H4  <0> d           2.835   3.096  -3.732  0.00  0.00     0.027 H 
ENDBRANCH   5   8
ENDBRANCH   1   5
BRANCH   1  12
ATOM     12  C5  <0> d          -0.733   1.580  -1.212  0.00  0.00    -0.066 C 
ATOM     13  C10 <0> d          -0.013   1.086   0.008  0.00  0.00    -0.043 C 
ATOM     14  C9  <0> d          -0.723   1.577   1.271  0.00  0.00    -0.061 C 
ATOM     15  H14 <0> d           0.002  -0.004   0.002  0.00  0.00     0.039 H 
ATOM     16  H15 <0> d           1.011   1.461   0.000  0.00  0.00     0.039 H 
ATOM     17  C8  <0> d          -2.217   1.266   1.143  0.00  0.00    -0.062 C 
ATOM     18  H12 <0> d          -0.318   1.062   2.143  0.00  0.00     0.033 H 
ATOM     19  H13 <0> d          -0.581   2.652   1.378  0.00  0.00     0.033 H 
ATOM     20  C7  <0> d          -2.797   2.136   0.027  0.00  0.00    -0.050 C 
ATOM     21  H10 <0> d          -2.721   1.491   2.083  0.00  0.00     0.033 H 
ATOM     22  H11 <0> d          -2.355   0.213   0.897  0.00  0.00     0.033 H 
ATOM     23  C6  <0> d          -1.946   2.033  -1.205  0.00  0.00    -0.099 C 
ATOM     24  H8  <0> d          -2.830   3.174   0.357  0.00  0.00     0.038 H 
ATOM     25  H9  <0> d          -3.808   1.798  -0.203  0.00  0.00     0.038 H 
ATOM     26  H7  <0> d          -2.371   2.356  -2.143  0.00  0.00     0.077 H 
ENDBRANCH   1  12
TORSDOF 3
