REMARK  1 active torsions:
REMARK  status: ('A' for Active; 'I' for Inactive)
REMARK    1  A    between atoms: C1_1  and  C2_2 
ROOT
ATOM      1  C2  <0> d           1.186   2.031   0.002  0.00  0.00    -0.027 A 
ATOM      2  C3  <0> d          -0.016   1.308   0.009  0.00  0.00     0.012 A 
ATOM      3  N1  <0> d           0.002  -0.004   0.002  0.00  0.00    -0.241 NA
ATOM      4  C4  <0> d           1.162  -0.675  -0.013  0.00  0.00     0.151 A 
ATOM      5  C5  <0> d           1.463  -2.030  -0.022  0.00  0.00    -0.018 A 
ATOM      6  C6  <0> d           2.844  -2.154  -0.036  0.00  0.00     0.026 A 
ATOM      7  N2  <0> d           3.381  -0.954  -0.035  0.00  0.00    -0.179 NA
ATOM      8  N3  <0> d           2.357  -0.001  -0.021  0.00  0.00    -0.227 N 
ATOM      9  C7  <0> d           2.365   1.365  -0.014  0.00  0.00     0.013 A 
ATOM     10  H4  <0> d          -0.960   1.833   0.017  0.00  0.00     0.115 H 
ATOM     11  H5  <0> d           0.751  -2.842  -0.020  0.00  0.00     0.091 H 
ATOM     12  H6  <0> d           3.391  -3.085  -0.046  0.00  0.00     0.117 H 
ATOM     13  H7  <0> d           3.300   1.906  -0.020  0.00  0.00     0.115 H 
ENDROOT
BRANCH   1  14
ATOM     14  C1  <0> d           1.165   3.538   0.010  0.00  0.00    -0.049 C 
ATOM     15  H1  <0> d           1.170   3.896   1.040  0.00  0.00     0.033 H 
ATOM     16  H2  <0> d           2.045   3.917  -0.510  0.00  0.00     0.033 H 
ATOM     17  H3  <0> d           0.265   3.892  -0.493  0.00  0.00     0.033 H 
ENDBRANCH   1  14
TORSDOF 1
