REMARK  0 active torsions:
REMARK  status: ('A' for Active; 'I' for Inactive)
ROOT
ATOM      1  C1  <0> d          -0.017   1.378   0.010  0.00  0.00    -0.082 A 
ATOM      2  C2  <0> d           1.171   2.086   0.002  0.00  0.00    -0.082 A 
ATOM      3  C3  <0> d           2.377   1.411  -0.013  0.00  0.00    -0.076 A 
ATOM      4  C4  <0> d           2.396   0.028  -0.021  0.00  0.00    -0.047 A 
ATOM      5  C5  <0> d           1.209  -0.679  -0.013  0.00  0.00    -0.047 A 
ATOM      6  C6  <0> d           0.002  -0.004   0.002  0.00  0.00    -0.076 A 
ATOM      7  C7  <0> d           2.488  -1.476  -0.030  0.00  0.00    -0.016 A 
ATOM      8  H1  <0> d          -0.959   1.905   0.026  0.00  0.00     0.083 H 
ATOM      9  H2  <0> d           1.156   3.165   0.008  0.00  0.00     0.083 H 
ATOM     10  H3  <0> d           3.305   1.964  -0.020  0.00  0.00     0.084 H 
ATOM     11  H4  <0> d          -0.926  -0.557   0.007  0.00  0.00     0.084 H 
ATOM     12  H5  <0> d           2.774  -1.967  -0.960  0.00  0.00     0.047 H 
ATOM     13  H6  <0> d           2.793  -1.977   0.889  0.00  0.00     0.047 H 
ENDROOT
TORSDOF 0
