REMARK  2 active torsions:
REMARK  status: ('A' for Active; 'I' for Inactive)
REMARK    1  A    between atoms: C3_3  and  C4_4 
REMARK    2  A    between atoms: C4_4  and  C5_5 
ROOT
ATOM      1  C1  <0> d           0.460   1.806  -1.256  0.00  0.00    -0.061 A 
ATOM      2  C2  <0> d           1.335   1.811  -0.001  0.00  0.00    -0.061 A 
ATOM      3  C3  <0> d          -0.013   1.086   0.008  0.00  0.00    -0.045 A 
ATOM      4  H1  <0> d           0.786   1.189  -2.094  0.00  0.00     0.033 H 
ATOM      5  H2  <0> d          -0.042   2.736  -1.524  0.00  0.00     0.033 H 
ATOM      6  H3  <0> d           1.408   2.744   0.558  0.00  0.00     0.033 H 
ATOM      7  H4  <0> d           2.236   1.198  -0.013  0.00  0.00     0.033 H 
ATOM      8  H5  <0> d           0.002  -0.004   0.002  0.00  0.00     0.040 H 
ENDROOT
BRANCH   3   9
ATOM      9  C4  <0> d          -1.154   1.726   0.801  0.00  0.00     0.019 C 
ATOM     10  H6  <0> d          -0.834   1.891   1.830  0.00  0.00     0.049 H 
ATOM     11  H7  <0> d          -1.422   2.680   0.346  0.00  0.00     0.049 H 
BRANCH   9  12
ATOM     12  C5  <0> d          -2.350   0.810   0.788  0.00  0.00     0.172 C 
ATOM     13  O1  <0> d          -2.296  -0.247   0.204  0.00  0.00    -0.648 OA
ATOM     14  O2  <0> d          -3.477   1.167   1.424  0.00  0.00    -0.648 OA
ENDBRANCH   9  12
ENDBRANCH   3   9
TORSDOF 2
