REMARK  1 active torsions:
REMARK  status: ('A' for Active; 'I' for Inactive)
REMARK    1  A    between atoms: C6_6  and  C7_7 
ROOT
ATOM      1  C1  <0> d           3.450   2.392  -0.017  0.00  0.00    -0.074 A 
ATOM      2  C2  <0> d           2.471   1.421  -0.013  0.00  0.00    -0.057 A 
ATOM      3  C3  <0> d           1.122   1.781   0.001  0.00  0.00     0.034 A 
ATOM      4  C4  <0> d           0.784   3.126   0.011  0.00  0.00    -0.030 A 
ATOM      5  C5  <0> d           1.768   4.095   0.008  0.00  0.00    -0.068 A 
ATOM      6  C6  <0> d           3.102   3.731  -0.006  0.00  0.00    -0.053 A 
ATOM      7  C10 <0> d          -0.723   3.243   0.026  0.00  0.00    -0.024 A 
ATOM      8  C11 <0> d          -1.223   1.789   0.017  0.00  0.00    -0.004 A 
ATOM      9  N1  <0> d          -0.011   0.966   0.007  0.00  0.00    -0.389 N 
ATOM     10  H1  <0> d           4.491   2.107  -0.028  0.00  0.00     0.084 H 
ATOM     11  H2  <0> d           2.749   0.378  -0.022  0.00  0.00     0.086 H 
ATOM     12  H3  <0> d           1.496   5.140   0.016  0.00  0.00     0.085 H 
ATOM     13  H9  <0> d          -1.056   3.757   0.928  0.00  0.00     0.042 H 
ATOM     14  H10 <0> d          -1.073   3.767  -0.863  0.00  0.00     0.042 H 
ATOM     15  H11 <0> d          -1.818   1.597  -0.876  0.00  0.00     0.064 H 
ATOM     16  H12 <0> d          -1.810   1.587   0.913  0.00  0.00     0.064 H 
ATOM     17  H13 <0> d           0.002  -0.004   0.002  0.00  0.00     0.159 HD
ENDROOT
BRANCH   6  18
ATOM     18  C7  <0> d           4.175   4.789  -0.009  0.00  0.00    -0.029 A 
ATOM     19  C9  <0> d           5.166   4.795   1.156  0.00  0.00    -0.057 A 
ATOM     20  C8  <0> d           5.618   4.332  -0.231  0.00  0.00    -0.057 A 
ATOM     21  H7  <0> d           5.526   5.762   1.507  0.00  0.00     0.034 H 
ATOM     22  H8  <0> d           5.042   4.032   1.926  0.00  0.00     0.034 H 
ATOM     23  H5  <0> d           5.792   3.266  -0.375  0.00  0.00     0.034 H 
ATOM     24  H6  <0> d           6.275   4.996  -0.793  0.00  0.00     0.034 H 
ATOM     25  H4  <0> d           3.882   5.753  -0.426  0.00  0.00     0.047 H 
ENDBRANCH   6  18
TORSDOF 1
