REMARK  0 active torsions:
REMARK  status: ('A' for Active; 'I' for Inactive)
ROOT
ATOM      1  C1  <0> d          -0.017   1.375   0.010  0.00  0.00    -0.082 A 
ATOM      2  C2  <0> d           1.169   2.087   0.002  0.00  0.00    -0.082 A 
ATOM      3  C3  <0> d           2.374   1.411  -0.013  0.00  0.00    -0.076 A 
ATOM      4  C4  <0> d           2.394   0.028  -0.021  0.00  0.00    -0.052 A 
ATOM      5  C5  <0> d           1.211  -0.689  -0.014  0.00  0.00    -0.052 A 
ATOM      6  C6  <0> d           0.002  -0.004   0.002  0.00  0.00    -0.076 A 
ATOM      7  C7  <0> d           1.874  -2.050  -0.028  0.00  0.00    -0.037 A 
ATOM      8  C8  <0> d           3.181  -1.257  -0.036  0.00  0.00    -0.037 A 
ATOM      9  H1  <0> d          -0.960   1.901   0.026  0.00  0.00     0.083 H 
ATOM     10  H2  <0> d           1.153   3.167   0.008  0.00  0.00     0.083 H 
ATOM     11  H3  <0> d           3.302   1.963  -0.019  0.00  0.00     0.084 H 
ATOM     12  H4  <0> d          -0.927  -0.554   0.008  0.00  0.00     0.084 H 
ATOM     13  H5  <0> d           1.714  -2.631   0.880  0.00  0.00     0.040 H 
ATOM     14  H6  <0> d           1.696  -2.620  -0.940  0.00  0.00     0.040 H 
ATOM     15  H7  <0> d           3.760  -1.395  -0.950  0.00  0.00     0.040 H 
ATOM     16  H8  <0> d           3.778  -1.405   0.864  0.00  0.00     0.040 H 
ENDROOT
TORSDOF 0
