REMARK  3 active torsions:
REMARK  status: ('A' for Active; 'I' for Inactive)
REMARK    1  A    between atoms: C1_1  and  C2_2 
REMARK    2  A    between atoms: C3_3  and  C4_4 
REMARK       I    between atoms: C4_4  and  N1_6 
REMARK    3  A    between atoms: N1_6  and  C5_7 
ROOT
ATOM      1  C5  <0> d           1.177  -4.662  -0.124  0.00  0.00     0.035 A 
ATOM      2  C6  <0> d          -0.042  -5.322  -0.218  0.00  0.00    -0.057 A 
ATOM      3  C7  <0> d          -0.075  -6.699  -0.314  0.00  0.00    -0.081 A 
ATOM      4  C8  <0> d           1.104  -7.421  -0.318  0.00  0.00    -0.083 A 
ATOM      5  C9  <0> d           2.320  -6.768  -0.225  0.00  0.00    -0.081 A 
ATOM      6  C10 <0> d           2.360  -5.391  -0.134  0.00  0.00    -0.057 A 
ATOM      7  H5  <0> d          -0.963  -4.758  -0.215  0.00  0.00     0.086 H 
ATOM      8  H6  <0> d          -1.022  -7.212  -0.387  0.00  0.00     0.083 H 
ATOM      9  H7  <0> d           1.076  -8.498  -0.393  0.00  0.00     0.083 H 
ATOM     10  H8  <0> d           3.239  -7.335  -0.228  0.00  0.00     0.083 H 
ATOM     11  H9  <0> d           3.309  -4.881  -0.066  0.00  0.00     0.086 H 
ENDROOT
BRANCH   1  12
ATOM     12  N1  <0> d           1.214  -3.268  -0.027  0.00  0.00    -0.316 N 
ATOM     13  C4  <0> d           2.208  -2.577  -0.618  0.00  0.00     0.300 C 
ATOM     14  O1  <0> d           3.119  -3.170  -1.164  0.00  0.00    -0.258 OA
ATOM     15  H4  <0> d           0.523  -2.798   0.466  0.00  0.00     0.170 HD
BRANCH  13  16
ATOM     16  C3  <0> d           2.193  -1.145  -0.603  0.00  0.00    -0.006 C 
ATOM     17  C2  <0> d           2.181   0.029  -0.591  0.00  0.00    -0.101 C 
BRANCH  17  18
ATOM     18  C1  <0> d           2.165   1.501  -0.575  0.00  0.00    -0.021 C 
ATOM     19  H1  <0> d           1.279   1.849  -0.045  0.00  0.00     0.044 H 
ATOM     20  H2  <0> d           3.058   1.868  -0.070  0.00  0.00     0.044 H 
ATOM     21  H3  <0> d           2.146   1.875  -1.599  0.00  0.00     0.044 H 
ENDBRANCH  17  18
ENDBRANCH  13  16
ENDBRANCH   1  12
TORSDOF 3
