REMARK  2 active torsions:
REMARK  status: ('A' for Active; 'I' for Inactive)
REMARK    1  A    between atoms: C1_1  and  C2_2 
REMARK    2  A    between atoms: C2_2  and  C3_3 
ROOT
ATOM      1  C3  <0> d           0.718  -0.497  -1.257  0.00  0.00     0.038 C 
ATOM      2  H1  <0> d           1.710  -0.049  -1.310  0.00  0.00     0.083 H 
ATOM      3  C4  <0> d           0.850  -2.022  -1.205  0.00  0.00    -0.041 C 
ATOM      4  C5  <0> d           1.513  -2.514  -2.495  0.00  0.00    -0.061 C 
ATOM      5  C6  <0> d           0.684  -2.042  -3.694  0.00  0.00    -0.045 C 
ATOM      6  C7  <0> d           0.560  -0.516  -3.650  0.00  0.00     0.020 C 
ATOM      7  O1  <0> d          -0.036  -0.124  -2.412  0.00  0.00    -0.386 OA
ATOM      8  H7  <0> d           1.462  -2.306  -0.349  0.00  0.00     0.036 H 
ATOM      9  H8  <0> d          -0.140  -2.470  -1.110  0.00  0.00     0.036 H 
ATOM     10  H9  <0> d           2.521  -2.105  -2.565  0.00  0.00     0.033 H 
ATOM     11  H10 <0> d           1.560  -3.602  -2.489  0.00  0.00     0.033 H 
ATOM     12  H11 <0> d           1.179  -2.340  -4.619  0.00  0.00     0.036 H 
ATOM     13  H12 <0> d          -0.308  -2.491  -3.651  0.00  0.00     0.036 H 
ATOM     14  H13 <0> d           1.550  -0.068  -3.735  0.00  0.00     0.074 H 
ATOM     15  H14 <0> d          -0.065  -0.179  -4.477  0.00  0.00     0.074 H 
ENDROOT
BRANCH   1  16
ATOM     16  C2  <0> d           0.002  -0.004   0.002  0.00  0.00    -0.044 C 
ATOM     17  H5  <0> d           0.529  -0.365   0.885  0.00  0.00     0.036 H 
ATOM     18  H6  <0> d          -1.020  -0.381   0.010  0.00  0.00     0.036 H 
BRANCH  16  19
ATOM     19  C1  <0> d          -0.019   1.526   0.010  0.00  0.00    -0.074 C 
ATOM     20  H2  <0> d           1.004   1.903   0.003  0.00  0.00     0.027 H 
ATOM     21  H3  <0> d          -0.546   1.887  -0.873  0.00  0.00     0.027 H 
ATOM     22  H4  <0> d          -0.529   1.877   0.907  0.00  0.00     0.027 H 
ENDBRANCH  16  19
ENDBRANCH   1  16
TORSDOF 2
