REMARK  6 active torsions:
REMARK  status: ('A' for Active; 'I' for Inactive)
REMARK    1  A    between atoms: C1_1  and  C2_2 
REMARK    2  A    between atoms: C4_4  and  C8_12 
REMARK    3  A    between atoms: N1_5  and  C5_7 
REMARK    4  A    between atoms: C5_7  and  C6_9 
REMARK    5  A    between atoms: C5_7  and  C7_10 
REMARK    6  A    between atoms: C7_10  and  O1_11 
ROOT
ATOM      1  C2  <0> d           4.553   4.236   0.312  0.00  0.00     0.053 A 
ATOM      2  C3  <0> d           4.152   4.872  -0.868  0.00  0.00    -0.035 A 
ATOM      3  C4  <0> d           2.869   4.521  -1.115  0.00  0.00     0.029 A 
ATOM      4  N1  <0> d           2.469   3.699  -0.122  0.00  0.00    -0.268 N 
ATOM      5  N2  <0> d           3.544   3.533   0.760  0.00  0.00    -0.177 NA
ATOM      6  H5  <0> d           4.761   5.524  -1.476  0.00  0.00     0.089 H 
ENDROOT
BRANCH   4   7
ATOM      7  C5  <0> d           1.145   3.085   0.008  0.00  0.00     0.051 C 
ATOM      8  H1  <0> d           0.516   3.397  -0.827  0.00  0.00     0.078 H 
BRANCH   7   9
ATOM      9  C6  <0> d           0.503   3.530   1.324  0.00  0.00    -0.053 C 
ATOM     10  H6  <0> d           1.132   3.218   2.158  0.00  0.00     0.030 H 
ATOM     11  H7  <0> d           0.402   4.615   1.330  0.00  0.00     0.030 H 
ATOM     12  H8  <0> d          -0.482   3.073   1.420  0.00  0.00     0.030 H 
ENDBRANCH   7   9
BRANCH   7  13
ATOM     13  C7  <0> d           1.286   1.562  -0.002  0.00  0.00     0.037 C 
ATOM     14  H9  <0> d           1.840   1.243   0.881  0.00  0.00     0.077 H 
ATOM     15  H10 <0> d           1.823   1.252  -0.899  0.00  0.00     0.077 H 
BRANCH  13  16
ATOM     16  O1  <0> d          -0.011   0.963   0.007  0.00  0.00    -0.399 OA
ATOM     17  H11 <0> d           0.002  -0.004   0.002  0.00  0.00     0.209 HD
ENDBRANCH  13  16
ENDBRANCH   7  13
ENDBRANCH   4   7
BRANCH   3  18
ATOM     18  C8  <0> d           2.035   4.969  -2.287  0.00  0.00    -0.036 C 
ATOM     19  H12 <0> d           1.510   5.889  -2.029  0.00  0.00     0.035 H 
ATOM     20  H13 <0> d           2.682   5.149  -3.146  0.00  0.00     0.035 H 
ATOM     21  H14 <0> d           1.309   4.194  -2.535  0.00  0.00     0.035 H 
ENDBRANCH   3  18
BRANCH   1  22
ATOM     22  C1  <0> d           5.911   4.342   0.955  0.00  0.00    -0.034 C 
ATOM     23  H2  <0> d           6.560   3.559   0.565  0.00  0.00     0.035 H 
ATOM     24  H3  <0> d           6.344   5.317   0.732  0.00  0.00     0.035 H 
ATOM     25  H4  <0> d           5.812   4.228   2.035  0.00  0.00     0.035 H 
ENDBRANCH   1  22
TORSDOF 6
