REMARK  4 active torsions:
REMARK  status: ('A' for Active; 'I' for Inactive)
REMARK    1  A    between atoms: C1_1  and  C2_2 
REMARK    2  A    between atoms: C2_2  and  N1_3 
REMARK    3  A    between atoms: N1_3  and  S1_4 
REMARK    4  A    between atoms: S1_4  and  C3_5 
ROOT
ATOM      1  C3  <0> d          -0.050   3.843   0.023  0.00  0.00     0.016 A 
ATOM      2  C4  <0> d           1.162   3.163   0.008  0.00  0.00    -0.066 A 
ATOM      3  C5  <0> d           1.177   1.782   0.000  0.00  0.00    -0.082 A 
ATOM      4  C6  <0> d          -0.013   1.076   0.008  0.00  0.00    -0.083 A 
ATOM      5  C7  <0> d          -1.220   1.749   0.017  0.00  0.00    -0.082 A 
ATOM      6  C8  <0> d          -1.243   3.130   0.031  0.00  0.00    -0.066 A 
ATOM      7  H7  <0> d           2.091   3.713   0.002  0.00  0.00     0.085 H 
ATOM      8  H8  <0> d           2.118   1.253  -0.012  0.00  0.00     0.083 H 
ATOM      9  H9  <0> d           0.002  -0.004   0.002  0.00  0.00     0.083 H 
ATOM     10  H10 <0> d          -2.147   1.195   0.019  0.00  0.00     0.083 H 
ATOM     11  H11 <0> d          -2.187   3.655   0.043  0.00  0.00     0.085 H 
ENDROOT
BRANCH   1  12
ATOM     12  S1  <0> d          -0.074   5.604   0.032  0.00  0.00    -0.045 SA
BRANCH  12  13
ATOM     13  N1  <0> d          -1.792   6.008   0.051  0.00  0.00    -0.264 NA
ATOM     14  H6  <0> d          -2.272   5.583  -0.728  0.00  0.00     0.135 HD
BRANCH  13  15
ATOM     15  C2  <0> d          -1.991   7.464   0.060  0.00  0.00    -0.017 C 
ATOM     16  H4  <0> d          -1.767   7.855   1.053  0.00  0.00     0.056 H 
ATOM     17  H5  <0> d          -1.327   7.926  -0.670  0.00  0.00     0.056 H 
BRANCH  15  18
ATOM     18  C1  <0> d          -3.444   7.782  -0.297  0.00  0.00    -0.064 C 
ATOM     19  H1  <0> d          -3.591   8.862  -0.290  0.00  0.00     0.029 H 
ATOM     20  H2  <0> d          -3.668   7.391  -1.290  0.00  0.00     0.029 H 
ATOM     21  H3  <0> d          -4.108   7.320   0.433  0.00  0.00     0.029 H 
ENDBRANCH  15  18
ENDBRANCH  13  15
ENDBRANCH  12  13
ENDBRANCH   1  12
TORSDOF 4
