REMARK  6 active torsions:
REMARK  status: ('A' for Active; 'I' for Inactive)
REMARK    1  A    between atoms: C1_1  and  C2_2 
REMARK    2  A    between atoms: C2_2  and  O1_3 
REMARK    3  A    between atoms: O1_3  and  C3_4 
REMARK    4  A    between atoms: C3_4  and  C4_5 
REMARK    5  A    between atoms: C4_5  and  C5_7 
REMARK    6  A    between atoms: C4_5  and  O2_8 
ROOT
ATOM      1  C3  <0> d          -0.013   1.086   0.008  0.00  0.00     0.043 C 
ATOM      2  H7  <0> d           0.002  -0.004   0.002  0.00  0.00     0.078 H 
ATOM      3  H8  <0> d           1.010   1.463   0.000  0.00  0.00     0.078 H 
ENDROOT
BRANCH   1   4
ATOM      4  O1  <0> d          -0.704   1.559  -1.150  0.00  0.00    -0.389 OA
BRANCH   4   5
ATOM      5  C2  <0> d          -0.114   1.152  -2.386  0.00  0.00     0.016 C 
ATOM      6  H5  <0> d           0.907   1.531  -2.443  0.00  0.00     0.073 H 
ATOM      7  H6  <0> d          -0.101   0.064  -2.442  0.00  0.00     0.073 H 
BRANCH   5   8
ATOM      8  C1  <0> d          -0.932   1.713  -3.551  0.00  0.00    -0.056 C 
ATOM      9  H2  <0> d          -0.945   2.801  -3.495  0.00  0.00     0.030 H 
ATOM     10  H3  <0> d          -0.482   1.403  -4.494  0.00  0.00     0.030 H 
ATOM     11  H4  <0> d          -1.952   1.334  -3.493  0.00  0.00     0.030 H 
ENDBRANCH   5   8
ENDBRANCH   4   5
ENDBRANCH   1   4
BRANCH   1  12
ATOM     12  C4  <0> d          -0.729   1.579   1.267  0.00  0.00     0.052 C 
ATOM     13  H1  <0> d          -1.776   1.277   1.232  0.00  0.00     0.085 H 
BRANCH  12  14
ATOM     14  C5  <0> d          -0.064   0.971   2.503  0.00  0.00    -0.051 C 
ATOM     15  H9  <0> d           0.983   1.274   2.539  0.00  0.00     0.031 H 
ATOM     16  H10 <0> d          -0.574   1.323   3.400  0.00  0.00     0.031 H 
ATOM     17  H11 <0> d          -0.126  -0.116   2.452  0.00  0.00     0.031 H 
ENDBRANCH  12  14
BRANCH  12  18
ATOM     18  O2  <0> d          -0.647   3.004   1.334  0.00  0.00    -0.394 OA
ATOM     19  H12 <0> d           0.258   3.345   1.368  0.00  0.00     0.210 HD
ENDBRANCH  12  18
ENDBRANCH   1  12
TORSDOF 6
