REMARK  7 active torsions:
REMARK  status: ('A' for Active; 'I' for Inactive)
REMARK    1  A    between atoms: C1_1  and  C2_2 
REMARK    2  A    between atoms: C2_2  and  O1_3 
REMARK    3  A    between atoms: O1_3  and  C3_4 
REMARK    4  A    between atoms: C3_4  and  C4_6 
REMARK    5  A    between atoms: C4_6  and  C5_7 
REMARK    6  A    between atoms: C5_7  and  C6_9 
REMARK    7  A    between atoms: C5_7  and  C7_10 
ROOT
ATOM      1  C5  <0> d           1.496  -3.909   2.423  0.00  0.00    -0.046 C 
ATOM      2  H1  <0> d           1.917  -4.230   1.470  0.00  0.00     0.040 H 
ENDROOT
BRANCH   1   3
ATOM      3  C4  <0> d           1.516  -2.381   2.500  0.00  0.00     0.019 C 
ATOM      4  H7  <0> d           2.548  -2.031   2.508  0.00  0.00     0.048 H 
ATOM      5  H8  <0> d           1.016  -2.056   3.413  0.00  0.00     0.048 H 
BRANCH   3   6
ATOM      6  C3  <0> d           0.801  -1.808   1.304  0.00  0.00     0.259 C 
ATOM      7  O2  <0> d           0.324  -2.546   0.475  0.00  0.00    -0.265 OA
BRANCH   6   8
ATOM      8  O1  <0> d           0.693  -0.477   1.160  0.00  0.00    -0.322 OA
BRANCH   8   9
ATOM      9  C2  <0> d           0.002  -0.004   0.002  0.00  0.00     0.025 C 
ATOM     10  H5  <0> d          -1.020  -0.381   0.010  0.00  0.00     0.074 H 
ATOM     11  H6  <0> d           0.512  -0.356  -0.895  0.00  0.00     0.074 H 
BRANCH   9  12
ATOM     12  C1  <0> d          -0.019   1.526   0.010  0.00  0.00    -0.056 C 
ATOM     13  H2  <0> d           1.004   1.903   0.003  0.00  0.00     0.030 H 
ATOM     14  H3  <0> d          -0.546   1.887  -0.873  0.00  0.00     0.030 H 
ATOM     15  H4  <0> d          -0.529   1.877   0.907  0.00  0.00     0.030 H 
ENDBRANCH   9  12
ENDBRANCH   8   9
ENDBRANCH   6   8
ENDBRANCH   3   6
ENDBRANCH   1   3
BRANCH   1  16
ATOM     16  C6  <0> d           0.054  -4.406   2.537  0.00  0.00    -0.072 C 
ATOM     17  H9  <0> d          -0.367  -4.085   3.490  0.00  0.00     0.028 H 
ATOM     18  H10 <0> d          -0.539  -3.993   1.721  0.00  0.00     0.028 H 
ATOM     19  H11 <0> d           0.040  -5.495   2.482  0.00  0.00     0.028 H 
ENDBRANCH   1  16
BRANCH   1  20
ATOM     20  C7  <0> d           2.328  -4.488   3.568  0.00  0.00    -0.051 A 
ATOM     21  C9  <0> d           2.433  -6.011   3.665  0.00  0.00    -0.061 A 
ATOM     22  C8  <0> d           3.638  -5.190   3.206  0.00  0.00    -0.061 A 
ATOM     23  H15 <0> d           2.473  -6.451   4.662  0.00  0.00     0.033 H 
ATOM     24  H16 <0> d           1.909  -6.601   2.913  0.00  0.00     0.033 H 
ATOM     25  H13 <0> d           3.908  -5.238   2.151  0.00  0.00     0.033 H 
ATOM     26  H14 <0> d           4.473  -5.088   3.900  0.00  0.00     0.033 H 
ATOM     27  H12 <0> d           2.300  -3.925   4.502  0.00  0.00     0.040 H 
ENDBRANCH   1  20
TORSDOF 7
