REMARK  2 active torsions:
REMARK  status: ('A' for Active; 'I' for Inactive)
REMARK    1  A    between atoms: C1_1  and  C2_2 
REMARK    2  A    between atoms: C5_5  and  C6_8 
ROOT
ATOM      1  C2  <0> d           0.002  -0.004   0.002  0.00  0.00     0.005 A 
ATOM      2  C3  <0> d          -0.004  -0.789  -1.095  0.00  0.00    -0.060 A 
ATOM      3  C4  <0> d           0.023  -2.127  -0.656  0.00  0.00    -0.060 A 
ATOM      4  C5  <0> d           0.036  -2.110   0.693  0.00  0.00     0.005 A 
ATOM      5  N1  <0> d           0.024  -0.809   1.102  0.00  0.00    -0.364 N 
ATOM      6  H1  <0> d           0.028  -0.507   2.024  0.00  0.00     0.165 HD
ATOM      7  H5  <0> d          -0.023  -0.453  -2.121  0.00  0.00     0.086 H 
ATOM      8  H6  <0> d           0.029  -3.006  -1.284  0.00  0.00     0.086 H 
ENDROOT
BRANCH   1   9
ATOM      9  C1  <0> d          -0.018   1.503   0.010  0.00  0.00    -0.037 C 
ATOM     10  H2  <0> d           1.004   1.880   0.003  0.00  0.00     0.035 H 
ATOM     11  H3  <0> d          -0.545   1.864  -0.873  0.00  0.00     0.035 H 
ATOM     12  H4  <0> d          -0.529   1.854   0.907  0.00  0.00     0.035 H 
ENDBRANCH   1   9
BRANCH   4  13
ATOM     13  C6  <0> d           0.060  -3.319   1.592  0.00  0.00    -0.037 C 
ATOM     14  H7  <0> d          -0.961  -3.623   1.818  0.00  0.00     0.035 H 
ATOM     15  H8  <0> d           0.580  -4.135   1.090  0.00  0.00     0.035 H 
ATOM     16  H9  <0> d           0.580  -3.073   2.518  0.00  0.00     0.035 H 
ENDBRANCH   4  13
TORSDOF 2
