REMARK  0 active torsions:
REMARK  status: ('A' for Active; 'I' for Inactive)
ROOT
ATOM      1  C1  <0> d          -0.019   1.541   0.011  0.00  0.00    -0.029 C 
ATOM      2  C2  <0> d           1.486   1.909  -0.002  0.00  0.00     0.113 C 
ATOM      3  N1  <0> d           2.080   0.879  -0.893  0.00  0.00     0.094 N 
ATOM      4  C3  <0> d           1.380  -0.384  -0.572  0.00  0.00     0.204 A 
ATOM      5  H1  <0> d           1.972  -1.188  -0.135  0.00  0.00     0.098 H 
ATOM      6  C4  <0> d           0.002  -0.004   0.002  0.00  0.00     0.049 A 
ATOM      7  H2  <0> d          -0.422  -0.519   0.864  0.00  0.00     0.052 H 
ATOM      8  C5  <0> d           0.117  -0.730  -1.364  0.00  0.00     0.280 A 
ATOM      9  F1  <0> d          -0.268  -2.074  -1.408  0.00  0.00    -0.203 F 
ATOM     10  F2  <0> d          -0.140   0.009  -2.523  0.00  0.00    -0.203 F 
ATOM     11  H3  <0> d          -0.500   1.915   0.914  0.00  0.00     0.036 H 
ATOM     12  H4  <0> d          -0.517   1.925  -0.880  0.00  0.00     0.036 H 
ATOM     13  H5  <0> d           1.635   2.907  -0.414  0.00  0.00     0.079 H 
ATOM     14  H6  <0> d           1.907   1.839   1.001  0.00  0.00     0.079 H 
ATOM     15  H7  <0> d           1.955   1.125  -1.863  0.00  0.00     0.316 HD
ENDROOT
TORSDOF 0
