REMARK  5 active torsions:
REMARK  status: ('A' for Active; 'I' for Inactive)
REMARK    1  A    between atoms: C1_1  and  C2_2 
REMARK    2  A    between atoms: C2_2  and  C3_3 
REMARK    3  A    between atoms: C2_2  and  O1_4 
REMARK    4  A    between atoms: O1_4  and  C4_5 
REMARK    5  A    between atoms: C8_9  and  N1_11 
ROOT
ATOM      1  C4  <0> d          -0.057   3.863   0.237  0.00  0.00     0.071 A 
ATOM      2  C5  <0> d           1.142   3.163   0.229  0.00  0.00    -0.051 A 
ATOM      3  C6  <0> d           1.149   1.798   0.440  0.00  0.00    -0.078 A 
ATOM      4  C7  <0> d          -0.037   1.124   0.659  0.00  0.00    -0.058 A 
ATOM      5  C8  <0> d          -1.241   1.818   0.663  0.00  0.00     0.028 A 
ATOM      6  C9  <0> d          -1.249   3.191   0.457  0.00  0.00    -0.026 A 
ATOM      7  H8  <0> d           2.070   3.687   0.057  0.00  0.00     0.087 H 
ATOM      8  H9  <0> d           2.083   1.256   0.432  0.00  0.00     0.083 H 
ATOM      9  H10 <0> d          -0.029   0.057   0.823  0.00  0.00     0.086 H 
ATOM     10  H11 <0> d          -2.183   3.734   0.464  0.00  0.00     0.091 H 
ENDROOT
BRANCH   1  11
ATOM     11  O1  <0> d          -0.062   5.206   0.028  0.00  0.00    -0.347 OA
BRANCH  11  12
ATOM     12  C2  <0> d          -1.338   5.843  -0.067  0.00  0.00     0.038 C 
ATOM     13  H4  <0> d          -2.042   5.173  -0.561  0.00  0.00     0.082 H 
BRANCH  12  14
ATOM     14  C1  <0> d          -1.849   6.175   1.336  0.00  0.00    -0.052 C 
ATOM     15  H1  <0> d          -1.145   6.844   1.830  0.00  0.00     0.030 H 
ATOM     16  H2  <0> d          -2.822   6.661   1.263  0.00  0.00     0.030 H 
ATOM     17  H3  <0> d          -1.944   5.256   1.915  0.00  0.00     0.030 H 
ENDBRANCH  12  14
BRANCH  12  18
ATOM     18  C3  <0> d          -1.205   7.132  -0.880  0.00  0.00    -0.052 C 
ATOM     19  H5  <0> d          -0.841   6.895  -1.880  0.00  0.00     0.030 H 
ATOM     20  H6  <0> d          -2.178   7.618  -0.953  0.00  0.00     0.030 H 
ATOM     21  H7  <0> d          -0.500   7.801  -0.386  0.00  0.00     0.030 H 
ENDBRANCH  12  18
ENDBRANCH  11  12
ENDBRANCH   1  11
BRANCH   5  22
ATOM     22  N1  <0> d          -2.441   1.136   0.879  0.00  0.00    -0.399 N 
ATOM     23  H12 <0> d          -2.434   0.177   1.026  0.00  0.00     0.156 HD
ATOM     24  H13 <0> d          -3.281   1.621   0.882  0.00  0.00     0.156 HD
ENDBRANCH   5  22
TORSDOF 5
