REMARK  1 active torsions:
REMARK  status: ('A' for Active; 'I' for Inactive)
REMARK    1  A    between atoms: C3_3  and  C6_8 
ROOT
ATOM      1  C1  <0> d           1.165   3.297   0.009  0.00  0.00    -0.074 A 
ATOM      2  C2  <0> d          -0.084   3.948   0.024  0.00  0.00    -0.043 A 
ATOM      3  C3  <0> d          -1.229   3.215   0.031  0.00  0.00     0.155 A 
ATOM      4  O1  <0> d          -1.187   1.868   0.018  0.00  0.00    -0.269 OA
ATOM      5  C4  <0> d          -0.014   1.214   0.009  0.00  0.00     0.288 A 
ATOM      6  O2  <0> d           0.002  -0.004   0.002  0.00  0.00    -0.260 OA
ATOM      7  C5  <0> d           1.202   1.937   0.001  0.00  0.00    -0.010 A 
ATOM      8  H1  <0> d           2.081   3.870   0.003  0.00  0.00     0.083 H 
ATOM      9  H2  <0> d          -0.132   5.027   0.031  0.00  0.00     0.088 H 
ATOM     10  H3  <0> d           2.148   1.416  -0.011  0.00  0.00     0.092 H 
ENDROOT
BRANCH   3  11
ATOM     11  C6  <0> d          -2.535   3.903   0.047  0.00  0.00     0.234 C 
ATOM     12  O3  <0> d          -2.582   5.117   0.054  0.00  0.00    -0.642 OA
ATOM     13  O4  <0> d          -3.675   3.184   0.054  0.00  0.00    -0.642 OA
ENDBRANCH   3  11
TORSDOF 1
