REMARK  7 active torsions:
REMARK  status: ('A' for Active; 'I' for Inactive)
REMARK    1  A    between atoms: C1_1  and  O1_2 
REMARK    2  A    between atoms: O1_2  and  C2_3 
REMARK    3  A    between atoms: C2_3  and  C3_4 
REMARK    4  A    between atoms: C4_5  and  C5_6 
REMARK    5  A    between atoms: C5_6  and  C6_7 
REMARK    6  A    between atoms: C6_7  and  C7_8 
REMARK    7  A    between atoms: C7_8  and  C8_9 
ROOT
ATOM      1  C5  <0> d           1.747   5.747   0.819  0.00  0.00    -0.050 C 
ATOM      2  H8  <0> d           2.672   6.200   0.461  0.00  0.00     0.038 H 
ATOM      3  H9  <0> d           0.923   6.039   0.167  0.00  0.00     0.038 H 
ENDROOT
BRANCH   1   4
ATOM      4  C4  <0> d           1.887   4.246   0.809  0.00  0.00    -0.105 C 
ATOM      5  C3  <0> d           1.141   3.524   0.010  0.00  0.00    -0.084 C 
ATOM      6  H6  <0> d           0.426   4.004  -0.642  0.00  0.00     0.079 H 
ATOM      7  H7  <0> d           2.601   3.766   1.461  0.00  0.00     0.076 H 
BRANCH   5   8
ATOM      8  C2  <0> d           1.280   2.024   0.001  0.00  0.00     0.034 C 
ATOM      9  H4  <0> d           1.834   1.705   0.884  0.00  0.00     0.080 H 
ATOM     10  H5  <0> d           1.817   1.714  -0.896  0.00  0.00     0.080 H 
BRANCH   8  11
ATOM     11  O1  <0> d          -0.017   1.425   0.010  0.00  0.00    -0.392 OA
BRANCH  11  12
ATOM     12  C1  <0> d           0.002  -0.004   0.002  0.00  0.00     0.004 C 
ATOM     13  H1  <0> d          -1.020  -0.381   0.010  0.00  0.00     0.066 H 
ATOM     14  H2  <0> d           0.512  -0.356  -0.895  0.00  0.00     0.066 H 
ATOM     15  H3  <0> d           0.529  -0.365   0.885  0.00  0.00     0.066 H 
ENDBRANCH  11  12
ENDBRANCH   8  11
ENDBRANCH   5   8
ENDBRANCH   1   4
BRANCH   1  16
ATOM     16  C6  <0> d           1.464   6.224   2.244  0.00  0.00    -0.059 C 
ATOM     17  H10 <0> d           0.540   5.771   2.602  0.00  0.00     0.033 H 
ATOM     18  H11 <0> d           2.288   5.931   2.896  0.00  0.00     0.033 H 
BRANCH  16  19
ATOM     19  C7  <0> d           1.323   7.747   2.254  0.00  0.00    -0.050 C 
ATOM     20  H12 <0> d           2.247   8.200   1.896  0.00  0.00     0.038 H 
ATOM     21  H13 <0> d           0.499   8.040   1.603  0.00  0.00     0.038 H 
BRANCH  19  22
ATOM     22  C8  <0> d           1.044   8.217   3.659  0.00  0.00    -0.112 C 
ATOM     23  C9  <0> d           1.814   9.121   4.212  0.00  0.00    -0.125 C 
ATOM     24  H15 <0> d           1.615   9.457   5.218  0.00  0.00     0.066 H 
ATOM     25  H16 <0> d           2.649   9.529   3.662  0.00  0.00     0.066 H 
ATOM     26  H14 <0> d           0.209   7.809   4.209  0.00  0.00     0.075 H 
ENDBRANCH  19  22
ENDBRANCH  16  19
ENDBRANCH   1  16
TORSDOF 7
