REMARK  1 active torsions:
REMARK  status: ('A' for Active; 'I' for Inactive)
REMARK    1  A    between atoms: C1_1  and  C2_2 
ROOT
ATOM      1  C2  <0> d           1.527   4.349   0.011  0.00  0.00     0.004 A 
ATOM      2  C3  <0> d           2.887   4.118  -0.003  0.00  0.00     0.124 A 
ATOM      3  C4  <0> d           3.384   2.821  -0.015  0.00  0.00    -0.044 A 
ATOM      4  C5  <0> d           2.533   1.752  -0.013  0.00  0.00    -0.068 A 
ATOM      5  C6  <0> d           1.153   1.963   0.002  0.00  0.00    -0.007 A 
ATOM      6  C7  <0> d           0.644   3.275   0.013  0.00  0.00     0.051 A 
ATOM      7  N1  <0> d          -0.730   3.177   0.026  0.00  0.00    -0.365 N 
ATOM      8  H1  <0> d          -1.342   3.929   0.035  0.00  0.00     0.165 HD
ATOM      9  C8  <0> d          -1.102   1.859   0.017  0.00  0.00    -0.022 A 
ATOM     10  C9  <0> d          -0.013   1.076   0.008  0.00  0.00    -0.056 A 
ATOM     11  F1  <0> d           3.743   5.163  -0.005  0.00  0.00    -0.205 F 
ATOM     12  H5  <0> d           4.452   2.656  -0.026  0.00  0.00     0.088 H 
ATOM     13  H6  <0> d           2.927   0.746  -0.021  0.00  0.00     0.085 H 
ATOM     14  H7  <0> d          -2.122   1.503   0.019  0.00  0.00     0.111 H 
ATOM     15  H8  <0> d           0.002  -0.004   0.002  0.00  0.00     0.086 H 
ENDROOT
BRANCH   1  16
ATOM     16  C1  <0> d           1.000   5.761   0.024  0.00  0.00    -0.046 C 
ATOM     17  H2  <0> d           0.882   6.096   1.055  0.00  0.00     0.033 H 
ATOM     18  H3  <0> d           1.701   6.416  -0.492  0.00  0.00     0.033 H 
ATOM     19  H4  <0> d           0.034   5.793  -0.480  0.00  0.00     0.033 H 
ENDBRANCH   1  16
TORSDOF 1
