REMARK  1 active torsions:
REMARK  status: ('A' for Active; 'I' for Inactive)
REMARK    1  A    between atoms: C4_6  and  C5_7 
ROOT
ATOM      1  C1  <0> d          -0.033   3.756   0.022  0.00  0.00    -0.037 A 
ATOM      2  C2  <0> d           1.159   3.056   0.007  0.00  0.00     0.006 A 
ATOM      3  N1  <0> d           1.131   1.732   0.001  0.00  0.00    -0.254 NA
ATOM      4  C3  <0> d          -0.013   1.076   0.008  0.00  0.00     0.086 A 
ATOM      5  N2  <0> d          -1.172   1.700   0.017  0.00  0.00    -0.241 NA
ATOM      6  C4  <0> d          -1.228   3.031   0.030  0.00  0.00     0.072 A 
ATOM      7  H2  <0> d          -0.041   4.836   0.028  0.00  0.00     0.089 H 
ATOM      8  H3  <0> d           2.102   3.583   0.001  0.00  0.00     0.114 H 
ATOM      9  H4  <0> d           0.002  -0.004   0.002  0.00  0.00     0.146 H 
ENDROOT
BRANCH   6  10
ATOM     10  C5  <0> d          -2.534   3.730   0.047  0.00  0.00     0.029 A 
ATOM     11  C7  <0> d          -2.735   5.122  -0.043  0.00  0.00     0.035 A 
ATOM     12  N4  <0> d          -4.021   5.350   0.006  0.00  0.00    -0.187 NA
ATOM     13  H6  <0> d          -1.962   5.871  -0.136  0.00  0.00     0.118 H 
ATOM     14  N3  <0> d          -4.686   4.124   0.129  0.00  0.00    -0.289 N 
ATOM     15  C6  <0> d          -3.764   3.143   0.146  0.00  0.00     0.009 A 
ATOM     16  H1  <0> d          -5.676   3.998   0.192  0.00  0.00     0.188 HD
ATOM     17  H5  <0> d          -3.960   2.084   0.226  0.00  0.00     0.115 H 
ENDBRANCH   6  10
TORSDOF 1
