REMARK  0 active torsions:
REMARK  status: ('A' for Active; 'I' for Inactive)
ROOT
ATOM      1  C1  <0> d          -0.016   1.339   0.009  0.00  0.00     0.036 A 
ATOM      2  C2  <0> d           0.002  -0.004   0.002  0.00  0.00     0.014 A 
ATOM      3  N1  <0> d           1.326  -0.384  -0.013  0.00  0.00    -0.189 N 
ATOM      4  C3  <0> d           2.075   0.744  -0.014  0.00  0.00     0.702 A 
ATOM      5  N2  <0> d           1.252   1.778  -0.000  0.00  0.00    -0.076 NA
ATOM      6  N3  <0> d           3.434   0.470  -0.028  0.00  0.00    -0.223 N 
ATOM      7  C4  <0> d           3.629  -0.985  -0.037  0.00  0.00     0.025 A 
ATOM      8  C5  <0> d           2.203  -1.562  -0.027  0.00  0.00     0.031 A 
ATOM      9  H1  <0> d          -0.900   1.959   0.017  0.00  0.00     0.117 H 
ATOM     10  H2  <0> d          -0.856  -0.660   0.006  0.00  0.00     0.114 H 
ATOM     11  H3  <0> d           4.142   1.133  -0.030  0.00  0.00     0.177 HD
ATOM     12  H4  <0> d           4.174  -1.302   0.852  0.00  0.00     0.067 H 
ATOM     13  H5  <0> d           4.158  -1.292  -0.939  0.00  0.00     0.067 H 
ATOM     14  H6  <0> d           2.043  -2.165   0.867  0.00  0.00     0.068 H 
ATOM     15  H7  <0> d           2.027  -2.156  -0.924  0.00  0.00     0.068 H 
ENDROOT
TORSDOF 0
