REMARK  3 active torsions:
REMARK  status: ('A' for Active; 'I' for Inactive)
REMARK    1  A    between atoms: C2_2  and  C3_3 
REMARK    2  A    between atoms: C3_3  and  O1_4 
REMARK    3  A    between atoms: O1_4  and  C4_5 
ROOT
ATOM      1  C4  <0> d           1.147   3.166   0.008  0.00  0.00     0.071 A 
ATOM      2  C5  <0> d           1.178   1.773   0.000  0.00  0.00    -0.034 A 
ATOM      3  C6  <0> d          -0.013   1.076   0.008  0.00  0.00     0.004 A 
ATOM      4  N1  <0> d          -1.169   1.712   0.017  0.00  0.00    -0.273 NA
ATOM      5  C7  <0> d          -1.239   3.029   0.030  0.00  0.00     0.004 A 
ATOM      6  C8  <0> d          -0.094   3.799   0.023  0.00  0.00    -0.034 A 
ATOM      7  H6  <0> d           2.121   1.247  -0.012  0.00  0.00     0.089 H 
ATOM      8  H7  <0> d           0.002  -0.004   0.002  0.00  0.00     0.114 H 
ATOM      9  H8  <0> d          -2.205   3.512   0.042  0.00  0.00     0.114 H 
ATOM     10  H9  <0> d          -0.158   4.877   0.029  0.00  0.00     0.089 H 
ENDROOT
BRANCH   1  11
ATOM     11  O1  <0> d           2.296   3.887   0.001  0.00  0.00    -0.347 OA
BRANCH  11  12
ATOM     12  C3  <0> d           2.169   5.311   0.009  0.00  0.00     0.040 C 
ATOM     13  H4  <0> d           1.616   5.631  -0.873  0.00  0.00     0.081 H 
ATOM     14  H5  <0> d           1.634   5.622   0.906  0.00  0.00     0.081 H 
BRANCH  12  15
ATOM     15  C2  <0> d           3.539   5.938  -0.001  0.00  0.00    -0.089 C 
ATOM     16  C1  <0> d           3.793   6.944  -0.800  0.00  0.00    -0.123 C 
ATOM     17  H1  <0> d           3.020   7.324  -1.452  0.00  0.00     0.066 H 
ATOM     18  H2  <0> d           4.775   7.394  -0.807  0.00  0.00     0.066 H 
ATOM     19  H3  <0> d           4.312   5.558   0.651  0.00  0.00     0.078 H 
ENDBRANCH  12  15
ENDBRANCH  11  12
ENDBRANCH   1  11
TORSDOF 3
