REMARK  3 active torsions:
REMARK  status: ('A' for Active; 'I' for Inactive)
REMARK    1  A    between atoms: C1_1  and  C2_2 
REMARK    2  A    between atoms: C3_5  and  N4_11 
REMARK    3  A    between atoms: C4_6  and  C5_8 
REMARK       I    between atoms: C5_8  and  N3_10 
ROOT
ATOM      1  C2  <0> d           0.002  -0.004   0.002  0.00  0.00     0.102 A 
ATOM      2  N1  <0> d           1.294  -0.442  -0.013  0.00  0.00    -0.329 N 
ATOM      3  H1  <0> d           1.594  -1.396  -0.021  0.00  0.00     0.168 HD
ATOM      4  C3  <0> d           2.103   0.656  -0.015  0.00  0.00     0.135 A 
ATOM      5  C4  <0> d           1.263   1.760  -0.001  0.00  0.00     0.169 A 
ATOM      6  N2  <0> d          -0.015   1.295   0.009  0.00  0.00    -0.226 NA
ENDROOT
BRANCH   5   7
ATOM      7  C5  <0> d           1.677   3.166   0.002  0.00  0.00     0.271 C 
ATOM      8  O1  <0> d           2.860   3.452  -0.008  0.00  0.00    -0.266 OA
ATOM      9  N3  <0> d           0.747   4.141   0.016  0.00  0.00    -0.365 N 
ATOM     10  H5  <0> d          -0.196   3.913   0.024  0.00  0.00     0.159 HD
ATOM     11  H6  <0> d           1.020   5.072   0.018  0.00  0.00     0.159 HD
ENDBRANCH   5   7
BRANCH   4  12
ATOM     12  N4  <0> d           3.483   0.666  -0.027  0.00  0.00    -0.383 N 
ATOM     13  H7  <0> d           3.974  -0.170  -0.036  0.00  0.00     0.157 HD
ATOM     14  H8  <0> d           3.962   1.510  -0.027  0.00  0.00     0.157 HD
ENDBRANCH   4  12
BRANCH   1  15
ATOM     15  C1  <0> d          -1.217  -0.890   0.008  0.00  0.00    -0.021 C 
ATOM     16  H2  <0> d          -1.520  -1.098  -1.018  0.00  0.00     0.037 H 
ATOM     17  H3  <0> d          -0.982  -1.827   0.515  0.00  0.00     0.037 H 
ATOM     18  H4  <0> d          -2.029  -0.387   0.533  0.00  0.00     0.037 H 
ENDBRANCH   1  15
TORSDOF 3
