REMARK  0 active torsions:
REMARK  status: ('A' for Active; 'I' for Inactive)
ROOT
ATOM      1  C1  <0> d          -0.017   1.384   0.010  0.00  0.00    -0.065 A 
ATOM      2  C2  <0> d           1.175   2.085   0.002  0.00  0.00    -0.064 A 
ATOM      3  C3  <0> d           2.364   1.351  -0.013  0.00  0.00     0.064 A 
ATOM      4  C4  <0> d           2.307  -0.061  -0.020  0.00  0.00     0.091 A 
ATOM      5  C5  <0> d           3.567  -0.806  -0.037  0.00  0.00     0.050 A 
ATOM      6  N1  <0> d           4.700  -0.169  -0.045  0.00  0.00    -0.182 NA
ATOM      7  N2  <0> d           4.784   1.223  -0.038  0.00  0.00    -0.243 N 
ATOM      8  H1  <0> d           5.658   1.644  -0.045  0.00  0.00     0.192 HD
ATOM      9  C6  <0> d           3.680   1.999  -0.023  0.00  0.00     0.274 A 
ATOM     10  O1  <0> d           3.774   3.213  -0.018  0.00  0.00    -0.266 OA
ATOM     11  N3  <0> d           1.131  -0.680  -0.012  0.00  0.00    -0.259 NA
ATOM     12  C7  <0> d           0.002  -0.004   0.002  0.00  0.00     0.003 A 
ATOM     13  H2  <0> d          -0.958   1.914   0.026  0.00  0.00     0.085 H 
ATOM     14  H3  <0> d           1.187   3.164   0.007  0.00  0.00     0.085 H 
ATOM     15  H4  <0> d           3.555  -1.886  -0.042  0.00  0.00     0.121 H 
ATOM     16  H5  <0> d          -0.934  -0.543   0.008  0.00  0.00     0.114 H 
ENDROOT
TORSDOF 0
