REMARK  7 active torsions:
REMARK  status: ('A' for Active; 'I' for Inactive)
REMARK    1  A    between atoms: C1_1  and  C2_2 
REMARK    2  A    between atoms: C2_2  and  O1_3 
REMARK    3  A    between atoms: O1_3  and  C3_4 
REMARK    4  A    between atoms: C3_4  and  C4_6 
REMARK    5  A    between atoms: C4_6  and  C5_7 
REMARK    6  A    between atoms: C4_6  and  C7_10 
REMARK    7  A    between atoms: C5_7  and  C6_8 
ROOT
ATOM      1  C4  <0> d          -2.848  -2.426  -0.446  0.00  0.00     0.035 C 
ENDROOT
BRANCH   1   2
ATOM      2  C3  <0> d          -1.685  -2.021  -1.136  0.00  0.00     0.290 C 
ATOM      3  O2  <0> d          -0.817  -2.834  -1.396  0.00  0.00    -0.260 OA
BRANCH   2   4
ATOM      4  O1  <0> d          -1.535  -0.732  -1.508  0.00  0.00    -0.318 OA
BRANCH   4   5
ATOM      5  C2  <0> d          -0.333  -0.393  -2.203  0.00  0.00     0.026 C 
ATOM      6  H4  <0> d          -0.270  -0.973  -3.124  0.00  0.00     0.074 H 
ATOM      7  H5  <0> d           0.527  -0.618  -1.573  0.00  0.00     0.074 H 
BRANCH   5   8
ATOM      8  C1  <0> d          -0.342   1.099  -2.540  0.00  0.00    -0.056 C 
ATOM      9  H1  <0> d           0.574   1.358  -3.070  0.00  0.00     0.030 H 
ATOM     10  H2  <0> d          -1.202   1.324  -3.170  0.00  0.00     0.030 H 
ATOM     11  H3  <0> d          -0.405   1.679  -1.619  0.00  0.00     0.030 H 
ENDBRANCH   5   8
ENDBRANCH   4   5
ENDBRANCH   2   4
ENDBRANCH   1   2
BRANCH   1  12
ATOM     12  C5  <0> d          -2.946  -3.685   0.030  0.00  0.00     0.010 C 
ATOM     13  N1  <0> d          -1.873  -4.527  -0.038  0.00  0.00    -0.402 N 
ATOM     14  H9  <0> d          -0.973  -4.170   0.017  0.00  0.00     0.156 HD
ATOM     15  H10 <0> d          -2.011  -5.482  -0.140  0.00  0.00     0.156 HD
BRANCH  12  16
ATOM     16  C6  <0> d          -4.241  -4.162   0.637  0.00  0.00    -0.037 C 
ATOM     17  H6  <0> d          -5.042  -4.070  -0.097  0.00  0.00     0.035 H 
ATOM     18  H7  <0> d          -4.140  -5.206   0.934  0.00  0.00     0.035 H 
ATOM     19  H8  <0> d          -4.477  -3.557   1.512  0.00  0.00     0.035 H 
ENDBRANCH  12  16
ENDBRANCH   1  12
BRANCH   1  20
ATOM     20  C7  <0> d          -3.980  -1.452  -0.241  0.00  0.00    -0.044 C 
ATOM     21  H11 <0> d          -4.668  -1.512  -1.084  0.00  0.00     0.033 H 
ATOM     22  H12 <0> d          -4.510  -1.700   0.679  0.00  0.00     0.033 H 
ATOM     23  H13 <0> d          -3.580  -0.440  -0.169  0.00  0.00     0.033 H 
ENDBRANCH   1  20
TORSDOF 7
