REMARK  5 active torsions:
REMARK  status: ('A' for Active; 'I' for Inactive)
REMARK    1  A    between atoms: C1_1  and  C2_2 
REMARK    2  A    between atoms: C2_2  and  C3_3 
REMARK    3  A    between atoms: C3_3  and  C4_4 
REMARK    4  A    between atoms: C4_4  and  C5_5 
REMARK    5  A    between atoms: C5_5  and  C6_6 
ROOT
ATOM      1  C4  <0> d           0.002  -0.004   0.002  0.00  0.00    -0.060 C 
ATOM      2  H8  <0> d           0.512  -0.356  -0.895  0.00  0.00     0.033 H 
ATOM      3  H9  <0> d           0.529  -0.365   0.885  0.00  0.00     0.033 H 
ENDROOT
BRANCH   1   4
ATOM      4  C3  <0> d          -0.019   1.526   0.010  0.00  0.00    -0.065 C 
ATOM      5  H6  <0> d          -0.546   1.887  -0.873  0.00  0.00     0.033 H 
ATOM      6  H7  <0> d          -0.529   1.877   0.907  0.00  0.00     0.033 H 
BRANCH   4   7
ATOM      7  C2  <0> d           1.417   2.055  -0.000  0.00  0.00    -0.069 C 
ATOM      8  H4  <0> d           1.944   1.694   0.883  0.00  0.00     0.032 H 
ATOM      9  H5  <0> d           1.927   1.704  -0.897  0.00  0.00     0.032 H 
BRANCH   7  10
ATOM     10  C1  <0> d           1.396   3.585   0.008  0.00  0.00    -0.077 C 
ATOM     11  H1  <0> d           0.869   3.946  -0.875  0.00  0.00     0.027 H 
ATOM     12  H2  <0> d           0.886   3.937   0.905  0.00  0.00     0.027 H 
ATOM     13  H3  <0> d           2.419   3.962   0.000  0.00  0.00     0.027 H 
ENDBRANCH   7  10
ENDBRANCH   4   7
ENDBRANCH   1   4
BRANCH   1  14
ATOM     14  C5  <0> d          -1.433  -0.534   0.013  0.00  0.00    -0.020 C 
ATOM     15  H10 <0> d          -1.944  -0.182   0.910  0.00  0.00     0.043 H 
ATOM     16  H11 <0> d          -1.960  -0.173  -0.870  0.00  0.00     0.043 H 
BRANCH  14  17
ATOM     17  C6  <0> d          -1.413  -2.041   0.005  0.00  0.00     0.052 A 
ATOM     18  O1  <0> d          -1.419  -2.820  -1.089  0.00  0.00    -0.327 OA
ATOM     19  C9  <0> d          -1.391  -4.111  -0.719  0.00  0.00     0.019 A 
ATOM     20  C8  <0> d          -1.378  -4.168   0.625  0.00  0.00    -0.059 A 
ATOM     21  H14 <0> d          -1.387  -4.959  -1.387  0.00  0.00     0.123 H 
ATOM     22  C7  <0> d          -1.392  -2.833   1.091  0.00  0.00    -0.052 A 
ATOM     23  H13 <0> d          -1.360  -5.061   1.231  0.00  0.00     0.086 H 
ATOM     24  H12 <0> d          -1.386  -2.511   2.122  0.00  0.00     0.087 H 
ENDBRANCH  14  17
ENDBRANCH   1  14
TORSDOF 5
