REMARK  0 active torsions:
REMARK  status: ('A' for Active; 'I' for Inactive)
ROOT
ATOM      1  C1  <0> d          -0.017   1.368   0.010  0.00  0.00     0.012 A 
ATOM      2  C2  <0> d           1.251   1.800  -0.000  0.00  0.00     0.118 A 
ATOM      3  C3  <0> d           2.095   0.656  -0.019  0.00  0.00     0.118 A 
ATOM      4  C4  <0> d           1.308  -0.427  -0.014  0.00  0.00     0.012 A 
ATOM      5  N1  <0> d           0.002  -0.004   0.002  0.00  0.00    -0.370 N 
ATOM      6  H1  <0> d          -0.779  -0.580   0.007  0.00  0.00     0.164 HD
ATOM      7  O1  <0> d           3.456   0.764  -0.043  0.00  0.00    -0.345 OA
ATOM      8  C5  <0> d           3.930   2.071  -0.410  0.00  0.00     0.046 C 
ATOM      9  C6  <0> d           3.149   3.139   0.361  0.00  0.00     0.046 C 
ATOM     10  O2  <0> d           1.756   3.069   0.008  0.00  0.00    -0.345 OA
ATOM     11  H2  <0> d          -0.899   1.991   0.025  0.00  0.00     0.115 H 
ATOM     12  H3  <0> d           1.642  -1.454  -0.022  0.00  0.00     0.115 H 
ATOM     13  H4  <0> d           4.990   2.153  -0.170  0.00  0.00     0.078 H 
ATOM     14  H5  <0> d           3.789   2.221  -1.481  0.00  0.00     0.078 H 
ATOM     15  H6  <0> d           3.261   2.968   1.431  0.00  0.00     0.078 H 
ATOM     16  H7  <0> d           3.538   4.126   0.109  0.00  0.00     0.078 H 
ENDROOT
TORSDOF 0
