REMARK  4 active torsions:
REMARK  status: ('A' for Active; 'I' for Inactive)
REMARK    1  A    between atoms: C1_1  and  C2_2 
REMARK    2  A    between atoms: C2_2  and  C3_4 
REMARK    3  A    between atoms: C2_2  and  O1_11 
REMARK    4  A    between atoms: C7_8  and  N1_10 
ROOT
ATOM      1  C3  <0> d          -0.749   3.086   1.275  0.00  0.00    -0.028 A 
ATOM      2  C4  <0> d          -1.747   3.767   0.601  0.00  0.00    -0.074 A 
ATOM      3  C5  <0> d          -1.769   5.149   0.606  0.00  0.00    -0.080 A 
ATOM      4  C6  <0> d          -0.795   5.855   1.285  0.00  0.00    -0.058 A 
ATOM      5  C7  <0> d           0.208   5.174   1.963  0.00  0.00     0.026 A 
ATOM      6  C8  <0> d           0.225   3.785   1.960  0.00  0.00    -0.049 A 
ATOM      7  H5  <0> d          -2.510   3.218   0.069  0.00  0.00     0.084 H 
ATOM      8  H6  <0> d          -2.550   5.678   0.080  0.00  0.00     0.083 H 
ATOM      9  H7  <0> d          -0.813   6.935   1.289  0.00  0.00     0.086 H 
ATOM     10  H8  <0> d           1.000   3.253   2.490  0.00  0.00     0.087 H 
ENDROOT
BRANCH   1  11
ATOM     11  C2  <0> d          -0.729   1.579   1.267  0.00  0.00     0.057 C 
ATOM     12  H1  <0> d          -0.202   1.218   2.150  0.00  0.00     0.089 H 
BRANCH  11  13
ATOM     13  C1  <0> d          -0.013   1.086   0.008  0.00  0.00    -0.049 C 
ATOM     14  H2  <0> d           0.002  -0.004   0.002  0.00  0.00     0.031 H 
ATOM     15  H3  <0> d           1.010   1.463   0.000  0.00  0.00     0.031 H 
ATOM     16  H4  <0> d          -0.540   1.447  -0.875  0.00  0.00     0.031 H 
ENDBRANCH  11  13
BRANCH  11  17
ATOM     17  O1  <0> d          -2.070   1.085   1.277  0.00  0.00    -0.391 OA
ATOM     18  H11 <0> d          -2.133   0.120   1.272  0.00  0.00     0.210 HD
ENDBRANCH  11  17
ENDBRANCH   1  11
BRANCH   5  19
ATOM     19  N1  <0> d           1.195   5.885   2.650  0.00  0.00    -0.399 N 
ATOM     20  H9  <0> d           1.180   6.855   2.655  0.00  0.00     0.156 HD
ATOM     21  H10 <0> d           1.895   5.408   3.123  0.00  0.00     0.156 HD
ENDBRANCH   5  19
TORSDOF 4
