REMARK  4 active torsions:
REMARK  status: ('A' for Active; 'I' for Inactive)
REMARK    1  A    between atoms: C1_1  and  C2_2 
REMARK    2  A    between atoms: C2_2  and  N1_3 
REMARK    3  A    between atoms: C3_4  and  N3_9 
REMARK    4  A    between atoms: C4_5  and  C6_8 
ROOT
ATOM      1  N1  <0> d          -0.017   1.396   0.010  0.00  0.00    -0.255 N 
ATOM      2  C3  <0> d           1.264   1.830  -0.000  0.00  0.00     0.124 A 
ATOM      3  C4  <0> d           2.069   0.732  -0.014  0.00  0.00     0.002 A 
ATOM      4  C5  <0> d           1.249  -0.400  -0.012  0.00  0.00     0.031 A 
ATOM      5  N2  <0> d           0.002  -0.004   0.002  0.00  0.00    -0.183 NA
ATOM      6  H6  <0> d           1.587  -1.426  -0.021  0.00  0.00     0.118 H 
ENDROOT
BRANCH   1   7
ATOM      7  C2  <0> d          -1.213   2.242   0.020  0.00  0.00     0.015 C 
ATOM      8  H4  <0> d          -0.999   3.181  -0.490  0.00  0.00     0.066 H 
ATOM      9  H5  <0> d          -2.026   1.728  -0.492  0.00  0.00     0.066 H 
BRANCH   7  10
ATOM     10  C1  <0> d          -1.622   2.529   1.466  0.00  0.00    -0.059 C 
ATOM     11  H1  <0> d          -1.836   1.590   1.977  0.00  0.00     0.029 H 
ATOM     12  H2  <0> d          -0.809   3.044   1.979  0.00  0.00     0.029 H 
ATOM     13  H3  <0> d          -2.512   3.159   1.474  0.00  0.00     0.029 H 
ENDBRANCH   7  10
ENDBRANCH   1   7
BRANCH   2  14
ATOM     14  N3  <0> d           1.683   3.157   0.003  0.00  0.00    -0.384 N 
ATOM     15  H10 <0> d           1.028   3.873   0.012  0.00  0.00     0.157 HD
ATOM     16  H11 <0> d           2.631   3.367  -0.005  0.00  0.00     0.157 HD
ENDBRANCH   2  14
BRANCH   3  17
ATOM     17  C6  <0> d           3.576   0.736  -0.028  0.00  0.00    -0.046 C 
ATOM     18  H7  <0> d           3.930   0.743  -1.059  0.00  0.00     0.033 H 
ATOM     19  H8  <0> d           3.942   1.624   0.487  0.00  0.00     0.033 H 
ATOM     20  H9  <0> d           3.947  -0.156   0.477  0.00  0.00     0.033 H 
ENDBRANCH   3  17
TORSDOF 4
