REMARK  0 active torsions:
REMARK  status: ('A' for Active; 'I' for Inactive)
ROOT
ATOM      1  C1  <0> d           2.120   0.681  -0.015  0.00  0.00     0.018 A 
ATOM      2  C2  <0> d           1.337  -0.423  -0.013  0.00  0.00     0.070 A 
ATOM      3  C3  <0> d           0.002  -0.004   0.002  0.00  0.00     0.044 A 
ATOM      4  N1  <0> d          -0.016   1.304   0.009  0.00  0.00    -0.186 NA
ATOM      5  N2  <0> d           1.309   1.760  -0.001  0.00  0.00    -0.288 N 
ATOM      6  H1  <0> d           1.602   2.717   0.001  0.00  0.00     0.188 HD
ATOM      7 Cl1  <0> d           1.891  -2.068  -0.027  0.00  0.00    -0.081 Cl
ATOM      8  H2  <0> d           3.200   0.696  -0.025  0.00  0.00     0.116 H 
ATOM      9  H3  <0> d          -0.864  -0.649   0.006  0.00  0.00     0.120 H 
ENDROOT
TORSDOF 0
