REMARK  8 active torsions:
REMARK  status: ('A' for Active; 'I' for Inactive)
REMARK    1  A    between atoms: C1_1  and  C2_2 
REMARK    2  A    between atoms: C2_2  and  C3_3 
REMARK    3  A    between atoms: C2_2  and  C4_4 
REMARK    4  A    between atoms: C2_2  and  C5_5 
REMARK    5  A    between atoms: C5_5  and  C6_6 
REMARK    6  A    between atoms: C6_6  and  C7_7 
REMARK    7  A    between atoms: C6_6  and  C8_8 
REMARK    8  A    between atoms: C6_6  and  O2_10 
ROOT
ATOM      1  C2  <0> d           0.016  -0.936   2.408  0.00  0.00    -0.048 C 
ENDROOT
BRANCH   1   2
ATOM      2  C1  <0> d          -1.373  -1.497   2.094  0.00  0.00    -0.070 C 
ATOM      3  H1  <0> d          -1.273  -2.493   1.663  0.00  0.00     0.028 H 
ATOM      4  H2  <0> d          -1.957  -1.555   3.013  0.00  0.00     0.028 H 
ATOM      5  H3  <0> d          -1.877  -0.842   1.384  0.00  0.00     0.028 H 
ENDBRANCH   1   2
BRANCH   1   6
ATOM      6  C3  <0> d           0.845  -2.002   3.128  0.00  0.00    -0.070 C 
ATOM      7  H4  <0> d           1.835  -1.603   3.352  0.00  0.00     0.028 H 
ATOM      8  H5  <0> d           0.348  -2.283   4.057  0.00  0.00     0.028 H 
ATOM      9  H6  <0> d           0.944  -2.879   2.489  0.00  0.00     0.028 H 
ENDBRANCH   1   6
BRANCH   1  10
ATOM     10  C4  <0> d          -0.122   0.295   3.305  0.00  0.00    -0.070 C 
ATOM     11  H7  <0> d          -0.887   0.956   2.900  0.00  0.00     0.028 H 
ATOM     12  H8  <0> d          -0.407  -0.017   4.310  0.00  0.00     0.028 H 
ATOM     13  H9  <0> d           0.831   0.824   3.346  0.00  0.00     0.028 H 
ENDBRANCH   1  10
BRANCH   1  14
ATOM     14  C5  <0> d           0.714  -0.542   1.105  0.00  0.00    -0.021 C 
ATOM     15  H10 <0> d           0.511  -1.294   0.342  0.00  0.00     0.039 H 
ATOM     16  H11 <0> d           1.788  -0.476   1.273  0.00  0.00     0.039 H 
BRANCH  14  17
ATOM     17  C6  <0> d           0.186   0.815   0.634  0.00  0.00     0.142 C 
BRANCH  17  18
ATOM     18  C7  <0> d          -1.334   0.745   0.477  0.00  0.00    -0.038 C 
ATOM     19  H12 <0> d          -1.689   1.646  -0.022  0.00  0.00     0.032 H 
ATOM     20  H13 <0> d          -1.598  -0.129  -0.118  0.00  0.00     0.032 H 
ATOM     21  H14 <0> d          -1.798   0.668   1.461  0.00  0.00     0.032 H 
ENDBRANCH  17  18
BRANCH  17  22
ATOM     22  C8  <0> d           0.813   1.166  -0.691  0.00  0.00     0.208 C 
ATOM     23  O1  <0> d           1.218   0.290  -1.418  0.00  0.00    -0.646 OA
ATOM     24  O3  <0> d           0.921   2.451  -1.063  0.00  0.00    -0.646 OA
ENDBRANCH  17  22
BRANCH  17  25
ATOM     25  O2  <0> d           0.520   1.815   1.599  0.00  0.00    -0.379 OA
ATOM     26  H15 <0> d           1.470   1.915   1.750  0.00  0.00     0.211 HD
ENDBRANCH  17  25
ENDBRANCH  14  17
ENDBRANCH   1  14
TORSDOF 8
