REMARK  2 active torsions:
REMARK  status: ('A' for Active; 'I' for Inactive)
REMARK    1  A    between atoms: C1_1  and  C2_2 
REMARK    2  A    between atoms: C6_6  and  C8_8 
ROOT
ATOM      1  C2  <0> d          -1.236   3.134   0.031  0.00  0.00    -0.061 A 
ATOM      2  C3  <0> d          -1.215   1.751   0.017  0.00  0.00    -0.076 A 
ATOM      3  C4  <0> d          -0.013   1.076   0.008  0.00  0.00    -0.062 A 
ATOM      4  C5  <0> d           1.186   1.792   0.000  0.00  0.00     0.050 A 
ATOM      5  C6  <0> d           1.158   3.188   0.008  0.00  0.00    -0.041 A 
ATOM      6  C7  <0> d          -0.052   3.850   0.023  0.00  0.00    -0.070 A 
ATOM      7  C9  <0> d           2.439   1.098  -0.016  0.00  0.00     0.100 C 
ATOM      8  N1  <0> d           3.432   0.547  -0.029  0.00  0.00    -0.191 NA
ATOM      9  H4  <0> d          -2.143   1.198   0.019  0.00  0.00     0.084 H 
ATOM     10  H5  <0> d           0.002  -0.004   0.002  0.00  0.00     0.085 H 
ATOM     11  H6  <0> d          -0.075   4.930   0.029  0.00  0.00     0.085 H 
ENDROOT
BRANCH   5  12
ATOM     12  C8  <0> d           2.447   3.969   0.001  0.00  0.00    -0.050 C 
ATOM     13  H7  <0> d           2.748   4.163  -1.029  0.00  0.00     0.033 H 
ATOM     14  H8  <0> d           2.301   4.916   0.521  0.00  0.00     0.033 H 
ATOM     15  H9  <0> d           3.224   3.394   0.504  0.00  0.00     0.033 H 
ENDBRANCH   5  12
BRANCH   1  16
ATOM     16  C1  <0> d          -2.554   3.865   0.047  0.00  0.00    -0.051 C 
ATOM     17  H1  <0> d          -2.881   4.046  -0.977  0.00  0.00     0.033 H 
ATOM     18  H2  <0> d          -3.298   3.260   0.565  0.00  0.00     0.033 H 
ATOM     19  H3  <0> d          -2.436   4.817   0.564  0.00  0.00     0.033 H 
ENDBRANCH   1  16
TORSDOF 2
