REMARK  5 active torsions:
REMARK  status: ('A' for Active; 'I' for Inactive)
REMARK    1  A    between atoms: C1_1  and  C2_2 
REMARK    2  A    between atoms: C2_2  and  C3_4 
REMARK    3  A    between atoms: C2_2  and  O2_12 
REMARK    4  A    between atoms: C3_4  and  C4_5 
REMARK    5  A    between atoms: C4_5  and  N1_6 
ROOT
ATOM      1  C4  <0> d          -1.416  -2.058  -0.121  0.00  0.00    -0.000 C 
ATOM      2  H7  <0> d          -0.933  -2.334  -1.059  0.00  0.00     0.064 H 
ATOM      3  H8  <0> d          -0.863  -2.489   0.713  0.00  0.00     0.064 H 
ENDROOT
BRANCH   1   4
ATOM      4  C3  <0> d          -1.433  -0.534   0.013  0.00  0.00    -0.026 C 
ATOM      5  H5  <0> d          -1.916  -0.257   0.950  0.00  0.00     0.039 H 
ATOM      6  H6  <0> d          -1.986  -0.102  -0.821  0.00  0.00     0.039 H 
BRANCH   4   7
ATOM      7  C2  <0> d           0.002  -0.004   0.002  0.00  0.00     0.033 C 
ATOM      8  H1  <0> d           0.512  -0.356  -0.895  0.00  0.00     0.082 H 
BRANCH   7   9
ATOM      9  C1  <0> d          -0.019   1.526   0.010  0.00  0.00    -0.052 C 
ATOM     10  H2  <0> d           1.004   1.903   0.003  0.00  0.00     0.030 H 
ATOM     11  H3  <0> d          -0.546   1.887  -0.873  0.00  0.00     0.030 H 
ATOM     12  H4  <0> d          -0.529   1.877   0.907  0.00  0.00     0.030 H 
ENDBRANCH   7   9
BRANCH   7  13
ATOM     13  O2  <0> d           0.693  -0.477   1.160  0.00  0.00    -0.396 OA
ATOM     14  H15 <0> d           1.611  -0.180   1.219  0.00  0.00     0.210 HD
ENDBRANCH   7  13
ENDBRANCH   4   7
ENDBRANCH   1   4
BRANCH   1  15
ATOM     15  N1  <0> d          -2.790  -2.565  -0.111  0.00  0.00    -0.352 N 
ATOM     16  C8  <0> d          -3.546  -2.730  -1.210  0.00  0.00     0.219 C 
ATOM     17  C7  <0> d          -4.909  -3.264  -0.829  0.00  0.00     0.011 C 
ATOM     18  O1  <0> d          -3.186  -2.489  -2.343  0.00  0.00    -0.273 OA
ATOM     19  C6  <0> d          -5.009  -2.993   0.690  0.00  0.00    -0.042 C 
ATOM     20  H13 <0> d          -4.974  -4.334  -1.031  0.00  0.00     0.047 H 
ATOM     21  H14 <0> d          -5.690  -2.726  -1.365  0.00  0.00     0.047 H 
ATOM     22  C5  <0> d          -3.521  -2.951   1.102  0.00  0.00    -0.002 C 
ATOM     23  H11 <0> d          -5.532  -3.805   1.197  0.00  0.00     0.036 H 
ATOM     24  H12 <0> d          -5.495  -2.037   0.884  0.00  0.00     0.036 H 
ATOM     25  H9  <0> d          -3.195  -3.935   1.441  0.00  0.00     0.064 H 
ATOM     26  H10 <0> d          -3.367  -2.211   1.887  0.00  0.00     0.064 H 
ENDBRANCH   1  15
TORSDOF 5
