REMARK  5 active torsions:
REMARK  status: ('A' for Active; 'I' for Inactive)
REMARK    1  A    between atoms: C1_1  and  C2_2 
REMARK    2  A    between atoms: C2_2  and  C3_3 
REMARK    3  A    between atoms: C3_3  and  C4_5 
REMARK    4  A    between atoms: C3_3  and  O2_8 
REMARK       I    between atoms: C4_5  and  N1_7 
REMARK    5  A    between atoms: O2_8  and  C5_9 
ROOT
ATOM      1  C3  <0> d          -0.801   1.423   1.301  0.00  0.00     0.114 C 
ATOM      2  H1  <0> d          -1.745   0.997   0.962  0.00  0.00     0.098 H 
ENDROOT
BRANCH   1   3
ATOM      3  C2  <0> d           0.286   1.152   0.260  0.00  0.00    -0.036 C 
ATOM      4  H5  <0> d           0.465   0.079   0.193  0.00  0.00     0.036 H 
ATOM      5  H6  <0> d           1.206   1.657   0.554  0.00  0.00     0.036 H 
BRANCH   3   6
ATOM      6  C1  <0> d          -0.171   1.678  -1.103  0.00  0.00    -0.074 C 
ATOM      7  H2  <0> d           0.590   1.457  -1.851  0.00  0.00     0.027 H 
ATOM      8  H3  <0> d          -1.107   1.196  -1.383  0.00  0.00     0.027 H 
ATOM      9  H4  <0> d          -0.321   2.756  -1.044  0.00  0.00     0.027 H 
ENDBRANCH   3   6
ENDBRANCH   1   3
BRANCH   1  10
ATOM     10  C4  <0> d          -0.409   0.793   2.613  0.00  0.00     0.244 C 
ATOM     11  O1  <0> d          -0.183   1.493   3.578  0.00  0.00    -0.271 OA
ATOM     12  N1  <0> d          -0.308  -0.547   2.714  0.00  0.00    -0.368 N 
ATOM     13  H7  <0> d          -0.489  -1.106   1.942  0.00  0.00     0.159 HD
ATOM     14  H8  <0> d          -0.056  -0.952   3.558  0.00  0.00     0.159 HD
ENDBRANCH   1  10
BRANCH   1  15
ATOM     15  O2  <0> d          -0.952   2.833   1.476  0.00  0.00    -0.381 OA
BRANCH  15  16
ATOM     16  C5  <0> d          -2.186   3.353   0.977  0.00  0.00     0.005 C 
ATOM     17  H9  <0> d          -3.018   2.820   1.438  0.00  0.00     0.066 H 
ATOM     18  H10 <0> d          -2.257   4.414   1.216  0.00  0.00     0.066 H 
ATOM     19  H11 <0> d          -2.225   3.221  -0.104  0.00  0.00     0.066 H 
ENDBRANCH  15  16
ENDBRANCH   1  15
TORSDOF 5
