REMARK  1 active torsions:
REMARK  status: ('A' for Active; 'I' for Inactive)
REMARK    1  A    between atoms: C3_4  and  C4_6 
ROOT
ATOM      1  C1  <0> d          -2.759   3.680   0.035  0.00  0.00     0.010 A 
ATOM      2  C2  <0> d          -3.800   2.798   0.035  0.00  0.00    -0.026 A 
ATOM      3  S1  <0> d          -2.961   1.276   0.023  0.00  0.00    -0.074 SA
ATOM      4  C3  <0> d          -1.298   1.929   0.019  0.00  0.00     0.173 A 
ATOM      5  N1  <0> d          -1.531   3.237   0.033  0.00  0.00    -0.246 NA
ATOM      6  H1  <0> d          -2.951   4.743   0.042  0.00  0.00     0.115 H 
ATOM      7  H2  <0> d          -4.862   2.993   0.042  0.00  0.00     0.097 H 
ENDROOT
BRANCH   4   8
ATOM      8  C4  <0> d          -0.014   1.211   0.009  0.00  0.00     0.236 C 
ATOM      9  O1  <0> d           0.002  -0.004   0.002  0.00  0.00    -0.642 OA
ATOM     10  O2  <0> d           1.144   1.901   0.001  0.00  0.00    -0.642 OA
ENDBRANCH   4   8
TORSDOF 1
