REMARK  1 active torsions:
REMARK  status: ('A' for Active; 'I' for Inactive)
REMARK    1  A    between atoms: C1_1  and  C2_2 
ROOT
ATOM      1  C2  <0> d           0.002  -0.004   0.002  0.00  0.00     0.060 A 
ATOM      2  C3  <0> d           0.006  -0.694  -1.226  0.00  0.00     0.098 A 
ATOM      3  C4  <0> d           0.026  -2.108  -1.139  0.00  0.00     0.038 A 
ATOM      4  C5  <0> d           0.041  -2.744   0.080  0.00  0.00    -0.047 A 
ATOM      5  C6  <0> d           0.035  -1.979   1.219  0.00  0.00     0.004 A 
ATOM      6  N1  <0> d           0.022  -0.659   1.139  0.00  0.00    -0.263 NA
ATOM      7  S1  <0> d           0.024  -2.582  -2.845  0.00  0.00    -0.080 SA
ATOM      8  C7  <0> d          -0.001  -1.040  -3.519  0.00  0.00     0.041 A 
ATOM      9  N2  <0> d          -0.007  -0.238  -2.494  0.00  0.00    -0.251 NA
ATOM     10  H4  <0> d           0.056  -3.823   0.139  0.00  0.00     0.087 H 
ATOM     11  H5  <0> d           0.047  -2.458   2.187  0.00  0.00     0.114 H 
ATOM     12  H6  <0> d          -0.009  -0.775  -4.566  0.00  0.00     0.126 H 
ENDROOT
BRANCH   1  13
ATOM     13  C1  <0> d          -0.018   1.503   0.010  0.00  0.00    -0.033 C 
ATOM     14  H1  <0> d           1.004   1.880   0.003  0.00  0.00     0.035 H 
ATOM     15  H2  <0> d          -0.545   1.864  -0.873  0.00  0.00     0.035 H 
ATOM     16  H3  <0> d          -0.529   1.854   0.907  0.00  0.00     0.035 H 
ENDBRANCH   1  13
TORSDOF 1
