REMARK  7 active torsions:
REMARK  status: ('A' for Active; 'I' for Inactive)
REMARK    1  A    between atoms: C1_1  and  C2_2 
REMARK    2  A    between atoms: C2_2  and  O1_3 
REMARK    3  A    between atoms: O1_3  and  C3_4 
REMARK    4  A    between atoms: C3_4  and  C4_6 
REMARK    5  A    between atoms: C3_4  and  O2_7 
REMARK    6  A    between atoms: O2_7  and  C5_8 
REMARK    7  A    between atoms: C6_9  and  C7_10 
ROOT
ATOM      1  C7  <0> d          -3.709  -2.611  -0.103  0.00  0.00    -0.088 C 
ATOM      2  C8  <0> d          -4.598  -2.457   0.648  0.00  0.00    -0.150 C 
ATOM      3  H12 <0> d          -5.393  -2.320   1.320  0.00  0.00     0.166 H 
ENDROOT
BRANCH   1   4
ATOM      4  C6  <0> d          -2.625  -2.799  -1.020  0.00  0.00    -0.013 C 
ATOM      5  C5  <0> d          -1.410  -2.326  -0.724  0.00  0.00     0.023 C 
ATOM      6  H10 <0> d          -1.246  -1.802   0.206  0.00  0.00     0.123 H 
ATOM      7  H11 <0> d          -2.789  -3.323  -1.950  0.00  0.00     0.100 H 
BRANCH   5   8
ATOM      8  O2  <0> d          -0.385  -2.504  -1.591  0.00  0.00    -0.332 OA
BRANCH   8   9
ATOM      9  C3  <0> d           0.850  -1.856  -1.277  0.00  0.00     0.132 C 
ATOM     10  H1  <0> d           1.050  -1.952  -0.209  0.00  0.00     0.128 H 
BRANCH   9  11
ATOM     11  O1  <0> d           0.763  -0.472  -1.622  0.00  0.00    -0.362 OA
BRANCH  11  12
ATOM     12  C2  <0> d          -0.044   0.300  -0.731  0.00  0.00     0.019 C 
ATOM     13  H5  <0> d           0.312   0.165   0.290  0.00  0.00     0.073 H 
ATOM     14  H6  <0> d          -1.081  -0.031  -0.801  0.00  0.00     0.073 H 
BRANCH  12  15
ATOM     15  C1  <0> d           0.047   1.779  -1.112  0.00  0.00    -0.056 C 
ATOM     16  H2  <0> d           1.083   2.109  -1.042  0.00  0.00     0.030 H 
ATOM     17  H3  <0> d          -0.309   1.913  -2.134  0.00  0.00     0.030 H 
ATOM     18  H4  <0> d          -0.569   2.368  -0.433  0.00  0.00     0.030 H 
ENDBRANCH  12  15
ENDBRANCH  11  12
ENDBRANCH   9  11
BRANCH   9  19
ATOM     19  C4  <0> d           1.984  -2.510  -2.068  0.00  0.00    -0.031 C 
ATOM     20  H7  <0> d           2.926  -2.016  -1.829  0.00  0.00     0.034 H 
ATOM     21  H8  <0> d           2.051  -3.565  -1.805  0.00  0.00     0.034 H 
ATOM     22  H9  <0> d           1.785  -2.413  -3.136  0.00  0.00     0.034 H 
ENDBRANCH   9  19
ENDBRANCH   8   9
ENDBRANCH   5   8
ENDBRANCH   1   4
TORSDOF 7
