REMARK  4 active torsions:
REMARK  status: ('A' for Active; 'I' for Inactive)
REMARK    1  A    between atoms: C1_1  and  O1_2 
REMARK    2  A    between atoms: O1_2  and  C2_3 
REMARK    3  A    between atoms: C2_3  and  C3_4 
REMARK    4  A    between atoms: C3_4  and  C4_5 
REMARK       I    between atoms: C4_5  and  N1_7 
ROOT
ATOM      1  C2  <0> d          -2.657   3.621   0.034  0.00  0.00     0.027 C 
ATOM      2  H4  <0> d          -3.170   3.256  -0.855  0.00  0.00     0.075 H 
ATOM      3  H5  <0> d          -3.162   3.246   0.925  0.00  0.00     0.075 H 
ENDROOT
BRANCH   1   4
ATOM      4  O1  <0> d          -2.676   5.050   0.042  0.00  0.00    -0.395 OA
BRANCH   4   5
ATOM      5  C1  <0> d          -3.990   5.613   0.051  0.00  0.00     0.004 C 
ATOM      6  H1  <0> d          -4.530   5.289  -0.838  0.00  0.00     0.066 H 
ATOM      7  H2  <0> d          -4.522   5.279   0.942  0.00  0.00     0.066 H 
ATOM      8  H3  <0> d          -3.918   6.701   0.057  0.00  0.00     0.066 H 
ENDBRANCH   4   5
ENDBRANCH   1   4
BRANCH   1   9
ATOM      9  C3  <0> d          -1.208   3.131   0.025  0.00  0.00     0.029 C 
ATOM     10  H6  <0> d          -0.695   3.496   0.914  0.00  0.00     0.050 H 
ATOM     11  H7  <0> d          -0.703   3.506  -0.866  0.00  0.00     0.050 H 
BRANCH   9  12
ATOM     12  C4  <0> d          -1.187   1.624   0.017  0.00  0.00     0.217 C 
ATOM     13  O2  <0> d          -2.229   1.003   0.018  0.00  0.00    -0.274 OA
ATOM     14  N1  <0> d          -0.011   0.966   0.007  0.00  0.00    -0.370 N 
ATOM     15  H8  <0> d           0.002  -0.004   0.002  0.00  0.00     0.159 HD
ATOM     16  H9  <0> d           0.822   1.462   0.002  0.00  0.00     0.159 HD
ENDBRANCH   9  12
ENDBRANCH   1   9
TORSDOF 4
