REMARK  1 active torsions:
REMARK  status: ('A' for Active; 'I' for Inactive)
REMARK    1  A    between atoms: C1_1  and  C2_2 
ROOT
ATOM      1  C2  <0> d          -0.718   3.285   0.025  0.00  0.00     0.166 A 
ATOM      2  N1  <0> d           0.572   3.343   0.014  0.00  0.00    -0.149 NA
ATOM      3  N2  <0> d           1.062   2.028   0.003  0.00  0.00    -0.220 N 
ATOM      4  H1  <0> d           2.146   1.845  -0.008  0.00  0.00     0.194 HD
ATOM      5  C3  <0> d          -0.014   1.213   0.009  0.00  0.00     0.387 A 
ATOM      6  O1  <0> d           0.002  -0.004   0.002  0.00  0.00    -0.236 OA
ATOM      7  O2  <0> d          -1.107   1.995   0.017  0.00  0.00    -0.244 OA
ENDROOT
BRANCH   1   8
ATOM      8  C1  <0> d          -1.644   4.474   0.039  0.00  0.00    -0.013 C 
ATOM      9  H2  <0> d          -1.051   5.401   0.043  0.00  0.00     0.038 H 
ATOM     10  H3  <0> d          -2.274   4.438   0.940  0.00  0.00     0.038 H 
ATOM     11  H4  <0> d          -2.283   4.452  -0.857  0.00  0.00     0.038 H 
ENDBRANCH   1   8
TORSDOF 1
