REMARK  4 active torsions:
REMARK  status: ('A' for Active; 'I' for Inactive)
REMARK    1  A    between atoms: C1_1  and  C2_2 
REMARK    2  A    between atoms: C2_2  and  C3_3 
REMARK    3  A    between atoms: C2_2  and  C4_4 
REMARK    4  A    between atoms: C2_2  and  N1_5 
ROOT
ATOM      1  C2  <0> d          -0.362   1.321  -2.546  0.00  0.00     0.025 C 
ENDROOT
BRANCH   1   2
ATOM      2  C1  <0> d          -0.365  -0.188  -2.800  0.00  0.00    -0.053 C 
ATOM      3  H1  <0> d          -1.363  -0.585  -2.618  0.00  0.00     0.030 H 
ATOM      4  H2  <0> d          -0.079  -0.383  -3.834  0.00  0.00     0.030 H 
ATOM      5  H3  <0> d           0.346  -0.671  -2.130  0.00  0.00     0.030 H 
ENDBRANCH   1   2
BRANCH   1   6
ATOM      6  C3  <0> d          -1.360   1.998  -3.487  0.00  0.00    -0.053 C 
ATOM      7  H4  <0> d          -1.357   3.073  -3.307  0.00  0.00     0.030 H 
ATOM      8  H5  <0> d          -1.074   1.804  -4.521  0.00  0.00     0.030 H 
ATOM      9  H6  <0> d          -2.358   1.601  -3.305  0.00  0.00     0.030 H 
ENDBRANCH   1   6
BRANCH   1  10
ATOM     10  C4  <0> d           1.040   1.878  -2.802  0.00  0.00    -0.053 C 
ATOM     11  H7  <0> d           1.751   1.395  -2.132  0.00  0.00     0.030 H 
ATOM     12  H8  <0> d           1.325   1.683  -3.836  0.00  0.00     0.030 H 
ATOM     13  H9  <0> d           1.042   2.953  -2.621  0.00  0.00     0.030 H 
ENDBRANCH   1  10
BRANCH   1  14
ATOM     14  N1  <0> d          -0.745   1.583  -1.157  0.00  0.00    -0.337 N 
ATOM     15  C8  <0> d          -1.810   2.307  -0.793  0.00  0.00     0.290 A 
ATOM     16  C7  <0> d          -1.924   2.386   0.691  0.00  0.00     0.218 A 
ATOM     17  O2  <0> d          -2.582   2.832  -1.569  0.00  0.00    -0.264 OA
ATOM     18  C6  <0> d          -0.759   1.595   1.252  0.00  0.00     0.015 A 
ATOM     19  O1  <0> d          -2.775   2.965   1.322  0.00  0.00    -0.287 OA
ATOM     20  C5  <0> d          -0.013   1.086   0.008  0.00  0.00     0.005 A 
ATOM     21  H12 <0> d          -1.055   0.816   1.805  0.00  0.00     0.047 H 
ATOM     22  H13 <0> d          -0.112   2.239   1.847  0.00  0.00     0.047 H 
ATOM     23  H10 <0> d           0.002  -0.004   0.002  0.00  0.00     0.065 H 
ATOM     24  H11 <0> d           1.006   1.472   0.000  0.00  0.00     0.065 H 
ENDBRANCH   1  14
TORSDOF 4
