REMARK  0 active torsions:
REMARK  status: ('A' for Active; 'I' for Inactive)
ROOT
ATOM      1  C1  <0> d          -0.654  -2.301  -0.003  0.00  0.00    -0.060 A 
ATOM      2  C2  <0> d          -0.991  -0.980   0.006  0.00  0.00    -0.050 A 
ATOM      3  C3  <0> d           0.002  -0.004   0.002  0.00  0.00     0.109 A 
ATOM      4  C4  <0> d           1.359  -0.375  -0.013  0.00  0.00     0.110 A 
ATOM      5  C5  <0> d           1.699  -1.731  -0.024  0.00  0.00    -0.031 A 
ATOM      6  C6  <0> d           0.694  -2.690  -0.019  0.00  0.00     0.047 A 
ATOM      7  C7  <0> d           1.034  -4.081  -0.030  0.00  0.00     0.099 C 
ATOM      8  N1  <0> d           1.304  -5.184  -0.039  0.00  0.00    -0.191 NA
ATOM      9  N2  <0> d           2.095   0.762  -0.014  0.00  0.00    -0.155 NA
ATOM     10  N3  <0> d           1.321   1.790  -0.001  0.00  0.00    -0.196 N 
ATOM     11  N4  <0> d          -0.017   1.369   0.010  0.00  0.00    -0.155 NA
ATOM     12  H1  <0> d           1.752   2.802   0.001  0.00  0.00     0.213 HD
ATOM     13  H2  <0> d          -1.429  -3.052   0.000  0.00  0.00     0.086 H 
ATOM     14  H3  <0> d          -2.031  -0.690   0.018  0.00  0.00     0.087 H 
ATOM     15  H4  <0> d           2.737  -2.031  -0.035  0.00  0.00     0.089 H 
ENDROOT
TORSDOF 0
