REMARK  4 active torsions:
REMARK  status: ('A' for Active; 'I' for Inactive)
REMARK    1  A    between atoms: C1_1  and  C2_2 
REMARK    2  A    between atoms: C3_3  and  C4_7 
REMARK    3  A    between atoms: C4_7  and  O2_9 
REMARK    4  A    between atoms: O2_9  and  C5_10 
ROOT
ATOM      1  C2  <0> d          -0.016   1.307   0.009  0.00  0.00     0.078 A 
ATOM      2  C3  <0> d           1.253   1.877   0.000  0.00  0.00     0.126 A 
ATOM      3  S1  <0> d           2.257   0.402  -0.017  0.00  0.00     0.043 SA
ATOM      4  N1  <0> d           1.097  -0.672  -0.012  0.00  0.00    -0.110 NA
ATOM      5  N2  <0> d           0.002  -0.004   0.002  0.00  0.00    -0.146 NA
ENDROOT
BRANCH   2   6
ATOM      6  C4  <0> d           1.654   3.292   0.004  0.00  0.00     0.303 C 
ATOM      7  O1  <0> d           0.806   4.163   0.017  0.00  0.00    -0.259 OA
BRANCH   6   8
ATOM      8  O2  <0> d           2.961   3.622  -0.007  0.00  0.00    -0.322 OA
BRANCH   8   9
ATOM      9  C5  <0> d           3.282   5.038  -0.002  0.00  0.00     0.013 C 
ATOM     10  H4  <0> d           2.853   5.511  -0.886  0.00  0.00     0.067 H 
ATOM     11  H5  <0> d           2.870   5.502   0.894  0.00  0.00     0.067 H 
ATOM     12  H6  <0> d           4.365   5.165  -0.012  0.00  0.00     0.067 H 
ENDBRANCH   8   9
ENDBRANCH   6   8
ENDBRANCH   2   6
BRANCH   1  13
ATOM     13  C1  <0> d          -1.286   2.117   0.020  0.00  0.00    -0.032 C 
ATOM     14  H1  <0> d          -1.587   2.308   1.050  0.00  0.00     0.035 H 
ATOM     15  H2  <0> d          -1.117   3.066  -0.490  0.00  0.00     0.035 H 
ATOM     16  H3  <0> d          -2.074   1.565  -0.493  0.00  0.00     0.035 H 
ENDBRANCH   1  13
TORSDOF 4
