REMARK  2 active torsions:
REMARK  status: ('A' for Active; 'I' for Inactive)
REMARK    1  A    between atoms: C6_8  and  C8_13 
REMARK    2  A    between atoms: C7_10  and  O1_12 
REMARK       I    between atoms: C8_13  and  N1_15 
ROOT
ATOM      1  C1  <0> d           0.852   3.392   0.131  0.00  0.00    -0.060 C 
ATOM      2  C2  <0> d           0.060   3.619   1.438  0.00  0.00    -0.059 C 
ATOM      3  C3  <0> d           0.106   2.244   2.172  0.00  0.00    -0.028 C 
ATOM      4  H1  <0> d          -0.093   2.269   3.244  0.00  0.00     0.043 H 
ATOM      5  C4  <0> d           1.527   1.734   1.742  0.00  0.00    -0.055 C 
ATOM      6  C5  <0> d           1.303   1.901   0.198  0.00  0.00    -0.040 C 
ATOM      7  H2  <0> d           2.133   1.624  -0.453  0.00  0.00     0.041 H 
ATOM      8  C6  <0> d          -0.013   1.086   0.008  0.00  0.00     0.052 C 
ATOM      9  H3  <0> d           0.211   0.027  -0.121  0.00  0.00     0.059 H 
ATOM     10  C7  <0> d          -0.805   1.313   1.315  0.00  0.00     0.051 C 
ATOM     11  H4  <0> d          -0.971   0.366   1.829  0.00  0.00     0.084 H 
ATOM     12  H5  <0> d           1.720   4.050   0.093  0.00  0.00     0.033 H 
ATOM     13  H6  <0> d           0.213   3.557  -0.737  0.00  0.00     0.033 H 
ATOM     14  H7  <0> d           0.538   4.389   2.043  0.00  0.00     0.033 H 
ATOM     15  H8  <0> d          -0.970   3.898   1.215  0.00  0.00     0.033 H 
ATOM     16  H9  <0> d           1.690   0.693   2.022  0.00  0.00     0.034 H 
ATOM     17  H10 <0> d           2.323   2.381   2.112  0.00  0.00     0.034 H 
ENDROOT
BRANCH   8  18
ATOM     18  C8  <0> d          -0.787   1.606  -1.176  0.00  0.00     0.222 C 
ATOM     19  O2  <0> d          -1.486   2.590  -1.058  0.00  0.00    -0.273 OA
ATOM     20  N1  <0> d          -0.702   0.978  -2.365  0.00  0.00    -0.370 N 
ATOM     21  H12 <0> d          -0.143   0.191  -2.459  0.00  0.00     0.159 HD
ATOM     22  H13 <0> d          -1.200   1.313  -3.127  0.00  0.00     0.159 HD
ENDBRANCH   8  18
BRANCH  10  23
ATOM     23  O1  <0> d          -2.051   1.955   1.037  0.00  0.00    -0.394 OA
ATOM     24  H11 <0> d          -2.639   1.443   0.465  0.00  0.00     0.210 HD
ENDBRANCH  10  23
TORSDOF 2
