REMARK  2 active torsions:
REMARK  status: ('A' for Active; 'I' for Inactive)
REMARK    1  A    between atoms: C1_1  and  N1_2 
REMARK    2  A    between atoms: N1_2  and  C2_3 
ROOT
ATOM      1  C2  <0> d           2.276   1.425  -0.012  0.00  0.00     0.162 A 
ATOM      2  C3  <0> d           2.296   0.019  -0.020  0.00  0.00     0.182 A 
ATOM      3  N2  <0> d           1.149  -0.655  -0.012  0.00  0.00    -0.245 NA
ATOM      4  C4  <0> d           0.002  -0.004   0.002  0.00  0.00     0.021 A 
ATOM      5  C5  <0> d          -0.017   1.382   0.010  0.00  0.00     0.021 A 
ATOM      6  N3  <0> d           1.114   2.065   0.003  0.00  0.00    -0.239 NA
ATOM      7  C6  <0> d           3.543  -0.684  -0.035  0.00  0.00     0.123 C 
ATOM      8  N4  <0> d           4.533  -1.241  -0.047  0.00  0.00    -0.190 NA
ATOM      9  H5  <0> d          -0.927  -0.554   0.008  0.00  0.00     0.117 H 
ATOM     10  H6  <0> d          -0.961   1.906   0.017  0.00  0.00     0.117 H 
ENDROOT
BRANCH   1  11
ATOM     11  N1  <0> d           3.463   2.136  -0.019  0.00  0.00    -0.377 N 
ATOM     12  H4  <0> d           4.311   1.666  -0.029  0.00  0.00     0.160 HD
BRANCH  11  13
ATOM     13  C1  <0> d           3.439   3.601  -0.011  0.00  0.00    -0.019 C 
ATOM     14  H1  <0> d           2.911   3.961  -0.894  0.00  0.00     0.056 H 
ATOM     15  H2  <0> d           2.927   3.951   0.886  0.00  0.00     0.056 H 
ATOM     16  H3  <0> d           4.460   3.982  -0.018  0.00  0.00     0.056 H 
ENDBRANCH  11  13
ENDBRANCH   1  11
TORSDOF 2
