REMARK  1 active torsions:
REMARK  status: ('A' for Active; 'I' for Inactive)
REMARK    1  A    between atoms: C1_1  and  C2_2 
ROOT
ATOM      1  C2  <0> d          -0.729   1.579   1.267  0.00  0.00    -0.009 C 
ATOM      2  C3  <0> d          -0.021   1.125   2.557  0.00  0.00    -0.056 C 
ATOM      3  C4  <0> d          -0.244   2.291   3.551  0.00  0.00    -0.062 C 
ATOM      4  C5  <0> d          -0.121   3.541   2.645  0.00  0.00    -0.040 C 
ATOM      5  C6  <0> d          -0.815   3.125   1.331  0.00  0.00     0.055 C 
ATOM      6  H1  <0> d          -0.334   3.589   0.470  0.00  0.00     0.085 H 
ATOM      7  O1  <0> d          -2.233   3.449   1.407  0.00  0.00    -0.315 OA
ATOM      8  C7  <0> d          -2.962   2.415   0.953  0.00  0.00     0.260 C 
ATOM      9  O2  <0> d          -4.019   2.483   0.370  0.00  0.00    -0.265 OA
ATOM     10  C8  <0> d          -2.206   1.132   1.316  0.00  0.00     0.025 C 
ATOM     11  H5  <0> d          -0.473   0.209   2.937  0.00  0.00     0.034 H 
ATOM     12  H6  <0> d           1.044   0.976   2.376  0.00  0.00     0.034 H 
ATOM     13  H7  <0> d          -1.237   2.233   3.998  0.00  0.00     0.033 H 
ATOM     14  H8  <0> d           0.527   2.295   4.322  0.00  0.00     0.033 H 
ATOM     15  H9  <0> d          -0.635   4.390   3.095  0.00  0.00     0.036 H 
ATOM     16  H10 <0> d           0.927   3.779   2.464  0.00  0.00     0.036 H 
ATOM     17  H11 <0> d          -2.393   0.347   0.583  0.00  0.00     0.049 H 
ATOM     18  H12 <0> d          -2.471   0.794   2.318  0.00  0.00     0.049 H 
ENDROOT
BRANCH   1  19
ATOM     19  C1  <0> d          -0.013   1.086   0.008  0.00  0.00    -0.066 C 
ATOM     20  H2  <0> d           0.002  -0.004   0.002  0.00  0.00     0.028 H 
ATOM     21  H3  <0> d           1.010   1.463   0.000  0.00  0.00     0.028 H 
ATOM     22  H4  <0> d          -0.540   1.447  -0.875  0.00  0.00     0.028 H 
ENDBRANCH   1  19
TORSDOF 1
