REMARK  2 active torsions:
REMARK  status: ('A' for Active; 'I' for Inactive)
REMARK    1  A    between atoms: C2_2  and  C3_3 
REMARK    2  A    between atoms: C3_3  and  C4_5 
ROOT
ATOM      1  C1  <0> d          -2.237  -1.338   0.016  0.00  0.00    -0.146 C 
ATOM      2  C2  <0> d          -1.228  -0.737   0.010  0.00  0.00    -0.035 C 
ATOM      3  H1  <0> d          -3.139  -1.875   0.022  0.00  0.00     0.167 H 
ENDROOT
BRANCH   2   4
ATOM      4  C3  <0> d           0.002  -0.004   0.002  0.00  0.00     0.234 C 
ATOM      5  O1  <0> d           1.063  -0.598  -0.011  0.00  0.00    -0.278 OA
BRANCH   4   6
ATOM      6  C4  <0> d          -0.018   1.474   0.010  0.00  0.00     0.023 A 
ATOM      7  C9  <0> d           1.180   2.192   0.003  0.00  0.00    -0.069 A 
ATOM      8  C8  <0> d           1.154   3.571   0.010  0.00  0.00    -0.082 A 
ATOM      9  H6  <0> d           2.124   1.668  -0.010  0.00  0.00     0.085 H 
ATOM     10  C7  <0> d          -0.056   4.243   0.026  0.00  0.00    -0.083 A 
ATOM     11  H5  <0> d           2.080   4.127   0.004  0.00  0.00     0.083 H 
ATOM     12  C6  <0> d          -1.246   3.538   0.033  0.00  0.00    -0.082 A 
ATOM     13  H4  <0> d          -0.070   5.323   0.032  0.00  0.00     0.083 H 
ATOM     14  C5  <0> d          -1.235   2.159   0.020  0.00  0.00    -0.069 A 
ATOM     15  H3  <0> d          -2.187   4.069   0.045  0.00  0.00     0.083 H 
ATOM     16  H2  <0> d          -2.165   1.610   0.021  0.00  0.00     0.085 H 
ENDBRANCH   4   6
ENDBRANCH   2   4
TORSDOF 2
