REMARK  3 active torsions:
REMARK  status: ('A' for Active; 'I' for Inactive)
REMARK    1  A    between atoms: C1_1  and  C2_2 
REMARK    2  A    between atoms: C2_2  and  C3_3 
REMARK    3  A    between atoms: C2_2  and  C4_4 
ROOT
ATOM      1  C4  <0> d           0.002  -0.004   0.002  0.00  0.00     0.134 C 
ATOM      2  O1  <0> d          -0.017   1.416   0.010  0.00  0.00    -0.357 OA
ATOM      3  C5  <0> d           1.270   2.039   0.001  0.00  0.00     0.037 C 
ATOM      4  C6  <0> d           1.739   2.158  -1.433  0.00  0.00    -0.082 C 
ATOM      5  C7  <0> d           2.046   1.077  -2.097  0.00  0.00    -0.082 C 
ATOM      6  C8  <0> d           1.924  -0.270  -1.418  0.00  0.00     0.037 C 
ATOM      7  O2  <0> d           0.538  -0.546  -1.196  0.00  0.00    -0.357 OA
ATOM      8  H8  <0> d           0.602  -0.351   0.843  0.00  0.00     0.129 H 
ATOM      9  H9  <0> d           1.200   3.031   0.447  0.00  0.00     0.080 H 
ATOM     10  H10 <0> d           1.975   1.430   0.567  0.00  0.00     0.080 H 
ATOM     11  H11 <0> d           1.820   3.128  -1.901  0.00  0.00     0.079 H 
ATOM     12  H12 <0> d           2.382   1.143  -3.121  0.00  0.00     0.079 H 
ATOM     13  H13 <0> d           2.450  -0.247  -0.464  0.00  0.00     0.080 H 
ATOM     14  H14 <0> d           2.354  -1.043  -2.054  0.00  0.00     0.080 H 
ENDROOT
BRANCH   1  15
ATOM     15  C2  <0> d          -1.429  -0.517   0.177  0.00  0.00    -0.013 C 
ATOM     16  H4  <0> d          -2.048  -0.151  -0.642  0.00  0.00     0.046 H 
BRANCH  15  17
ATOM     17  C1  <0> d          -1.427  -2.047   0.171  0.00  0.00    -0.069 C 
ATOM     18  H1  <0> d          -2.446  -2.412   0.295  0.00  0.00     0.028 H 
ATOM     19  H2  <0> d          -1.025  -2.406  -0.777  0.00  0.00     0.028 H 
ATOM     20  H3  <0> d          -0.807  -2.413   0.990  0.00  0.00     0.028 H 
ENDBRANCH  15  17
BRANCH  15  21
ATOM     21  C3  <0> d          -1.992  -0.013   1.507  0.00  0.00    -0.069 C 
ATOM     22  H5  <0> d          -1.994   1.077   1.511  0.00  0.00     0.028 H 
ATOM     23  H6  <0> d          -3.012  -0.378   1.631  0.00  0.00     0.028 H 
ATOM     24  H7  <0> d          -1.373  -0.379   2.326  0.00  0.00     0.028 H 
ENDBRANCH  15  21
ENDBRANCH   1  15
TORSDOF 3
