REMARK  4 active torsions:
REMARK  status: ('A' for Active; 'I' for Inactive)
REMARK    1  A    between atoms: C1_1  and  C2_2 
REMARK    2  A    between atoms: C3_3  and  C6_9 
REMARK    3  A    between atoms: C4_4  and  C5_8 
REMARK    4  A    between atoms: C6_9  and  C7_10 
ROOT
ATOM      1  C7  <0> d          -0.013   1.086   0.008  0.00  0.00     0.018 C 
ATOM      2  C8  <0> d          -0.725   1.573  -1.185  0.00  0.00     0.059 C 
ATOM      3  N3  <0> d          -1.274   1.950  -2.105  0.00  0.00    -0.197 NA
ATOM      4  H10 <0> d           0.002  -0.004   0.002  0.00  0.00     0.055 H 
ATOM      5  H11 <0> d           1.010   1.463   0.000  0.00  0.00     0.055 H 
ENDROOT
BRANCH   1   6
ATOM      6  C6  <0> d          -0.729   1.579   1.267  0.00  0.00    -0.026 C 
ATOM      7  H8  <0> d          -0.744   2.669   1.273  0.00  0.00     0.041 H 
ATOM      8  H9  <0> d          -1.751   1.202   1.275  0.00  0.00     0.041 H 
BRANCH   6   9
ATOM      9  C3  <0> d           0.000   1.080   2.488  0.00  0.00    -0.008 A 
ATOM     10  C2  <0> d           1.005   1.718   3.132  0.00  0.00     0.032 A 
ATOM     11  N2  <0> d           1.385   0.945   4.170  0.00  0.00    -0.282 N 
ATOM     12  N1  <0> d           0.587  -0.207   4.164  0.00  0.00    -0.179 NA
ATOM     13  H1  <0> d           2.108   1.156   4.828  0.00  0.00     0.189 HD
ATOM     14  C4  <0> d          -0.246  -0.122   3.159  0.00  0.00     0.059 A 
BRANCH  10  15
ATOM     15  C1  <0> d           1.594   3.053   2.756  0.00  0.00    -0.035 C 
ATOM     16  H2  <0> d           1.050   3.847   3.268  0.00  0.00     0.035 H 
ATOM     17  H3  <0> d           2.643   3.083   3.051  0.00  0.00     0.035 H 
ATOM     18  H4  <0> d           1.515   3.195   1.678  0.00  0.00     0.035 H 
ENDBRANCH  10  15
BRANCH  14  19
ATOM     19  C5  <0> d          -1.289  -1.145   2.787  0.00  0.00    -0.033 C 
ATOM     20  H5  <0> d          -0.857  -1.868   2.094  0.00  0.00     0.035 H 
ATOM     21  H6  <0> d          -1.629  -1.660   3.684  0.00  0.00     0.035 H 
ATOM     22  H7  <0> d          -2.134  -0.646   2.311  0.00  0.00     0.035 H 
ENDBRANCH  14  19
ENDBRANCH   6   9
ENDBRANCH   1   6
TORSDOF 4
