REMARK  1 active torsions:
REMARK  status: ('A' for Active; 'I' for Inactive)
REMARK    1  A    between atoms: C4_7  and  N6_10 
ROOT
ATOM      1  C1  <0> d          -0.016   1.306   0.009  0.00  0.00     0.126 A 
ATOM      2  N1  <0> d           1.230   1.770  -0.000  0.00  0.00    -0.052 NA
ATOM      3  C2  <0> d           2.083   0.757  -0.014  0.00  0.00     0.769 A 
ATOM      4  N2  <0> d           3.421   0.676  -0.027  0.00  0.00    -0.013 NA
ATOM      5  C3  <0> d           4.013  -0.505  -0.040  0.00  0.00     0.332 A 
ATOM      6  N3  <0> d           3.304  -1.635  -0.039  0.00  0.00    -0.015 NA
ATOM      7  C4  <0> d           1.983  -1.602  -0.026  0.00  0.00     0.740 A 
ATOM      8  N4  <0> d           1.345  -0.396  -0.013  0.00  0.00     0.119 N 
ATOM      9  N5  <0> d           0.002  -0.004   0.002  0.00  0.00    -0.130 NA
ATOM     10  O1  <0> d           5.365  -0.570  -0.054  0.00  0.00    -0.146 OA
ATOM     11  H1  <0> d          -0.907   1.916   0.025  0.00  0.00     0.150 H 
ENDROOT
BRANCH   7  12
ATOM     12  N6  <0> d           1.262  -2.767  -0.025  0.00  0.00    -0.230 N 
ATOM     13  H2  <0> d           1.721  -3.621  -0.034  0.00  0.00     0.174 HD
ATOM     14  H3  <0> d           0.292  -2.737  -0.015  0.00  0.00     0.174 HD
ENDBRANCH   7  12
TORSDOF 1
