REMARK  0 active torsions:
REMARK  status: ('A' for Active; 'I' for Inactive)
ROOT
ATOM      1  C1  <0> d          -0.017   1.369   0.010  0.00  0.00    -0.018 A 
ATOM      2  C2  <0> d           1.306   1.817  -0.001  0.00  0.00     0.026 A 
ATOM      3  N1  <0> d           2.100   0.780  -0.014  0.00  0.00    -0.175 NA
ATOM      4  N2  <0> d           1.316  -0.382  -0.013  0.00  0.00    -0.183 N 
ATOM      5  C3  <0> d           0.002  -0.004   0.002  0.00  0.00     0.155 A 
ATOM      6  N3  <0> d          -1.029  -0.892   0.007  0.00  0.00    -0.245 NA
ATOM      7  C4  <0> d          -0.862  -2.171  -0.001  0.00  0.00    -0.007 A 
ATOM      8  C5  <0> d           0.553  -2.713  -0.018  0.00  0.00     0.042 A 
ATOM      9  C6  <0> d           1.669  -1.687  -0.023  0.00  0.00     0.251 A 
ATOM     10  O1  <0> d           2.830  -2.023  -0.036  0.00  0.00    -0.271 OA
ATOM     11  H1  <0> d          -0.898   1.992   0.025  0.00  0.00     0.091 H 
ATOM     12  H2  <0> d           1.619   2.850   0.002  0.00  0.00     0.117 H 
ATOM     13  H3  <0> d          -1.710  -2.840   0.004  0.00  0.00     0.108 H 
ATOM     14  H4  <0> d           0.682  -3.348   0.859  0.00  0.00     0.055 H 
ATOM     15  H5  <0> d           0.665  -3.339  -0.903  0.00  0.00     0.055 H 
ENDROOT
TORSDOF 0
