REMARK  3 active torsions:
REMARK  status: ('A' for Active; 'I' for Inactive)
REMARK    1  A    between atoms: C4_5  and  O1_7 
REMARK    2  A    between atoms: O1_7  and  C6_8 
REMARK    3  A    between atoms: C6_8  and  C7_9 
ROOT
ATOM      1  C1  <0> d          -1.220   1.761   0.017  0.00  0.00    -0.077 A 
ATOM      2  C2  <0> d          -0.013   1.076   0.008  0.00  0.00    -0.066 A 
ATOM      3  C3  <0> d           1.169   1.790   0.001  0.00  0.00     0.005 A 
ATOM      4  N1  <0> d           1.162   3.109   0.008  0.00  0.00    -0.237 NA
ATOM      5  C4  <0> d           0.033   3.797   0.022  0.00  0.00     0.164 A 
ATOM      6  C5  <0> d          -1.194   3.144   0.030  0.00  0.00    -0.032 A 
ATOM      7  H1  <0> d          -2.158   1.226   0.018  0.00  0.00     0.083 H 
ATOM      8  H2  <0> d           0.002  -0.004   0.002  0.00  0.00     0.085 H 
ATOM      9  H3  <0> d           2.111   1.261  -0.012  0.00  0.00     0.114 H 
ATOM     10  H4  <0> d          -2.114   3.709   0.042  0.00  0.00     0.090 H 
ENDROOT
BRANCH   5  11
ATOM     11  O1  <0> d           0.072   5.153   0.030  0.00  0.00    -0.324 OA
BRANCH  11  12
ATOM     12  C6  <0> d           1.364   5.765   0.021  0.00  0.00     0.107 C 
ATOM     13  H5  <0> d           1.920   5.451   0.904  0.00  0.00     0.091 H 
ATOM     14  H6  <0> d           1.904   5.461  -0.876  0.00  0.00     0.091 H 
BRANCH  12  15
ATOM     15  C7  <0> d           1.210   7.264   0.031  0.00  0.00     0.198 C 
ATOM     16  O2  <0> d           0.107   7.758   0.044  0.00  0.00    -0.646 OA
ATOM     17  O3  <0> d           2.298   8.050   0.025  0.00  0.00    -0.646 OA
ENDBRANCH  12  15
ENDBRANCH  11  12
ENDBRANCH   5  11
TORSDOF 3
