REMARK  4 active torsions:
REMARK  status: ('A' for Active; 'I' for Inactive)
REMARK    1  A    between atoms: C1_1  and  C2_2 
REMARK    2  A    between atoms: N2_6  and  C5_7 
REMARK    3  A    between atoms: C5_7  and  C6_9 
REMARK    4  A    between atoms: C5_7  and  C7_10 
ROOT
ATOM      1  C2  <0> d           0.002  -0.004   0.002  0.00  0.00     0.029 A 
ATOM      2  C3  <0> d           0.008  -0.796  -1.095  0.00  0.00    -0.041 A 
ATOM      3  C4  <0> d           0.029  -2.127  -0.666  0.00  0.00     0.024 A 
ATOM      4  N1  <0> d           0.034  -2.134   0.643  0.00  0.00    -0.184 NA
ATOM      5  N2  <0> d           0.023  -0.805   1.088  0.00  0.00    -0.260 N 
ATOM      6  H5  <0> d          -0.001  -0.460  -2.122  0.00  0.00     0.088 H 
ATOM      7  H6  <0> d           0.038  -2.998  -1.304  0.00  0.00     0.117 H 
ENDROOT
BRANCH   5   8
ATOM      8  C5  <0> d           0.030  -0.364   2.485  0.00  0.00     0.114 C 
ATOM      9  H1  <0> d           0.015   0.725   2.522  0.00  0.00     0.092 H 
BRANCH   8  10
ATOM     10  C6  <0> d           1.293  -0.881   3.176  0.00  0.00    -0.046 C 
ATOM     11  H7  <0> d           1.308  -1.970   3.139  0.00  0.00     0.031 H 
ATOM     12  H8  <0> d           2.173  -0.488   2.667  0.00  0.00     0.031 H 
ATOM     13  H9  <0> d           1.298  -0.553   4.216  0.00  0.00     0.031 H 
ENDBRANCH   8  10
BRANCH   8  14
ATOM     14  C7  <0> d          -1.187  -0.907   3.189  0.00  0.00     0.198 C 
ATOM     15  O1  <0> d          -1.142  -1.151   4.383  0.00  0.00    -0.646 OA
ATOM     16  O2  <0> d          -2.215  -1.104   2.565  0.00  0.00    -0.646 OA
ENDBRANCH   8  14
ENDBRANCH   5   8
BRANCH   1  17
ATOM     17  C1  <0> d          -0.018   1.503   0.010  0.00  0.00    -0.036 C 
ATOM     18  H2  <0> d           1.004   1.880   0.003  0.00  0.00     0.035 H 
ATOM     19  H3  <0> d          -0.545   1.864  -0.873  0.00  0.00     0.035 H 
ATOM     20  H4  <0> d          -0.529   1.854   0.907  0.00  0.00     0.035 H 
ENDBRANCH   1  17
TORSDOF 4
