REMARK  6 active torsions:
REMARK  status: ('A' for Active; 'I' for Inactive)
REMARK    1  A    between atoms: C1_1  and  C2_2 
REMARK    2  A    between atoms: C2_2  and  C3_3 
REMARK    3  A    between atoms: C2_2  and  C4_4 
REMARK    4  A    between atoms: C2_2  and  C5_5 
REMARK    5  A    between atoms: C5_5  and  C6_6 
REMARK    6  A    between atoms: C6_6  and  C7_7 
ROOT
ATOM      1  C2  <0> d          -3.814   1.677   0.029  0.00  0.00    -0.051 C 
ENDROOT
BRANCH   1   2
ATOM      2  C1  <0> d          -3.913   2.562  -1.215  0.00  0.00    -0.070 C 
ATOM      3  H1  <0> d          -3.851   1.941  -2.108  0.00  0.00     0.028 H 
ATOM      4  H2  <0> d          -4.864   3.094  -1.207  0.00  0.00     0.028 H 
ATOM      5  H3  <0> d          -3.094   3.281  -1.215  0.00  0.00     0.028 H 
ENDBRANCH   1   2
BRANCH   1   6
ATOM      6  C3  <0> d          -4.963   0.667   0.029  0.00  0.00    -0.070 C 
ATOM      7  H4  <0> d          -4.893   0.036   0.915  0.00  0.00     0.028 H 
ATOM      8  H5  <0> d          -5.915   1.199   0.037  0.00  0.00     0.028 H 
ATOM      9  H6  <0> d          -4.901   0.046  -0.865  0.00  0.00     0.028 H 
ENDBRANCH   1   6
BRANCH   1  10
ATOM     10  C4  <0> d          -3.901   2.548   1.284  0.00  0.00    -0.070 C 
ATOM     11  H7  <0> d          -3.082   3.268   1.284  0.00  0.00     0.028 H 
ATOM     12  H8  <0> d          -4.852   3.080   1.291  0.00  0.00     0.028 H 
ATOM     13  H9  <0> d          -3.831   1.918   2.170  0.00  0.00     0.028 H 
ENDBRANCH   1  10
BRANCH   1  14
ATOM     14  C5  <0> d          -2.479   0.930   0.019  0.00  0.00    -0.050 C 
ATOM     15  H10 <0> d          -2.417   0.309  -0.875  0.00  0.00     0.034 H 
ATOM     16  H11 <0> d          -2.408   0.299   0.905  0.00  0.00     0.034 H 
BRANCH  14  17
ATOM     17  C6  <0> d          -1.329   1.940   0.019  0.00  0.00     0.016 C 
ATOM     18  H12 <0> d          -1.391   2.561   0.913  0.00  0.00     0.049 H 
ATOM     19  H13 <0> d          -1.400   2.570  -0.867  0.00  0.00     0.049 H 
BRANCH  17  20
ATOM     20  C7  <0> d          -0.014   1.204   0.009  0.00  0.00     0.172 C 
ATOM     21  O1  <0> d           0.002  -0.004   0.002  0.00  0.00    -0.648 OA
ATOM     22  O2  <0> d           1.139   1.891   0.001  0.00  0.00    -0.648 OA
ENDBRANCH  17  20
ENDBRANCH  14  17
ENDBRANCH   1  14
TORSDOF 6
