REMARK  0 active torsions:
REMARK  status: ('A' for Active; 'I' for Inactive)
ROOT
ATOM      1  C1  <0> d          -1.626  -0.580  -1.878  0.00  0.00    -0.065 C 
ATOM      2  C2  <0> d          -0.433  -0.948  -2.744  0.00  0.00    -0.065 C 
ATOM      3  C3  <0> d           0.762  -0.070  -2.399  0.00  0.00    -0.059 C 
ATOM      4  C4  <0> d           1.180  -0.289  -0.945  0.00  0.00    -0.028 C 
ATOM      5  H1  <0> d           1.565  -1.316  -0.861  0.00  0.00     0.043 H 
ATOM      6  C5  <0> d           2.156   0.859  -0.573  0.00  0.00     0.023 C 
ATOM      7  O1  <0> d           1.371   1.915  -0.001  0.00  0.00    -0.390 OA
ATOM      8  C6  <0> d          -0.019   1.539   0.011  0.00  0.00     0.023 C 
ATOM      9  C7  <0> d           0.002  -0.004   0.002  0.00  0.00    -0.028 C 
ATOM     10  H2  <0> d           0.114  -0.488   0.983  0.00  0.00     0.043 H 
ATOM     11  C8  <0> d          -1.309  -0.599  -0.405  0.00  0.00    -0.059 C 
ATOM     12  H3  <0> d          -2.429  -1.301  -2.090  0.00  0.00     0.033 H 
ATOM     13  H4  <0> d          -1.953   0.429  -2.170  0.00  0.00     0.033 H 
ATOM     14  H5  <0> d          -0.166  -2.001  -2.571  0.00  0.00     0.033 H 
ATOM     15  H6  <0> d          -0.691  -0.804  -3.803  0.00  0.00     0.033 H 
ATOM     16  H7  <0> d           1.605  -0.324  -3.058  0.00  0.00     0.033 H 
ATOM     17  H8  <0> d           0.492   0.987  -2.540  0.00  0.00     0.033 H 
ATOM     18  H9  <0> d           2.897   0.490   0.152  0.00  0.00     0.074 H 
ATOM     19  H10 <0> d           2.674   1.208  -1.479  0.00  0.00     0.074 H 
ATOM     20  H11 <0> d          -0.500   1.939   0.915  0.00  0.00     0.074 H 
ATOM     21  H12 <0> d          -0.517   1.949  -0.881  0.00  0.00     0.074 H 
ATOM     22  H13 <0> d          -2.078  -0.035   0.143  0.00  0.00     0.033 H 
ATOM     23  H14 <0> d          -1.292  -1.639  -0.046  0.00  0.00     0.033 H 
ENDROOT
TORSDOF 0
