REMARK  5 active torsions:
REMARK  status: ('A' for Active; 'I' for Inactive)
REMARK    1  A    between atoms: C4_4  and  C7_7 
REMARK    2  A    between atoms: C7_7  and  C8_8 
REMARK    3  A    between atoms: C8_8  and  C9_9 
REMARK    4  A    between atoms: C9_9  and  C10_10 
REMARK    5  A    between atoms: C10_10  and  O1_11 
ROOT
ATOM      1  C1  <0> d          -2.904   1.556   0.038  0.00  0.00    -0.065 C 
ATOM      2  C2  <0> d          -2.188   1.063  -1.221  0.00  0.00    -0.065 C 
ATOM      3  C3  <0> d          -0.753   1.593  -1.232  0.00  0.00    -0.062 C 
ATOM      4  C4  <0> d          -0.013   1.086   0.008  0.00  0.00    -0.054 C 
ATOM      5  C5  <0> d          -0.729   1.579   1.267  0.00  0.00    -0.062 C 
ATOM      6  C6  <0> d          -2.164   1.050   1.278  0.00  0.00    -0.065 C 
ATOM      7  H1  <0> d          -3.936   1.176   0.046  0.00  0.00     0.033 H 
ATOM      8  H2  <0> d          -2.919   2.656   0.044  0.00  0.00     0.033 H 
ATOM      9  H3  <0> d          -2.173  -0.037  -1.227  0.00  0.00     0.033 H 
ATOM     10  H4  <0> d          -2.720   1.427  -2.112  0.00  0.00     0.033 H 
ATOM     11  H5  <0> d          -0.238   1.238  -2.136  0.00  0.00     0.033 H 
ATOM     12  H6  <0> d          -0.768   2.693  -1.225  0.00  0.00     0.033 H 
ATOM     13  H7  <0> d           0.002  -0.014   0.002  0.00  0.00     0.040 H 
ATOM     14  H8  <0> d          -0.197   1.215   2.158  0.00  0.00     0.033 H 
ATOM     15  H9  <0> d          -0.744   2.679   1.273  0.00  0.00     0.033 H 
ATOM     16  H10 <0> d          -2.679   1.405   2.183  0.00  0.00     0.033 H 
ATOM     17  H11 <0> d          -2.149  -0.050   1.272  0.00  0.00     0.033 H 
ENDROOT
BRANCH   4  18
ATOM     18  C7  <0> d           1.423   1.615  -0.003  0.00  0.00    -0.062 C 
ATOM     19  H12 <0> d           1.909   1.336  -0.949  0.00  0.00     0.033 H 
ATOM     20  H13 <0> d           1.410   2.711   0.094  0.00  0.00     0.033 H 
BRANCH  18  21
ATOM     21  C8  <0> d           2.199   1.009   1.168  0.00  0.00    -0.063 C 
ATOM     22  H14 <0> d           1.712   1.289   2.114  0.00  0.00     0.033 H 
ATOM     23  H15 <0> d           2.212  -0.086   1.072  0.00  0.00     0.033 H 
BRANCH  21  24
ATOM     24  C9  <0> d           3.634   1.539   1.157  0.00  0.00    -0.045 C 
ATOM     25  H16 <0> d           4.121   1.260   0.211  0.00  0.00     0.036 H 
ATOM     26  H17 <0> d           3.622   2.635   1.254  0.00  0.00     0.036 H 
BRANCH  24  27
ATOM     27  C10 <0> d           4.410   0.933   2.328  0.00  0.00     0.017 C 
ATOM     28  H18 <0> d           3.924   1.212   3.275  0.00  0.00     0.073 H 
ATOM     29  H19 <0> d           4.423  -0.163   2.232  0.00  0.00     0.073 H 
BRANCH  27  30
ATOM     30  O1  <0> d           5.751   1.427   2.318  0.00  0.00    -0.401 OA
ATOM     31  H20 <0> d           6.463   1.101   3.090  0.00  0.00     0.209 HD
ENDBRANCH  27  30
ENDBRANCH  24  27
ENDBRANCH  21  24
ENDBRANCH  18  21
ENDBRANCH   4  18
TORSDOF 5
