REMARK  4 active torsions:
REMARK  status: ('A' for Active; 'I' for Inactive)
REMARK    1  A    between atoms: C1_1  and  C2_2 
REMARK    2  A    between atoms: C2_2  and  O2_4 
REMARK    3  A    between atoms: O2_4  and  C3_5 
REMARK    4  A    between atoms: C3_5  and  C4_7 
ROOT
ATOM      1  C3  <0> d          -1.328   1.812   0.018  0.00  0.00     0.146 C 
ATOM      2  H1  <0> d          -1.143   2.886   0.023  0.00  0.00     0.114 H 
ATOM      3  C6  <0> d          -2.100   1.452  -1.182  0.00  0.00     0.096 C 
ATOM      4  N1  <0> d          -2.697   1.175  -2.108  0.00  0.00    -0.194 NA
ENDROOT
BRANCH   1   5
ATOM      5  O2  <0> d          -2.079   1.444   1.205  0.00  0.00    -0.298 OA
BRANCH   5   6
ATOM      6  C2  <0> d          -2.909   2.369   1.712  0.00  0.00     0.256 C 
ATOM      7  O1  <0> d          -3.005   3.450   1.181  0.00  0.00    -0.266 OA
BRANCH   6   8
ATOM      8  C1  <0> d          -3.721   2.059   2.943  0.00  0.00     0.004 C 
ATOM      9  H2  <0> d          -3.503   1.045   3.276  0.00  0.00     0.041 H 
ATOM     10  H3  <0> d          -3.466   2.765   3.734  0.00  0.00     0.041 H 
ATOM     11  H4  <0> d          -4.782   2.144   2.709  0.00  0.00     0.041 H 
ENDBRANCH   6   8
ENDBRANCH   5   6
ENDBRANCH   1   5
BRANCH   1  12
ATOM     12  C4  <0> d          -0.013   1.076   0.008  0.00  0.00    -0.071 C 
ATOM     13  C5  <0> d           1.113   1.746   0.001  0.00  0.00    -0.121 C 
ATOM     14  H6  <0> d           2.055   1.219  -0.011  0.00  0.00     0.066 H 
ATOM     15  H7  <0> d           1.098   2.826   0.007  0.00  0.00     0.066 H 
ATOM     16  H5  <0> d           0.002  -0.004   0.002  0.00  0.00     0.081 H 
ENDBRANCH   1  12
TORSDOF 4
