REMARK  4 active torsions:
REMARK  status: ('A' for Active; 'I' for Inactive)
REMARK    1  A    between atoms: C1_1  and  C2_2 
REMARK    2  A    between atoms: C2_2  and  C3_4 
REMARK    3  A    between atoms: C2_2  and  N1_7 
REMARK    4  A    between atoms: C3_4  and  C4_6 
ROOT
ATOM      1  C2  <0> d          -0.185   1.208   2.610  0.00  0.00     0.089 C 
ATOM      2  H1  <0> d           0.814   1.177   2.580  0.00  0.00     0.087 H 
ENDROOT
BRANCH   1   3
ATOM      3  C1  <0> d          -0.725  -0.165   3.018  0.00  0.00    -0.049 C 
ATOM      4  H2  <0> d          -1.814  -0.132   3.051  0.00  0.00     0.030 H 
ATOM      5  H3  <0> d          -0.406  -0.912   2.291  0.00  0.00     0.030 H 
ATOM      6  H4  <0> d          -0.340  -0.428   4.003  0.00  0.00     0.030 H 
ENDBRANCH   1   3
BRANCH   1   7
ATOM      7  C3  <0> d          -0.718   1.572   1.248  0.00  0.00     0.147 C 
ATOM      8  O1  <0> d          -1.710   2.253   1.150  0.00  0.00    -0.296 OA
BRANCH   7   9
ATOM      9  C4  <0> d          -0.013   1.086   0.008  0.00  0.00    -0.019 C 
ATOM     10  H5  <0> d           0.001   0.086   0.003  0.00  0.00     0.037 H 
ATOM     11  H6  <0> d           1.010   1.463   0.000  0.00  0.00     0.037 H 
ATOM     12  H7  <0> d          -0.540   1.447  -0.875  0.00  0.00     0.037 H 
ENDBRANCH   7   9
ENDBRANCH   1   7
BRANCH   1  13
ATOM     13  N1  <0> d          -0.614   2.211   3.587  0.00  0.00    -0.251 N 
ATOM     14  N3  <0> d           0.113   3.334   4.014  0.00  0.00    -0.164 NA
ATOM     15  C6  <0> d          -0.634   3.959   4.886  0.00  0.00     0.107 A 
ATOM     16  N2  <0> d          -1.781   3.295   5.027  0.00  0.00    -0.234 NA
ATOM     17  H9  <0> d          -0.366   4.865   5.408  0.00  0.00     0.149 H 
ATOM     18  C5  <0> d          -1.785   2.244   4.247  0.00  0.00     0.085 A 
ATOM     19  H8  <0> d          -2.587   1.527   4.152  0.00  0.00     0.146 H 
ENDBRANCH   1  13
TORSDOF 4
