REMARK  2 active torsions:
REMARK  status: ('A' for Active; 'I' for Inactive)
REMARK    1  A    between atoms: C1_1  and  C2_2 
REMARK    2  A    between atoms: C3_3  and  N3_8 
ROOT
ATOM      1  C2  <0> d          -0.018   1.503   0.010  0.00  0.00     0.059 A 
ATOM      2  C3  <0> d           1.172   2.226   0.003  0.00  0.00     0.068 A 
ATOM      3  C4  <0> d           1.099   3.616   0.011  0.00  0.00     0.031 A 
ATOM      4  N1  <0> d          -0.090   4.196   0.025  0.00  0.00    -0.252 NA
ATOM      5  C5  <0> d          -1.194   3.476   0.032  0.00  0.00     0.086 A 
ATOM      6  N2  <0> d          -1.167   2.158   0.019  0.00  0.00    -0.245 NA
ATOM      7  H4  <0> d           1.999   4.213   0.006  0.00  0.00     0.118 H 
ATOM      8  H5  <0> d          -2.149   3.981   0.044  0.00  0.00     0.146 H 
ENDROOT
BRANCH   1   9
ATOM      9  C1  <0> d           0.002  -0.004   0.002  0.00  0.00    -0.033 C 
ATOM     10  H1  <0> d           0.017  -0.373   1.028  0.00  0.00     0.035 H 
ATOM     11  H2  <0> d          -0.888  -0.377  -0.505  0.00  0.00     0.035 H 
ATOM     12  H3  <0> d           0.892  -0.352  -0.522  0.00  0.00     0.035 H 
ENDBRANCH   1   9
BRANCH   2  13
ATOM     13  N3  <0> d           2.408   1.573  -0.013  0.00  0.00    -0.396 N 
ATOM     14  H6  <0> d           2.444   0.604  -0.019  0.00  0.00     0.156 HD
ATOM     15  H7  <0> d           3.229   2.089  -0.018  0.00  0.00     0.156 HD
ENDBRANCH   2  13
TORSDOF 2
