REMARK  3 active torsions:
REMARK  status: ('A' for Active; 'I' for Inactive)
REMARK    1  A    between atoms: C1_1  and  C2_2 
REMARK    2  A    between atoms: C2_2  and  C8_11 
REMARK    3  A    between atoms: C6_6  and  C7_8 
ROOT
ATOM      1  C2  <0> d           0.017  -0.097   0.050  0.00  0.00    -0.034 C 
ATOM      2  C3  <0> d          -1.319  -0.828   0.293  0.00  0.00    -0.058 C 
ATOM      3  C4  <0> d          -1.420  -0.932   1.835  0.00  0.00    -0.064 C 
ATOM      4  C5  <0> d           0.044  -1.209   2.256  0.00  0.00    -0.052 C 
ATOM      5  C6  <0> d           0.884  -0.339   1.298  0.00  0.00     0.037 C 
ATOM      6  H1  <0> d           1.128   0.611   1.774  0.00  0.00     0.057 H 
ATOM      7  H5  <0> d          -2.151  -0.246  -0.105  0.00  0.00     0.034 H 
ATOM      8  H6  <0> d          -1.298  -1.821  -0.156  0.00  0.00     0.034 H 
ATOM      9  H7  <0> d          -1.775   0.005   2.263  0.00  0.00     0.033 H 
ATOM     10  H8  <0> d          -2.068  -1.760   2.124  0.00  0.00     0.033 H 
ATOM     11  H9  <0> d           0.208  -0.906   3.290  0.00  0.00     0.034 H 
ATOM     12  H10 <0> d           0.286  -2.264   2.124  0.00  0.00     0.034 H 
ENDROOT
BRANCH   1  13
ATOM     13  C1  <0> d          -0.232   1.402  -0.133  0.00  0.00    -0.069 C 
ATOM     14  H2  <0> d           0.722   1.917  -0.253  0.00  0.00     0.028 H 
ATOM     15  H3  <0> d          -0.846   1.563  -1.018  0.00  0.00     0.028 H 
ATOM     16  H4  <0> d          -0.748   1.794   0.744  0.00  0.00     0.028 H 
ENDBRANCH   1  13
BRANCH   1  17
ATOM     17  C8  <0> d           0.710  -0.667  -1.189  0.00  0.00    -0.069 C 
ATOM     18  H11 <0> d           1.696  -0.213  -1.295  0.00  0.00     0.028 H 
ATOM     19  H12 <0> d           0.818  -1.746  -1.081  0.00  0.00     0.028 H 
ATOM     20  H13 <0> d           0.112  -0.448  -2.073  0.00  0.00     0.028 H 
ENDBRANCH   1  17
BRANCH   5  21
ATOM     21  C7  <0> d           2.148  -1.065   0.915  0.00  0.00     0.177 C 
ATOM     22  O1  <0> d           3.185  -0.442   0.759  0.00  0.00    -0.648 OA
ATOM     23  O2  <0> d           2.134  -2.274   0.761  0.00  0.00    -0.648 OA
ENDBRANCH   5  21
TORSDOF 3
