REMARK  4 active torsions:
REMARK  status: ('A' for Active; 'I' for Inactive)
REMARK    1  A    between atoms: C1_1  and  C2_2 
REMARK    2  A    between atoms: C2_2  and  C3_3 
REMARK    3  A    between atoms: C2_2  and  N2_6 
REMARK    4  A    between atoms: N2_6  and  N3_7 
ROOT
ATOM      1  C2  <0> d           0.132  -0.014   0.041  0.00  0.00     0.111 C 
ATOM      2  C4  <0> d          -1.225  -0.497   0.342  0.00  0.00     0.086 C 
ATOM      3  N1  <0> d          -2.273  -0.871   0.574  0.00  0.00    -0.195 NA
ENDROOT
BRANCH   1   4
ATOM      4  C1  <0> d           0.144   1.516   0.060  0.00  0.00    -0.044 C 
ATOM      5  H1  <0> d           1.164   1.873  -0.079  0.00  0.00     0.031 H 
ATOM      6  H2  <0> d          -0.486   1.894  -0.746  0.00  0.00     0.031 H 
ATOM      7  H3  <0> d          -0.238   1.871   1.017  0.00  0.00     0.031 H 
ENDBRANCH   1   4
BRANCH   1   8
ATOM      8  C3  <0> d           1.107  -0.544   1.094  0.00  0.00    -0.044 C 
ATOM      9  H4  <0> d           0.745  -0.285   2.088  0.00  0.00     0.031 H 
ATOM     10  H5  <0> d           1.183  -1.628   1.006  0.00  0.00     0.031 H 
ATOM     11  H6  <0> d           2.089  -0.097   0.937  0.00  0.00     0.031 H 
ENDBRANCH   1   8
BRANCH   1  12
ATOM     12  N2  <0> d           0.539  -0.490  -1.288  0.00  0.00    -0.209 NA
ATOM     13  H7  <0> d          -0.002  -0.043  -2.013  0.00  0.00     0.149 HD
BRANCH  12  14
ATOM     14  N3  <0> d           0.440  -1.850  -1.371  0.00  0.00    -0.259 N 
ATOM     15  C6  <0> d           0.747  -2.626  -2.439  0.00  0.00     0.103 A 
ATOM     16  N5  <0> d           0.514  -3.864  -2.099  0.00  0.00    -0.143 NA
ATOM     17  H9  <0> d           1.118  -2.283  -3.394  0.00  0.00     0.148 H 
ATOM     18  N4  <0> d           0.073  -3.906  -0.892  0.00  0.00    -0.143 NA
ATOM     19  C5  <0> d           0.011  -2.697  -0.404  0.00  0.00     0.103 A 
ATOM     20  H8  <0> d          -0.321  -2.423   0.586  0.00  0.00     0.148 H 
ENDBRANCH  12  14
ENDBRANCH   1  12
TORSDOF 4
