REMARK  3 active torsions:
REMARK  status: ('A' for Active; 'I' for Inactive)
REMARK    1  A    between atoms: C1_1  and  C2_2 
REMARK    2  A    between atoms: C2_2  and  C3_4 
REMARK    3  A    between atoms: C2_2  and  N1_6 
ROOT
ATOM      1  C2  <0> d          -2.502   1.389   0.021  0.00  0.00     0.114 C 
ATOM      2  H1  <0> d          -3.145   2.158  -0.407  0.00  0.00     0.092 H 
ENDROOT
BRANCH   1   3
ATOM      3  C1  <0> d          -2.938   1.100   1.458  0.00  0.00    -0.046 C 
ATOM      4  H2  <0> d          -2.860   2.011   2.052  0.00  0.00     0.031 H 
ATOM      5  H3  <0> d          -3.971   0.752   1.461  0.00  0.00     0.031 H 
ATOM      6  H4  <0> d          -2.295   0.331   1.886  0.00  0.00     0.031 H 
ENDBRANCH   1   3
BRANCH   1   7
ATOM      7  C3  <0> d          -2.610   0.130  -0.800  0.00  0.00     0.198 C 
ATOM      8  O1  <0> d          -1.628  -0.330  -1.333  0.00  0.00    -0.646 OA
ATOM      9  O2  <0> d          -3.797  -0.481  -0.938  0.00  0.00    -0.646 OA
ENDBRANCH   1   7
BRANCH   1  10
ATOM     10  N1  <0> d          -1.113   1.857   0.017  0.00  0.00    -0.267 N 
ATOM     11  N2  <0> d          -0.694   3.193   0.025  0.00  0.00    -0.184 NA
ATOM     12  C6  <0> d           0.614   3.211   0.013  0.00  0.00     0.023 A 
ATOM     13  C5  <0> d           1.069   1.888   0.002  0.00  0.00    -0.048 A 
ATOM     14  H7  <0> d           1.236   4.094   0.012  0.00  0.00     0.117 H 
ATOM     15  C4  <0> d          -0.013   1.076   0.008  0.00  0.00     0.001 A 
ATOM     16  H6  <0> d           2.102   1.572  -0.009  0.00  0.00     0.087 H 
ATOM     17  H5  <0> d           0.002  -0.004   0.002  0.00  0.00     0.114 H 
ENDBRANCH   1  10
TORSDOF 3
