REMARK  3 active torsions:
REMARK  status: ('A' for Active; 'I' for Inactive)
REMARK    1  A    between atoms: C1_1  and  C2_2 
REMARK    2  A    between atoms: C2_2  and  N1_3 
REMARK    3  A    between atoms: N1_3  and  N2_4 
ROOT
ATOM      1  N1  <0> d          -1.078  -0.841   0.008  0.00  0.00    -0.232 NA
ATOM      2  H6  <0> d          -1.678  -0.650   0.796  0.00  0.00     0.147 HD
ENDROOT
BRANCH   1   3
ATOM      3  C2  <0> d          -0.654  -2.247  -0.004  0.00  0.00    -0.008 C 
ATOM      4  H4  <0> d          -0.066  -2.442  -0.900  0.00  0.00     0.057 H 
ATOM      5  H5  <0> d          -0.049  -2.452   0.879  0.00  0.00     0.057 H 
BRANCH   3   6
ATOM      6  C1  <0> d          -1.889  -3.151   0.003  0.00  0.00    -0.064 C 
ATOM      7  H1  <0> d          -2.477  -2.957   0.900  0.00  0.00     0.029 H 
ATOM      8  H2  <0> d          -2.494  -2.947  -0.880  0.00  0.00     0.029 H 
ATOM      9  H3  <0> d          -1.574  -4.195  -0.005  0.00  0.00     0.029 H 
ENDBRANCH   3   6
ENDBRANCH   1   3
BRANCH   1  10
ATOM     10  N2  <0> d           0.002  -0.004   0.002  0.00  0.00    -0.261 N 
ATOM     11  C4  <0> d           1.309  -0.361  -0.012  0.00  0.00     0.103 A 
ATOM     12  N4  <0> d           2.012   0.739  -0.013  0.00  0.00    -0.143 NA
ATOM     13  H8  <0> d           1.698  -1.368  -0.021  0.00  0.00     0.148 H 
ATOM     14  N3  <0> d           1.224   1.756  -0.000  0.00  0.00    -0.143 NA
ATOM     15  C3  <0> d          -0.016   1.351   0.009  0.00  0.00     0.103 A 
ATOM     16  H7  <0> d          -0.895   1.979   0.017  0.00  0.00     0.148 H 
ENDBRANCH   1  10
TORSDOF 3
