REMARK  2 active torsions:
REMARK  status: ('A' for Active; 'I' for Inactive)
REMARK    1  A    between atoms: C1_1  and  C2_2 
REMARK    2  A    between atoms: C5_7  and  N3_8 
ROOT
ATOM      1  C2  <0> d           0.002  -0.004   0.002  0.00  0.00     0.001 A 
ATOM      2  C3  <0> d           0.006  -0.705  -1.188  0.00  0.00     0.013 A 
ATOM      3  N1  <0> d           0.024  -2.030  -1.157  0.00  0.00    -0.253 NA
ATOM      4  C4  <0> d           0.038  -2.683  -0.013  0.00  0.00     0.088 A 
ATOM      5  N2  <0> d           0.035  -2.055   1.146  0.00  0.00    -0.224 NA
ATOM      6  C5  <0> d           0.023  -0.726   1.197  0.00  0.00     0.130 A 
ATOM      7  H4  <0> d          -0.006  -0.181  -2.132  0.00  0.00     0.115 H 
ATOM      8  H5  <0> d           0.053  -3.763  -0.024  0.00  0.00     0.146 H 
ENDROOT
BRANCH   1   9
ATOM      9  C1  <0> d          -0.018   1.503   0.010  0.00  0.00    -0.046 C 
ATOM     10  H1  <0> d           1.004   1.880   0.003  0.00  0.00     0.033 H 
ATOM     11  H2  <0> d          -0.545   1.864  -0.873  0.00  0.00     0.033 H 
ATOM     12  H3  <0> d          -0.529   1.854   0.907  0.00  0.00     0.033 H 
ENDBRANCH   1   9
BRANCH   6  13
ATOM     13  N3  <0> d           0.026  -0.069   2.417  0.00  0.00    -0.384 N 
ATOM     14  H6  <0> d           0.013   0.901   2.445  0.00  0.00     0.157 HD
ATOM     15  H7  <0> d           0.041  -0.578   3.242  0.00  0.00     0.157 HD
ENDBRANCH   6  13
TORSDOF 2
