REMARK  1 active torsions:
REMARK  status: ('A' for Active; 'I' for Inactive)
REMARK    1  A    between atoms: C4_5  and  C6_8 
REMARK       I    between atoms: C6_8  and  N2_10 
ROOT
ATOM      1  C1  <0> d          -3.704   1.905   0.030  0.00  0.00    -0.004 A 
ATOM      2  C2  <0> d          -3.669   3.292   0.038  0.00  0.00     0.136 A 
ATOM      3  C3  <0> d          -2.441   3.942   0.035  0.00  0.00     0.040 A 
ATOM      4  N1  <0> d          -1.317   3.261   0.026  0.00  0.00    -0.249 NA
ATOM      5  C4  <0> d          -1.305   1.933   0.019  0.00  0.00     0.162 A 
ATOM      6  C5  <0> d          -2.502   1.213   0.015  0.00  0.00     0.153 A 
ATOM      7  F1  <0> d          -2.488  -0.138   0.002  0.00  0.00    -0.203 F 
ATOM      8  F2  <0> d          -4.817   4.004   0.047  0.00  0.00    -0.204 F 
ATOM      9  H1  <0> d          -4.646   1.376   0.032  0.00  0.00     0.093 H 
ATOM     10  H2  <0> d          -2.409   5.021   0.041  0.00  0.00     0.119 H 
ENDROOT
BRANCH   5  11
ATOM     11  C6  <0> d          -0.014   1.211   0.009  0.00  0.00     0.271 C 
ATOM     12  O1  <0> d           0.002  -0.004   0.002  0.00  0.00    -0.266 OA
ATOM     13  N2  <0> d           1.143   1.901   0.001  0.00  0.00    -0.365 N 
ATOM     14  H3  <0> d           1.990   1.427  -0.009  0.00  0.00     0.159 HD
ATOM     15  H4  <0> d           1.130   2.871   0.007  0.00  0.00     0.159 HD
ENDBRANCH   5  11
TORSDOF 1
