REMARK  4 active torsions:
REMARK  status: ('A' for Active; 'I' for Inactive)
REMARK    1  A    between atoms: C1_1  and  C2_2 
REMARK    2  A    between atoms: C3_3  and  C6_9 
REMARK    3  A    between atoms: C4_4  and  C5_8 
REMARK    4  A    between atoms: C6_9  and  C7_11 
ROOT
ATOM      1  C2  <0> d           0.026   0.092  -0.151  0.00  0.00     0.040 A 
ATOM      2  C3  <0> d           1.336  -0.348  -0.235  0.00  0.00     0.059 A 
ATOM      3  C4  <0> d           2.166   0.787  -0.070  0.00  0.00     0.066 A 
ATOM      4  N1  <0> d           1.398   1.827   0.100  0.00  0.00    -0.179 NA
ATOM      5  N2  <0> d           0.061   1.417   0.053  0.00  0.00    -0.281 N 
ATOM      6  H1  <0> d          -0.736   2.013   0.154  0.00  0.00     0.189 HD
ENDROOT
BRANCH   2   7
ATOM      7  C6  <0> d           1.780  -1.728  -0.454  0.00  0.00     0.159 C 
ATOM      8  O1  <0> d           1.969  -2.462   0.494  0.00  0.00    -0.293 OA
BRANCH   7   9
ATOM      9  C7  <0> d           2.001  -2.235  -1.856  0.00  0.00    -0.016 C 
ATOM     10  H8  <0> d           2.962  -2.117  -2.105  0.00  0.00     0.038 H 
ATOM     11  H9  <0> d           1.740  -3.292  -1.905  0.00  0.00     0.038 H 
ATOM     12  H10 <0> d           1.374  -1.673  -2.548  0.00  0.00     0.038 H 
ENDBRANCH   7   9
ENDBRANCH   2   7
BRANCH   1  13
ATOM     13  C1  <0> d          -1.211  -0.761  -0.267  0.00  0.00    -0.035 C 
ATOM     14  H2  <0> d          -1.522  -0.810  -1.311  0.00  0.00     0.035 H 
ATOM     15  H3  <0> d          -0.995  -1.766   0.096  0.00  0.00     0.035 H 
ATOM     16  H4  <0> d          -2.011  -0.324   0.330  0.00  0.00     0.035 H 
ENDBRANCH   1  13
BRANCH   3  17
ATOM     17  C5  <0> d           3.673   0.792  -0.087  0.00  0.00    -0.033 C 
ATOM     18  H5  <0> d           4.025   0.859  -1.116  0.00  0.00     0.035 H 
ATOM     19  H6  <0> d           4.040   1.650   0.478  0.00  0.00     0.035 H 
ATOM     20  H7  <0> d           4.045  -0.127   0.366  0.00  0.00     0.035 H 
ENDBRANCH   3  17
TORSDOF 4
