REMARK  2 active torsions:
REMARK  status: ('A' for Active; 'I' for Inactive)
REMARK    1  A    between atoms: C1_1  and  C2_2 
REMARK    2  A    between atoms: C7_7  and  N1_8 
ROOT
ATOM      1  C2  <0> d          -0.059   3.844   0.022  0.00  0.00    -0.035 A 
ATOM      2  C3  <0> d          -1.243   3.133   0.030  0.00  0.00    -0.075 A 
ATOM      3  C4  <0> d          -1.220   1.750   0.017  0.00  0.00    -0.082 A 
ATOM      4  C5  <0> d          -0.013   1.076   0.008  0.00  0.00    -0.081 A 
ATOM      5  C6  <0> d           1.174   1.782   0.000  0.00  0.00    -0.056 A 
ATOM      6  C7  <0> d           1.155   3.170   0.008  0.00  0.00     0.044 A 
ATOM      7  H4  <0> d          -2.187   3.657   0.041  0.00  0.00     0.084 H 
ATOM      8  H5  <0> d          -2.147   1.196   0.019  0.00  0.00     0.083 H 
ATOM      9  H6  <0> d           0.002  -0.004   0.002  0.00  0.00     0.083 H 
ATOM     10  H7  <0> d           2.117   1.255  -0.011  0.00  0.00     0.087 H 
ENDROOT
BRANCH   6  11
ATOM     11  N1  <0> d           2.358   3.890   0.000  0.00  0.00    -0.332 N 
ATOM     12  C11 <0> d           3.415   3.682   0.840  0.00  0.00    -0.015 A 
ATOM     13  C10 <0> d           4.383   4.567   0.525  0.00  0.00    -0.066 A 
ATOM     14  H11 <0> d           3.467   2.938   1.621  0.00  0.00     0.112 H 
ATOM     15  C9  <0> d           3.908   5.349  -0.546  0.00  0.00    -0.066 A 
ATOM     16  H10 <0> d           5.346   4.658   1.006  0.00  0.00     0.085 H 
ATOM     17  C8  <0> d           2.670   4.911  -0.851  0.00  0.00    -0.015 A 
ATOM     18  H9  <0> d           4.441   6.151  -1.037  0.00  0.00     0.085 H 
ATOM     19  H8  <0> d           2.034   5.301  -1.632  0.00  0.00     0.112 H 
ENDBRANCH   6  11
BRANCH   1  20
ATOM     20  C1  <0> d          -0.084   5.351   0.031  0.00  0.00    -0.049 C 
ATOM     21  H1  <0> d          -0.100   5.720  -0.995  0.00  0.00     0.033 H 
ATOM     22  H2  <0> d          -0.976   5.696   0.555  0.00  0.00     0.033 H 
ATOM     23  H3  <0> d           0.804   5.727   0.538  0.00  0.00     0.033 H 
ENDBRANCH   1  20
TORSDOF 2
