REMARK  3 active torsions:
REMARK  status: ('A' for Active; 'I' for Inactive)
REMARK    1  A    between atoms: C2_2  and  C3_3 
REMARK    2  A    between atoms: C3_3  and  O1_4 
REMARK    3  A    between atoms: O1_4  and  C4_5 
ROOT
ATOM      1  C4  <0> d           1.153   3.529   0.009  0.00  0.00     0.070 A 
ATOM      2  C5  <0> d          -0.062   4.200   0.024  0.00  0.00    -0.051 A 
ATOM      3  C6  <0> d          -1.249   3.492   0.032  0.00  0.00    -0.079 A 
ATOM      4  C7  <0> d          -1.234   2.112   0.019  0.00  0.00    -0.063 A 
ATOM      5  C8  <0> d          -0.017   1.428   0.010  0.00  0.00     0.047 A 
ATOM      6  C9  <0> d           1.180   2.145   0.002  0.00  0.00    -0.031 A 
ATOM      7  C10 <0> d           0.002  -0.004   0.002  0.00  0.00     0.099 C 
ATOM      8  N1  <0> d           0.018  -1.140  -0.004  0.00  0.00    -0.191 NA
ATOM      9  H6  <0> d          -0.080   5.280   0.030  0.00  0.00     0.087 H 
ATOM     10  H7  <0> d          -2.191   4.020   0.043  0.00  0.00     0.083 H 
ATOM     11  H8  <0> d          -2.164   1.562   0.021  0.00  0.00     0.085 H 
ATOM     12  H9  <0> d           2.125   1.621  -0.009  0.00  0.00     0.090 H 
ENDROOT
BRANCH   1  13
ATOM     13  O1  <0> d           2.317   4.231   0.002  0.00  0.00    -0.347 OA
BRANCH  13  14
ATOM     14  C3  <0> d           2.215   5.656   0.010  0.00  0.00     0.040 C 
ATOM     15  H4  <0> d           1.681   5.980   0.915  0.00  0.00     0.081 H 
ATOM     16  H5  <0> d           1.663   5.989  -0.881  0.00  0.00     0.081 H 
BRANCH  14  17
ATOM     17  C2  <0> d           3.596   6.259  -0.001  0.00  0.00    -0.089 C 
ATOM     18  C1  <0> d           3.868   7.260  -0.800  0.00  0.00    -0.123 C 
ATOM     19  H1  <0> d           4.877   7.700  -0.808  0.00  0.00     0.066 H 
ATOM     20  H2  <0> d           3.088   7.661  -1.464  0.00  0.00     0.066 H 
ATOM     21  H3  <0> d           4.376   5.858   0.664  0.00  0.00     0.078 H 
ENDBRANCH  14  17
ENDBRANCH  13  14
ENDBRANCH   1  13
TORSDOF 3
