REMARK  0 active torsions:
REMARK  status: ('A' for Active; 'I' for Inactive)
ROOT
ATOM      1  C1  <0> d           3.705   0.430  -0.030  0.00  0.00    -0.062 A 
ATOM      2  C2  <0> d           4.084  -0.856  -0.040  0.00  0.00    -0.044 A 
ATOM      3  S1  <0> d           2.535  -1.734  -0.032  0.00  0.00    -0.105 SA
ATOM      4  C3  <0> d           1.452  -0.390  -0.014  0.00  0.00    -0.003 A 
ATOM      5  C4  <0> d           2.270   0.723  -0.016  0.00  0.00     0.023 A 
ATOM      6  C5  <0> d           1.431   1.942  -0.001  0.00  0.00     0.161 A 
ATOM      7  O1  <0> d           1.843   3.083   0.001  0.00  0.00    -0.292 OA
ATOM      8  C6  <0> d          -0.019   1.532   0.011  0.00  0.00    -0.001 A 
ATOM      9  C7  <0> d           0.002  -0.004   0.002  0.00  0.00    -0.028 A 
ATOM     10  H1  <0> d           4.435   1.225  -0.033  0.00  0.00     0.085 H 
ATOM     11  H2  <0> d           5.085  -1.260  -0.051  0.00  0.00     0.095 H 
ATOM     12  H3  <0> d          -0.478   1.907  -0.795  0.00  0.00     0.045 H 
ATOM     13  H4  <0> d          -0.509   1.899   0.912  0.00  0.00     0.045 H 
ATOM     14  H5  <0> d          -0.481  -0.392   0.899  0.00  0.00     0.041 H 
ATOM     15  H6  <0> d          -0.498  -0.383  -0.889  0.00  0.00     0.041 H 
ENDROOT
TORSDOF 0
