REMARK  6 active torsions:
REMARK  status: ('A' for Active; 'I' for Inactive)
REMARK    1  A    between atoms: C1_1  and  C2_2 
REMARK    2  A    between atoms: C2_2  and  C3_3 
REMARK    3  A    between atoms: C2_2  and  N1_4 
REMARK       I    between atoms: N1_4  and  C4_5 
REMARK       I    between atoms: C4_5  and  N2_7 
REMARK    4  A    between atoms: N2_7  and  C5_8 
REMARK    5  A    between atoms: C5_8  and  C6_9 
REMARK    6  A    between atoms: C5_8  and  C7_10 
ROOT
ATOM      1  N1  <0> d           1.143   1.901   0.001  0.00  0.00    -0.339 N 
ATOM      2  C4  <0> d          -0.014   1.212   0.009  0.00  0.00     0.316 C 
ATOM      3  O1  <0> d           0.002  -0.004   0.002  0.00  0.00    -0.247 OA
ATOM      4  N2  <0> d          -1.191   1.870   0.018  0.00  0.00    -0.339 N 
ATOM      5  H8  <0> d           1.130   2.871   0.007  0.00  0.00     0.164 HD
ATOM      6  H9  <0> d          -1.204   2.840   0.023  0.00  0.00     0.164 HD
ENDROOT
BRANCH   1   7
ATOM      7  C2  <0> d           2.422   1.186  -0.015  0.00  0.00     0.007 C 
ATOM      8  H4  <0> d           2.322   0.277  -0.608  0.00  0.00     0.071 H 
BRANCH   7   9
ATOM      9  C1  <0> d           3.499   2.082  -0.630  0.00  0.00    -0.058 C 
ATOM     10  H1  <0> d           3.599   2.990  -0.036  0.00  0.00     0.030 H 
ATOM     11  H2  <0> d           4.451   1.549  -0.642  0.00  0.00     0.030 H 
ATOM     12  H3  <0> d           3.216   2.342  -1.649  0.00  0.00     0.030 H 
ENDBRANCH   7   9
BRANCH   7  13
ATOM     13  C3  <0> d           2.819   0.820   1.417  0.00  0.00    -0.058 C 
ATOM     14  H5  <0> d           2.919   1.729   2.010  0.00  0.00     0.030 H 
ATOM     15  H6  <0> d           2.052   0.182   1.855  0.00  0.00     0.030 H 
ATOM     16  H7  <0> d           3.771   0.288   1.405  0.00  0.00     0.030 H 
ENDBRANCH   7  13
ENDBRANCH   1   7
BRANCH   4  17
ATOM     17  C5  <0> d          -2.449   1.120   0.020  0.00  0.00     0.007 C 
ATOM     18  H10 <0> d          -2.333   0.214  -0.575  0.00  0.00     0.071 H 
BRANCH  17  19
ATOM     19  C6  <0> d          -2.816   0.743   1.456  0.00  0.00    -0.058 C 
ATOM     20  H11 <0> d          -3.753   0.185   1.458  0.00  0.00     0.030 H 
ATOM     21  H12 <0> d          -2.026   0.127   1.884  0.00  0.00     0.030 H 
ATOM     22  H13 <0> d          -2.932   1.649   2.051  0.00  0.00     0.030 H 
ENDBRANCH  17  19
BRANCH  17  23
ATOM     23  C7  <0> d          -3.559   1.986  -0.580  0.00  0.00    -0.058 C 
ATOM     24  H14 <0> d          -3.298   2.254  -1.603  0.00  0.00     0.030 H 
ATOM     25  H15 <0> d          -4.496   1.428  -0.579  0.00  0.00     0.030 H 
ATOM     26  H16 <0> d          -3.675   2.891   0.015  0.00  0.00     0.030 H 
ENDBRANCH  17  23
ENDBRANCH   4  17
TORSDOF 6
