REMARK  3 active torsions:
REMARK  status: ('A' for Active; 'I' for Inactive)
REMARK    1  A    between atoms: C1_1  and  C2_2 
REMARK    2  A    between atoms: C2_2  and  C3_3 
REMARK    3  A    between atoms: C5_7  and  C6_10 
ROOT
ATOM      1  C3  <0> d           0.011   1.072   2.506  0.00  0.00     0.131 C 
ATOM      2  H1  <0> d           0.134  -0.009   2.453  0.00  0.00     0.129 H 
ATOM      3  O1  <0> d           1.300   1.715   2.613  0.00  0.00    -0.359 OA
ATOM      4  C4  <0> d           1.629   1.567   4.015  0.00  0.00     0.046 C 
ATOM      5  C5  <0> d           0.260   1.731   4.711  0.00  0.00     0.058 C 
ATOM      6  H2  <0> d           0.134   2.754   5.065  0.00  0.00     0.086 H 
ATOM      7  O2  <0> d          -0.714   1.429   3.696  0.00  0.00    -0.354 OA
ATOM      8  H8  <0> d           2.320   2.347   4.334  0.00  0.00     0.078 H 
ATOM      9  H9  <0> d           2.047   0.580   4.214  0.00  0.00     0.078 H 
ENDROOT
BRANCH   1  10
ATOM     10  C2  <0> d          -0.729   1.579   1.267  0.00  0.00    -0.022 C 
ATOM     11  H6  <0> d          -0.744   2.669   1.273  0.00  0.00     0.039 H 
ATOM     12  H7  <0> d          -1.751   1.202   1.275  0.00  0.00     0.039 H 
BRANCH  10  13
ATOM     13  C1  <0> d          -0.013   1.086   0.008  0.00  0.00    -0.072 C 
ATOM     14  H3  <0> d           0.002  -0.004   0.002  0.00  0.00     0.027 H 
ATOM     15  H4  <0> d           1.010   1.463   0.000  0.00  0.00     0.027 H 
ATOM     16  H5  <0> d          -0.540   1.447  -0.875  0.00  0.00     0.027 H 
ENDBRANCH  10  13
ENDBRANCH   1  10
BRANCH   5  17
ATOM     17  C6  <0> d           0.135   0.747   5.876  0.00  0.00    -0.050 C 
ATOM     18  H10 <0> d           0.275  -0.270   5.510  0.00  0.00     0.031 H 
ATOM     19  H11 <0> d           0.895   0.972   6.624  0.00  0.00     0.031 H 
ATOM     20  H12 <0> d          -0.855   0.839   6.324  0.00  0.00     0.031 H 
ENDBRANCH   5  17
TORSDOF 3
