REMARK  0 active torsions:
REMARK  status: ('A' for Active; 'I' for Inactive)
ROOT
ATOM      1  C1  <0> d          -1.216   3.188   0.032  0.00  0.00    -0.020 A 
ATOM      2  C2  <0> d          -0.032   3.833   0.023  0.00  0.00    -0.017 A 
ATOM      3  N1  <0> d           1.137   3.140   0.008  0.00  0.00    -0.344 N 
ATOM      4  H1  <0> d           2.096   3.679   0.001  0.00  0.00     0.167 HD
ATOM      5  C3  <0> d           1.153   1.781   0.001  0.00  0.00     0.182 A 
ATOM      6  C4  <0> d          -0.013   1.076   0.008  0.00  0.00     0.017 A 
ATOM      7  C5  <0> d          -1.237   1.772   0.018  0.00  0.00     0.177 A 
ATOM      8  O1  <0> d          -2.298   1.164   0.013  0.00  0.00    -0.288 OA
ATOM      9  O2  <0> d           2.334   1.123  -0.014  0.00  0.00    -0.172 OA
ATOM     10  H2  <0> d          -2.069   3.710   0.048  0.00  0.00     0.091 H 
ATOM     11  H3  <0> d          -0.007   4.833   0.028  0.00  0.00     0.111 H 
ATOM     12  H4  <0> d          -0.006   0.076   0.007  0.00  0.00     0.096 H 
ENDROOT
TORSDOF 0
