REMARK  2 active torsions:
REMARK  status: ('A' for Active; 'I' for Inactive)
REMARK    1  A    between atoms: C1_1  and  C2_2 
REMARK    2  A    between atoms: C5_5  and  O1_9 
ROOT
ATOM      1  C2  <0> d          -0.718   1.572   1.248  0.00  0.00     0.034 A 
ATOM      2  C3  <0> d           0.009   1.802   2.399  0.00  0.00    -0.057 A 
ATOM      3  C4  <0> d          -0.645   2.250   3.537  0.00  0.00    -0.044 A 
ATOM      4  C5  <0> d          -2.019   2.451   3.473  0.00  0.00     0.124 A 
ATOM      5  C6  <0> d          -2.683   2.197   2.279  0.00  0.00     0.243 A 
ATOM      6  N1  <0> d          -2.021   1.776   1.217  0.00  0.00    -0.223 NA
ATOM      7  F1  <0> d          -4.018   2.388   2.202  0.00  0.00    -0.181 F 
ATOM      8  H4  <0> d           1.077   1.636   2.413  0.00  0.00     0.086 H 
ATOM      9  H5  <0> d          -0.101   2.438   4.450  0.00  0.00     0.088 H 
ENDROOT
BRANCH   1  10
ATOM     10  C1  <0> d          -0.013   1.086   0.008  0.00  0.00    -0.035 C 
ATOM     11  H1  <0> d           0.002  -0.004   0.002  0.00  0.00     0.035 H 
ATOM     12  H2  <0> d           1.010   1.463   0.000  0.00  0.00     0.035 H 
ATOM     13  H3  <0> d          -0.540   1.447  -0.875  0.00  0.00     0.035 H 
ENDBRANCH   1  10
BRANCH   4  14
ATOM     14  O1  <0> d          -2.703   2.889   4.563  0.00  0.00    -0.356 OA
ATOM     15  H6  <0> d          -2.767   3.852   4.626  0.00  0.00     0.218 HD
ENDBRANCH   4  14
TORSDOF 2
