REMARK  3 active torsions:
REMARK  status: ('A' for Active; 'I' for Inactive)
REMARK    1  A    between atoms: C1_1  and  C2_2 
REMARK    2  A    between atoms: C4_5  and  C6_8 
REMARK       I    between atoms: C6_8  and  N3_10 
REMARK    3  A    between atoms: N3_10  and  C7_11 
ROOT
ATOM      1  C2  <0> d          -3.671   3.193   0.036  0.00  0.00     0.048 A 
ATOM      2  C3  <0> d          -2.479   3.904   0.035  0.00  0.00     0.026 A 
ATOM      3  N1  <0> d          -1.328   3.264   0.026  0.00  0.00    -0.252 NA
ATOM      4  C4  <0> d          -1.307   1.934   0.019  0.00  0.00     0.141 A 
ATOM      5  C5  <0> d          -2.506   1.223   0.015  0.00  0.00     0.036 A 
ATOM      6  N2  <0> d          -3.657   1.872   0.029  0.00  0.00    -0.262 NA
ATOM      7  H4  <0> d          -2.496   4.984   0.041  0.00  0.00     0.117 H 
ATOM      8  H5  <0> d          -2.494   0.143   0.004  0.00  0.00     0.118 H 
ENDROOT
BRANCH   4   9
ATOM      9  C6  <0> d          -0.014   1.211   0.009  0.00  0.00     0.271 C 
ATOM     10  O1  <0> d           0.002  -0.004   0.002  0.00  0.00    -0.266 OA
ATOM     11  N3  <0> d           1.143   1.901   0.001  0.00  0.00    -0.360 N 
ATOM     12  H6  <0> d           1.130   2.871   0.007  0.00  0.00     0.162 HD
BRANCH  11  13
ATOM     13  C7  <0> d           2.422   1.185  -0.015  0.00  0.00    -0.018 C 
ATOM     14  H7  <0> d           3.241   1.905  -0.019  0.00  0.00     0.056 H 
ATOM     15  H8  <0> d           2.497   0.555   0.871  0.00  0.00     0.056 H 
ATOM     16  H9  <0> d           2.480   0.565  -0.909  0.00  0.00     0.056 H 
ENDBRANCH  11  13
ENDBRANCH   4   9
BRANCH   1  17
ATOM     17  C1  <0> d          -4.986   3.930   0.046  0.00  0.00    -0.034 C 
ATOM     18  H1  <0> d          -5.307   4.113  -0.979  0.00  0.00     0.035 H 
ATOM     19  H2  <0> d          -5.736   3.329   0.560  0.00  0.00     0.035 H 
ATOM     20  H3  <0> d          -4.865   4.881   0.565  0.00  0.00     0.035 H 
ENDBRANCH   1  17
TORSDOF 3
