REMARK  5 active torsions:
REMARK  status: ('A' for Active; 'I' for Inactive)
REMARK    1  A    between atoms: C1_1  and  C2_2 
REMARK    2  A    between atoms: C2_2  and  N1_3 
REMARK    3  A    between atoms: N1_3  and  C3_4 
REMARK    4  A    between atoms: C6_7  and  N3_11 
REMARK    5  A    between atoms: C8_9  and  N2_10 
ROOT
ATOM      1  C3  <0> d           0.860  -1.869   1.402  0.00  0.00     0.054 A 
ATOM      2  C4  <0> d           0.342  -2.772   0.487  0.00  0.00    -0.053 A 
ATOM      3  C5  <0> d           0.487  -4.130   0.697  0.00  0.00    -0.055 A 
ATOM      4  C6  <0> d           1.153  -4.594   1.823  0.00  0.00     0.028 A 
ATOM      5  C7  <0> d           1.674  -3.694   2.743  0.00  0.00    -0.030 A 
ATOM      6  C8  <0> d           1.534  -2.331   2.532  0.00  0.00     0.054 A 
ATOM      7  H7  <0> d          -0.177  -2.414  -0.390  0.00  0.00     0.087 H 
ATOM      8  H8  <0> d           0.082  -4.832  -0.017  0.00  0.00     0.087 H 
ATOM      9  H9  <0> d           2.192  -4.055   3.619  0.00  0.00     0.090 H 
ENDROOT
BRANCH   1  10
ATOM     10  N1  <0> d           0.711  -0.489   1.189  0.00  0.00    -0.388 N 
ATOM     11  H6  <0> d           1.077   0.142   1.827  0.00  0.00     0.159 HD
BRANCH  10  12
ATOM     12  C2  <0> d           0.002  -0.004   0.002  0.00  0.00    -0.011 C 
ATOM     13  H4  <0> d          -1.020  -0.381   0.010  0.00  0.00     0.063 H 
ATOM     14  H5  <0> d           0.512  -0.356  -0.895  0.00  0.00     0.063 H 
BRANCH  12  15
ATOM     15  C1  <0> d          -0.019   1.526   0.010  0.00  0.00    -0.061 C 
ATOM     16  H1  <0> d           1.004   1.903   0.003  0.00  0.00     0.029 H 
ATOM     17  H2  <0> d          -0.546   1.887  -0.873  0.00  0.00     0.029 H 
ATOM     18  H3  <0> d          -0.529   1.877   0.907  0.00  0.00     0.029 H 
ENDBRANCH  12  15
ENDBRANCH  10  12
ENDBRANCH   1  10
BRANCH   6  19
ATOM     19  N2  <0> d           2.063  -1.421   3.454  0.00  0.00    -0.397 N 
ATOM     20  H10 <0> d           1.961  -0.467   3.308  0.00  0.00     0.156 HD
ATOM     21  H11 <0> d           2.532  -1.743   4.240  0.00  0.00     0.156 HD
ENDBRANCH   6  19
BRANCH   4  22
ATOM     22  N3  <0> d           1.299  -5.971   2.032  0.00  0.00    -0.399 N 
ATOM     23  H12 <0> d           0.935  -6.600   1.390  0.00  0.00     0.156 HD
ATOM     24  H13 <0> d           1.764  -6.295   2.819  0.00  0.00     0.156 HD
ENDBRANCH   4  22
TORSDOF 5
