REMARK  1 active torsions:
REMARK  status: ('A' for Active; 'I' for Inactive)
REMARK    1  A    between atoms: C1_1  and  C2_2 
ROOT
ATOM      1  C2  <0> d           0.002  -0.004   0.002  0.00  0.00     0.037 A 
ATOM      2  C3  <0> d          -1.198  -0.721   0.004  0.00  0.00    -0.044 A 
ATOM      3  C4  <0> d          -1.156  -2.081  -0.004  0.00  0.00    -0.016 A 
ATOM      4  N1  <0> d           0.050  -2.706  -0.014  0.00  0.00    -0.317 N 
ATOM      5  H1  <0> d           0.093  -3.675  -0.020  0.00  0.00     0.170 HD
ATOM      6  C5  <0> d           1.186  -1.984  -0.016  0.00  0.00     0.346 A 
ATOM      7  O1  <0> d           2.263  -2.557  -0.025  0.00  0.00    -0.245 OA
ATOM      8  N2  <0> d           1.151  -0.649  -0.012  0.00  0.00    -0.199 NA
ATOM      9  H5  <0> d          -2.146  -0.203   0.012  0.00  0.00     0.088 H 
ATOM     10  H6  <0> d          -2.070  -2.656  -0.003  0.00  0.00     0.111 H 
ENDROOT
BRANCH   1  11
ATOM     11  C1  <0> d          -0.018   1.503   0.010  0.00  0.00    -0.035 C 
ATOM     12  H2  <0> d           1.004   1.880   0.003  0.00  0.00     0.035 H 
ATOM     13  H3  <0> d          -0.545   1.864  -0.873  0.00  0.00     0.035 H 
ATOM     14  H4  <0> d          -0.529   1.854   0.907  0.00  0.00     0.035 H 
ENDBRANCH   1  11
TORSDOF 1
