REMARK  0 active torsions:
REMARK  status: ('A' for Active; 'I' for Inactive)
ROOT
ATOM      1  C1  <0> d          -0.016   1.332   0.009  0.00  0.00     0.027 A 
ATOM      2  C2  <0> d           1.264   1.764  -0.001  0.00  0.00     0.039 A 
ATOM      3  O1  <0> d           2.052   0.674  -0.014  0.00  0.00    -0.294 OA
ATOM      4  C3  <0> d           1.252  -0.408  -0.012  0.00  0.00     0.252 A 
ATOM      5  N1  <0> d           0.002  -0.004   0.002  0.00  0.00    -0.225 NA
ATOM      6  C4  <0> d           1.690  -1.771  -0.024  0.00  0.00     0.146 C 
ATOM      7  N2  <0> d           2.038  -2.853  -0.033  0.00  0.00    -0.188 NA
ATOM      8  H1  <0> d          -0.897   1.956   0.025  0.00  0.00     0.117 H 
ATOM      9  H2  <0> d           1.593   2.792   0.002  0.00  0.00     0.125 H 
ENDROOT
TORSDOF 0
