REMARK  1 active torsions:
REMARK  status: ('A' for Active; 'I' for Inactive)
REMARK    1  A    between atoms: C1_1  and  N1_2 
ROOT
ATOM      1  N1  <0> d           2.461   3.614  -0.002  0.00  0.00    -0.344 N 
ATOM      2  C2  <0> d           3.238   2.497  -0.015  0.00  0.00     0.067 A 
ATOM      3  N2  <0> d           2.491   1.432  -0.014  0.00  0.00    -0.242 NA
ATOM      4  C3  <0> d           1.182   1.794   0.000  0.00  0.00     0.086 A 
ATOM      5  C4  <0> d           1.146   3.201   0.008  0.00  0.00     0.064 A 
ATOM      6  C5  <0> d          -0.074   3.868   0.024  0.00  0.00    -0.053 A 
ATOM      7  C6  <0> d          -1.242   3.162   0.030  0.00  0.00    -0.061 A 
ATOM      8  C7  <0> d          -1.224   1.760   0.017  0.00  0.00     0.047 A 
ATOM      9  C8  <0> d          -0.013   1.076   0.008  0.00  0.00    -0.033 A 
ATOM     10  C9  <0> d          -2.457   1.031   0.019  0.00  0.00     0.099 C 
ATOM     11  N3  <0> d          -3.434   0.453   0.020  0.00  0.00    -0.191 NA
ATOM     12  H4  <0> d           4.318   2.495  -0.026  0.00  0.00     0.143 H 
ATOM     13  H5  <0> d          -0.097   4.948   0.030  0.00  0.00     0.087 H 
ATOM     14  H6  <0> d          -2.186   3.686   0.042  0.00  0.00     0.086 H 
ATOM     15  H7  <0> d           0.002  -0.004   0.002  0.00  0.00     0.089 H 
ENDROOT
BRANCH   1  16
ATOM     16  C1  <0> d           2.934   5.001   0.000  0.00  0.00    -0.013 C 
ATOM     17  H1  <0> d           4.034   5.012  -0.010  0.00  0.00     0.057 H 
ATOM     18  H2  <0> d           2.571   5.511   0.904  0.00  0.00     0.057 H 
ATOM     19  H3  <0> d           2.554   5.520  -0.892  0.00  0.00     0.057 H 
ENDBRANCH   1  16
TORSDOF 1
