REMARK  3 active torsions:
REMARK  status: ('A' for Active; 'I' for Inactive)
REMARK    1  A    between atoms: C2_2  and  C7_9 
REMARK    2  A    between atoms: C7_9  and  C8_10 
REMARK    3  A    between atoms: C8_10  and  O1_11 
ROOT
ATOM      1  C1  <0> d          -1.238   3.137   0.029  0.00  0.00    -0.039 A 
ATOM      2  C2  <0> d          -0.050   3.843   0.022  0.00  0.00    -0.050 A 
ATOM      3  C3  <0> d           1.156   3.169   0.008  0.00  0.00    -0.039 A 
ATOM      4  C4  <0> d           1.176   1.785   0.000  0.00  0.00     0.119 A 
ATOM      5  C5  <0> d          -0.013   1.076   0.008  0.00  0.00    -0.009 A 
ATOM      6  C6  <0> d          -1.220   1.752   0.017  0.00  0.00     0.119 A 
ATOM      7  F1  <0> d          -2.381   1.062   0.019  0.00  0.00    -0.206 F 
ATOM      8  F2  <0> d           2.356   1.126  -0.014  0.00  0.00    -0.206 F 
ATOM      9  H1  <0> d          -2.180   3.664   0.040  0.00  0.00     0.089 H 
ATOM     10  H2  <0> d           2.084   3.723   0.002  0.00  0.00     0.089 H 
ATOM     11  H3  <0> d           0.002  -0.004   0.002  0.00  0.00     0.092 H 
ENDROOT
BRANCH   2  12
ATOM     12  C7  <0> d          -0.071   5.350   0.029  0.00  0.00    -0.021 C 
ATOM     13  H4  <0> d          -0.961   5.699   0.552  0.00  0.00     0.043 H 
ATOM     14  H5  <0> d           0.819   5.723   0.536  0.00  0.00     0.043 H 
BRANCH  12  15
ATOM     15  C8  <0> d          -0.091   5.867  -1.412  0.00  0.00     0.020 C 
ATOM     16  H6  <0> d           0.799   5.518  -1.935  0.00  0.00     0.074 H 
ATOM     17  H7  <0> d          -0.981   5.493  -1.919  0.00  0.00     0.074 H 
BRANCH  15  18
ATOM     18  O1  <0> d          -0.110   7.295  -1.405  0.00  0.00    -0.401 OA
ATOM     19  H8  <0> d          -0.124   7.692  -2.287  0.00  0.00     0.209 HD
ENDBRANCH  15  18
ENDBRANCH  12  15
ENDBRANCH   2  12
TORSDOF 3
