REMARK  1 active torsions:
REMARK  status: ('A' for Active; 'I' for Inactive)
REMARK    1  A    between atoms: C6_9  and  O1_11 
ROOT
ATOM      1  C1  <0> d           1.159   1.774   0.001  0.00  0.00    -0.079 A 
ATOM      2  C2  <0> d          -0.013   1.076   0.008  0.00  0.00    -0.069 A 
ATOM      3  C3  <0> d          -1.236   1.761   0.018  0.00  0.00     0.014 A 
ATOM      4  C4  <0> d          -2.588   1.342   0.036  0.00  0.00     0.034 A 
ATOM      5  N1  <0> d          -3.351   2.396   0.049  0.00  0.00    -0.186 NA
ATOM      6  N2  <0> d          -2.561   3.552   0.047  0.00  0.00    -0.275 N 
ATOM      7  H1  <0> d          -2.897   4.494   0.055  0.00  0.00     0.189 HD
ATOM      8  C5  <0> d          -1.244   3.167   0.031  0.00  0.00     0.095 A 
ATOM      9  C6  <0> d          -0.033   3.864   0.023  0.00  0.00     0.094 A 
ATOM     10  C7  <0> d           1.157   3.163   0.008  0.00  0.00    -0.049 A 
ATOM     11  H2  <0> d           2.098   1.242  -0.011  0.00  0.00     0.083 H 
ATOM     12  H3  <0> d           0.002  -0.004   0.002  0.00  0.00     0.085 H 
ATOM     13  H4  <0> d          -2.930   0.317   0.034  0.00  0.00     0.118 H 
ATOM     14  H5  <0> d           2.094   3.700   0.002  0.00  0.00     0.087 H 
ENDROOT
BRANCH   9  15
ATOM     15  O1  <0> d          -0.026   5.223   0.030  0.00  0.00    -0.358 OA
ATOM     16  H6  <0> d          -0.033   5.621  -0.851  0.00  0.00     0.217 HD
ENDBRANCH   9  15
TORSDOF 1
