REMARK  2 active torsions:
REMARK  status: ('A' for Active; 'I' for Inactive)
REMARK    1  A    between atoms: C1_1  and  C2_2 
REMARK    2  A    between atoms: C6_6  and  C7_7 
ROOT
ATOM      1  C2  <0> d          -0.377   0.025   0.644  0.00  0.00    -0.057 C 
ATOM      2  C3  <0> d          -0.437   1.545   0.803  0.00  0.00    -0.059 C 
ATOM      3  C4  <0> d           0.928   2.148   0.455  0.00  0.00    -0.044 C 
ATOM      4  C5  <0> d           1.982   1.474   1.305  0.00  0.00    -0.073 C 
ATOM      5  C6  <0> d           2.848   2.193   2.015  0.00  0.00    -0.007 C 
ATOM      6  C8  <0> d           2.026  -0.038   1.328  0.00  0.00    -0.044 C 
ATOM      7  C9  <0> d           0.621  -0.562   1.644  0.00  0.00    -0.059 C 
ATOM      8  H4  <0> d          -0.060  -0.221  -0.370  0.00  0.00     0.039 H 
ATOM      9  H5  <0> d          -1.195   1.950   0.132  0.00  0.00     0.034 H 
ATOM     10  H6  <0> d          -0.693   1.793   1.833  0.00  0.00     0.034 H 
ATOM     11  H7  <0> d           1.145   1.979  -0.600  0.00  0.00     0.039 H 
ATOM     12  H8  <0> d           0.919   3.218   0.663  0.00  0.00     0.039 H 
ATOM     13  H9  <0> d           3.462   1.714   2.764  0.00  0.00     0.094 H 
ATOM     14  H10 <0> d           2.723  -0.372   2.097  0.00  0.00     0.039 H 
ATOM     15  H11 <0> d           2.345  -0.410   0.354  0.00  0.00     0.039 H 
ATOM     16  H12 <0> d           0.341  -0.264   2.654  0.00  0.00     0.034 H 
ATOM     17  H13 <0> d           0.613  -1.649   1.570  0.00  0.00     0.034 H 
ENDROOT
BRANCH   1  18
ATOM     18  C1  <0> d          -1.763  -0.569   0.901  0.00  0.00    -0.073 C 
ATOM     19  H1  <0> d          -2.474  -0.156   0.185  0.00  0.00     0.028 H 
ATOM     20  H2  <0> d          -1.721  -1.652   0.788  0.00  0.00     0.028 H 
ATOM     21  H3  <0> d          -2.082  -0.321   1.913  0.00  0.00     0.028 H 
ENDBRANCH   1  18
BRANCH   5  22
ATOM     22  C7  <0> d           2.970   3.638   1.781  0.00  0.00     0.198 C 
ATOM     23  O1  <0> d           2.375   4.156   0.856  0.00  0.00    -0.644 OA
ATOM     24  O2  <0> d           3.741   4.390   2.591  0.00  0.00    -0.644 OA
ENDBRANCH   5  22
TORSDOF 2
