REMARK  3 active torsions:
REMARK  status: ('A' for Active; 'I' for Inactive)
REMARK    1  A    between atoms: C1_1  and  C2_2 
REMARK    2  A    between atoms: C2_2  and  C3_4 
REMARK    3  A    between atoms: C5_6  and  O2_11 
ROOT
ATOM      1  C3  <0> d          -0.198   1.216   2.576  0.00  0.00     0.051 A 
ATOM      2  C4  <0> d           0.948   0.422   2.693  0.00  0.00    -0.035 A 
ATOM      3  C5  <0> d           1.432   0.096   3.946  0.00  0.00     0.066 A 
ATOM      4  C6  <0> d           0.778   0.547   5.087  0.00  0.00    -0.048 A 
ATOM      5  C7  <0> d          -0.357   1.328   4.977  0.00  0.00    -0.042 A 
ATOM      6  C8  <0> d          -0.851   1.666   3.731  0.00  0.00     0.130 A 
ATOM      7  F1  <0> d          -1.961   2.430   3.627  0.00  0.00    -0.205 F 
ATOM      8  H4  <0> d           1.454   0.068   1.808  0.00  0.00     0.089 H 
ATOM      9  H5  <0> d           1.158   0.286   6.063  0.00  0.00     0.087 H 
ATOM     10  H6  <0> d          -0.860   1.674   5.868  0.00  0.00     0.088 H 
ENDROOT
BRANCH   1  11
ATOM     11  C2  <0> d          -0.718   1.572   1.248  0.00  0.00     0.158 C 
ATOM     12  O1  <0> d          -1.714   2.256   1.150  0.00  0.00    -0.293 OA
BRANCH  11  13
ATOM     13  C1  <0> d          -0.013   1.086   0.008  0.00  0.00    -0.016 C 
ATOM     14  H1  <0> d           0.001   0.086   0.003  0.00  0.00     0.038 H 
ATOM     15  H2  <0> d           1.010   1.463   0.000  0.00  0.00     0.038 H 
ATOM     16  H3  <0> d          -0.540   1.447  -0.875  0.00  0.00     0.038 H 
ENDBRANCH  11  13
ENDBRANCH   1  11
BRANCH   3  17
ATOM     17  O2  <0> d           2.548  -0.672   4.064  0.00  0.00    -0.361 OA
ATOM     18  H7  <0> d           2.369  -1.622   4.098  0.00  0.00     0.217 HD
ENDBRANCH   3  17
TORSDOF 3
