REMARK  3 active torsions:
REMARK  status: ('A' for Active; 'I' for Inactive)
REMARK    1  A    between atoms: C1_1  and  C2_2 
REMARK    2  A    between atoms: C4_4  and  C8_9 
REMARK    3  A    between atoms: C8_9  and  O1_10 
ROOT
ATOM      1  C2  <0> d           1.153   3.438   0.009  0.00  0.00    -0.059 A 
ATOM      2  C3  <0> d          -0.054   4.112   0.023  0.00  0.00    -0.069 A 
ATOM      3  C4  <0> d          -1.242   3.405   0.031  0.00  0.00    -0.031 A 
ATOM      4  C5  <0> d          -1.224   2.023   0.019  0.00  0.00    -0.037 A 
ATOM      5  C6  <0> d          -0.016   1.347   0.009  0.00  0.00     0.117 A 
ATOM      6  C7  <0> d           1.173   2.056   0.002  0.00  0.00    -0.040 A 
ATOM      7  F1  <0> d           0.002  -0.004   0.002  0.00  0.00    -0.206 F 
ATOM      8  H4  <0> d          -0.068   5.192   0.028  0.00  0.00     0.085 H 
ATOM      9  H5  <0> d          -2.152   1.471   0.021  0.00  0.00     0.089 H 
ATOM     10  H6  <0> d           2.116   1.529  -0.009  0.00  0.00     0.089 H 
ENDROOT
BRANCH   3  11
ATOM     11  C8  <0> d          -2.556   4.142   0.047  0.00  0.00     0.041 C 
ATOM     12  H7  <0> d          -3.303   3.541   0.565  0.00  0.00     0.081 H 
ATOM     13  H8  <0> d          -2.433   5.093   0.564  0.00  0.00     0.081 H 
BRANCH  11  14
ATOM     14  O1  <0> d          -2.985   4.381  -1.295  0.00  0.00    -0.396 OA
ATOM     15  H9  <0> d          -3.826   4.852  -1.361  0.00  0.00     0.209 HD
ENDBRANCH  11  14
ENDBRANCH   3  11
BRANCH   1  16
ATOM     16  C1  <0> d           2.447   4.210   0.001  0.00  0.00    -0.051 C 
ATOM     17  H1  <0> d           2.750   4.401  -1.029  0.00  0.00     0.033 H 
ATOM     18  H2  <0> d           2.308   5.157   0.521  0.00  0.00     0.033 H 
ATOM     19  H3  <0> d           3.220   3.629   0.504  0.00  0.00     0.033 H 
ENDBRANCH   1  16
TORSDOF 3
