REMARK  0 active torsions:
REMARK  status: ('A' for Active; 'I' for Inactive)
ROOT
ATOM      1  C1  <0> d           1.150   3.830   0.019  0.00  0.00    -0.079 A 
ATOM      2  C2  <0> d          -0.029   4.519   0.042  0.00  0.00    -0.053 A 
ATOM      3  C3  <0> d          -1.240   3.822   0.046  0.00  0.00     0.084 A 
ATOM      4  C4  <0> d          -1.232   2.414   0.027  0.00  0.00     0.130 A 
ATOM      5  C5  <0> d          -0.021   1.732   0.012  0.00  0.00     0.067 A 
ATOM      6  C6  <0> d           1.161   2.441   0.012  0.00  0.00    -0.059 A 
ATOM      7 Cl1  <0> d           0.002  -0.004   0.002  0.00  0.00    -0.082 Cl
ATOM      8  N1  <0> d          -2.555   2.046   0.029  0.00  0.00    -0.128 NA
ATOM      9  N2  <0> d          -3.270   3.118   0.042  0.00  0.00    -0.067 NA
ATOM     10  N3  <0> d          -2.540   4.178   0.064  0.00  0.00    -0.258 N 
ATOM     11  H1  <0> d           2.019   4.326   0.007  0.00  0.00     0.083 H 
ATOM     12  H2  <0> d          -0.024   5.518   0.056  0.00  0.00     0.087 H 
ATOM     13  H3  <0> d           2.035   1.956   0.004  0.00  0.00     0.086 H 
ATOM     14  H4  <0> d          -3.013   5.170   0.094  0.00  0.00     0.191 HD
ENDROOT
TORSDOF 0
