REMARK  3 active torsions:
REMARK  status: ('A' for Active; 'I' for Inactive)
REMARK    1  A    between atoms: C1_1  and  C2_2 
REMARK    2  A    between atoms: C1_1  and  C3_4 
REMARK    3  A    between atoms: C2_2  and  O1_3 
ROOT
ATOM      1  C1  <0> d          -0.733   1.888   1.268  0.00  0.00     0.045 C 
ATOM      2  H1  <0> d          -0.748   2.978   1.274  0.00  0.00     0.049 H 
ATOM      3  H2  <0> d          -1.756   1.511   1.276  0.00  0.00     0.049 H 
ENDROOT
BRANCH   1   4
ATOM      4  C2  <0> d           0.007   1.381   2.508  0.00  0.00     0.025 C 
ATOM      5  H3  <0> d           0.022   0.291   2.502  0.00  0.00     0.074 H 
ATOM      6  H4  <0> d           1.030   1.759   2.500  0.00  0.00     0.074 H 
BRANCH   4   7
ATOM      7  O1  <0> d          -0.662   1.842   3.684  0.00  0.00    -0.401 OA
ATOM      8  H5  <0> d          -0.247   1.558   4.510  0.00  0.00     0.209 HD
ENDBRANCH   4   7
ENDBRANCH   1   4
BRANCH   1   9
ATOM      9  C3  <0> d          -0.017   1.395   0.010  0.00  0.00     0.389 C 
ATOM     10  F1  <0> d           0.002  -0.004   0.002  0.00  0.00    -0.171 F 
ATOM     11  F2  <0> d           1.296   1.879  -0.000  0.00  0.00    -0.171 F 
ATOM     12  F3  <0> d          -0.694   1.858  -1.124  0.00  0.00    -0.171 F 
ENDBRANCH   1   9
TORSDOF 3
