REMARK  1 active torsions:
REMARK  status: ('A' for Active; 'I' for Inactive)
REMARK    1  A    between atoms: C3_3  and  C6_8 
ROOT
ATOM      1  C6  <0> d           1.247  -2.169  -0.021  0.00  0.00     0.054 C 
ATOM      2  C7  <0> d           2.041  -2.639  -1.168  0.00  0.00     0.065 C 
ATOM      3  N2  <0> d           2.654  -3.001  -2.053  0.00  0.00    -0.197 NA
ATOM      4  H4  <0> d           1.697  -2.529   0.904  0.00  0.00     0.064 H 
ATOM      5  H5  <0> d           0.230  -2.552  -0.103  0.00  0.00     0.064 H 
ENDROOT
BRANCH   1   6
ATOM      6  C3  <0> d           1.218  -0.662  -0.013  0.00  0.00     0.047 A 
ATOM      7  C2  <0> d           0.002  -0.004   0.002  0.00  0.00    -0.056 A 
ATOM      8  C1  <0> d          -0.017   1.381   0.010  0.00  0.00    -0.044 A 
ATOM      9  H2  <0> d          -0.922  -0.563   0.008  0.00  0.00     0.086 H 
ATOM     10  C5  <0> d           1.198   2.059   0.002  0.00  0.00     0.124 A 
ATOM     11  H1  <0> d          -0.952   1.922   0.017  0.00  0.00     0.088 H 
ATOM     12  C4  <0> d           2.377   1.328  -0.013  0.00  0.00     0.038 A 
ATOM     13  O1  <0> d           1.230   3.418   0.008  0.00  0.00    -0.191 OA
ATOM     14  N1  <0> d           2.352   0.010  -0.020  0.00  0.00    -0.262 NA
ATOM     15  H3  <0> d           3.326   1.844  -0.019  0.00  0.00     0.119 H 
ENDBRANCH   1   6
TORSDOF 1
