REMARK  2 active torsions:
REMARK  status: ('A' for Active; 'I' for Inactive)
REMARK    1  A    between atoms: C5_6  and  O2_15 
REMARK    2  A    between atoms: C6_8  and  O1_14 
ROOT
ATOM      1  C1  <0> d          -1.464   1.296  -3.495  0.00  0.00    -0.064 C 
ATOM      2  C2  <0> d          -0.233   1.119  -2.563  0.00  0.00    -0.061 C 
ATOM      3  C3  <0> d          -0.767   1.599  -1.206  0.00  0.00    -0.048 C 
ATOM      4  H1  <0> d          -0.846   2.686  -1.182  0.00  0.00     0.040 H 
ATOM      5  C4  <0> d          -0.013   1.086   0.008  0.00  0.00    -0.035 C 
ATOM      6  C5  <0> d          -0.753   1.592   1.256  0.00  0.00     0.060 C 
ATOM      7  H2  <0> d          -0.729   2.682   1.268  0.00  0.00     0.086 H 
ATOM      8  C6  <0> d          -2.207   1.125   1.268  0.00  0.00     0.060 C 
ATOM      9  H3  <0> d          -2.232   0.040   1.369  0.00  0.00     0.086 H 
ATOM     10  C7  <0> d          -2.938   1.527  -0.023  0.00  0.00    -0.035 C 
ATOM     11  C8  <0> d          -2.169   0.925  -1.184  0.00  0.00    -0.048 C 
ATOM     12  H4  <0> d          -2.061  -0.152  -1.049  0.00  0.00     0.040 H 
ATOM     13  C9  <0> d          -2.714   1.223  -2.579  0.00  0.00    -0.061 C 
ATOM     14  H5  <0> d          -1.421   2.265  -3.993  0.00  0.00     0.033 H 
ATOM     15  H6  <0> d          -1.494   0.495  -4.233  0.00  0.00     0.033 H 
ATOM     16  H7  <0> d           0.596   1.744  -2.895  0.00  0.00     0.033 H 
ATOM     17  H8  <0> d           0.069   0.073  -2.512  0.00  0.00     0.033 H 
ATOM     18  H9  <0> d           0.002  -0.004   0.002  0.00  0.00     0.037 H 
ATOM     19  H10 <0> d           1.007   1.470   0.000  0.00  0.00     0.037 H 
ATOM     20  H11 <0> d          -2.957   2.613  -0.115  0.00  0.00     0.037 H 
ATOM     21  H12 <0> d          -3.956   1.138  -0.011  0.00  0.00     0.037 H 
ATOM     22  H13 <0> d          -3.242   2.177  -2.583  0.00  0.00     0.033 H 
ATOM     23  H14 <0> d          -3.377   0.423  -2.907  0.00  0.00     0.033 H 
ENDROOT
BRANCH   6  24
ATOM     24  O2  <0> d          -0.092   1.099   2.424  0.00  0.00    -0.393 OA
ATOM     25  H16 <0> d          -0.501   1.377   3.254  0.00  0.00     0.210 HD
ENDBRANCH   6  24
BRANCH   8  26
ATOM     26  O1  <0> d          -2.877   1.711   2.386  0.00  0.00    -0.393 OA
ATOM     27  H15 <0> d          -2.473   1.502   3.240  0.00  0.00     0.210 HD
ENDBRANCH   8  26
TORSDOF 2
