REMARK  2 active torsions:
REMARK  status: ('A' for Active; 'I' for Inactive)
REMARK    1  A    between atoms: C1_1  and  C2_2 
REMARK    2  A    between atoms: C8_9  and  N2_11 
ROOT
ATOM      1  C2  <0> d           0.002  -0.004   0.002  0.00  0.00    -0.059 A 
ATOM      2  C3  <0> d           0.006  -0.686  -1.205  0.00  0.00    -0.075 A 
ATOM      3  C4  <0> d           0.024  -2.063  -1.228  0.00  0.00    -0.052 A 
ATOM      4  C5  <0> d           0.039  -2.775  -0.027  0.00  0.00     0.095 A 
ATOM      5  C6  <0> d           0.036  -2.081   1.192  0.00  0.00     0.108 A 
ATOM      6  C7  <0> d           0.023  -0.696   1.196  0.00  0.00    -0.042 A 
ATOM      7  O1  <0> d           0.054  -3.020   2.166  0.00  0.00    -0.276 OA
ATOM      8  C8  <0> d           0.067  -4.231   1.581  0.00  0.00     0.245 A 
ATOM      9  N1  <0> d           0.059  -4.101   0.279  0.00  0.00    -0.206 NA
ATOM     10  H4  <0> d          -0.006  -0.134  -2.133  0.00  0.00     0.084 H 
ATOM     11  H5  <0> d           0.026  -2.590  -2.170  0.00  0.00     0.087 H 
ATOM     12  H6  <0> d           0.025  -0.158   2.133  0.00  0.00     0.088 H 
ENDROOT
BRANCH   1  13
ATOM     13  C1  <0> d          -0.018   1.503   0.010  0.00  0.00    -0.051 C 
ATOM     14  H1  <0> d           1.004   1.880   0.003  0.00  0.00     0.033 H 
ATOM     15  H2  <0> d          -0.545   1.864  -0.873  0.00  0.00     0.033 H 
ATOM     16  H3  <0> d          -0.529   1.854   0.907  0.00  0.00     0.033 H 
ENDBRANCH   1  13
BRANCH   8  17
ATOM     17  N2  <0> d           0.087  -5.432   2.254  0.00  0.00    -0.363 N 
ATOM     18  H7  <0> d           0.092  -5.444   3.224  0.00  0.00     0.159 HD
ATOM     19  H8  <0> d           0.096  -6.265   1.758  0.00  0.00     0.159 HD
ENDBRANCH   8  17
TORSDOF 2
