REMARK  4 active torsions:
REMARK  status: ('A' for Active; 'I' for Inactive)
REMARK    1  A    between atoms: C3_4  and  C6_12 
REMARK    2  A    between atoms: C4_6  and  O3_11 
REMARK    3  A    between atoms: C5_8  and  O2_10 
REMARK    4  A    between atoms: C6_12  and  O4_13 
ROOT
ATOM      1  C1  <0> d          -1.052   3.051   1.106  0.00  0.00    -0.052 C 
ATOM      2  C2  <0> d          -1.033   3.655  -0.052  0.00  0.00     0.012 C 
ATOM      3  O1  <0> d          -0.728   3.030  -1.211  0.00  0.00    -0.353 OA
ATOM      4  C3  <0> d          -0.768   1.601  -1.226  0.00  0.00     0.091 C 
ATOM      5  H1  <0> d          -1.803   1.262  -1.190  0.00  0.00     0.091 H 
ATOM      6  C4  <0> d          -0.013   1.086   0.008  0.00  0.00     0.091 C 
ATOM      7  H2  <0> d           0.002  -0.004   0.002  0.00  0.00     0.091 H 
ATOM      8  C5  <0> d          -0.743   1.586   1.259  0.00  0.00     0.081 C 
ATOM      9  H3  <0> d          -0.109   1.438   2.133  0.00  0.00     0.093 H 
ATOM     10  H4  <0> d          -1.300   3.624   1.987  0.00  0.00     0.083 H 
ATOM     11  H5  <0> d          -1.274   4.707  -0.086  0.00  0.00     0.122 H 
ENDROOT
BRANCH   4  12
ATOM     12  C6  <0> d          -0.096   1.077  -2.497  0.00  0.00     0.044 C 
ATOM     13  H8  <0> d           0.906   1.498  -2.578  0.00  0.00     0.078 H 
ATOM     14  H9  <0> d          -0.031  -0.010  -2.452  0.00  0.00     0.078 H 
BRANCH  12  15
ATOM     15  O4  <0> d          -0.868   1.462  -3.636  0.00  0.00    -0.398 OA
ATOM     16  H10 <0> d          -0.501   1.163  -4.479  0.00  0.00     0.209 HD
ENDBRANCH  12  15
ENDBRANCH   4  12
BRANCH   6  17
ATOM     17  O3  <0> d           1.326   1.586  -0.002  0.00  0.00    -0.390 OA
ATOM     18  H7  <0> d           1.856   1.306   0.756  0.00  0.00     0.210 HD
ENDBRANCH   6  17
BRANCH   8  19
ATOM     19  O2  <0> d          -1.960   0.857   1.424  0.00  0.00    -0.389 OA
ATOM     20  H6  <0> d          -2.475   1.121   2.199  0.00  0.00     0.210 HD
ENDBRANCH   8  19
TORSDOF 4
