REMARK  1 active torsions:
REMARK  status: ('A' for Active; 'I' for Inactive)
REMARK    1  A    between atoms: C3_3  and  O2_7 
ROOT
ATOM      1  C1  <0> d           1.491   2.842  -1.277  0.00  0.00    -0.041 C 
ATOM      2  C2  <0> d           1.425   1.968  -0.001  0.00  0.00    -0.017 C 
ATOM      3  C3  <0> d          -0.017   1.425   0.010  0.00  0.00     0.128 C 
ATOM      4  H1  <0> d          -0.542   1.783   0.895  0.00  0.00     0.128 H 
ATOM      5  O1  <0> d          -0.666   1.911  -1.177  0.00  0.00    -0.361 OA
ATOM      6  C4  <0> d          -0.006   3.142  -1.544  0.00  0.00     0.023 C 
ATOM      7  H2  <0> d           2.045   3.762  -1.091  0.00  0.00     0.036 H 
ATOM      8  H3  <0> d           1.931   2.287  -2.106  0.00  0.00     0.036 H 
ATOM      9  H4  <0> d           1.611   2.574   0.886  0.00  0.00     0.040 H 
ATOM     10  H5  <0> d           2.141   1.149  -0.062  0.00  0.00     0.040 H 
ATOM     11  H6  <0> d          -0.350   3.964  -0.917  0.00  0.00     0.074 H 
ATOM     12  H7  <0> d          -0.170   3.368  -2.598  0.00  0.00     0.074 H 
ENDROOT
BRANCH   3  13
ATOM     13  O2  <0> d           0.002  -0.004   0.002  0.00  0.00    -0.371 OA
ATOM     14  H8  <0> d          -0.876  -0.409   0.008  0.00  0.00     0.212 HD
ENDBRANCH   3  13
TORSDOF 1
