REMARK  6 active torsions:
REMARK  status: ('A' for Active; 'I' for Inactive)
REMARK    1  A    between atoms: C1_1  and  C2_2 
REMARK    2  A    between atoms: C2_2  and  C3_3 
REMARK    3  A    between atoms: C2_2  and  C4_4 
REMARK    4  A    between atoms: C2_2  and  C5_5 
REMARK    5  A    between atoms: C7_7  and  C8_11 
REMARK    6  A    between atoms: C8_11  and  O1_12 
ROOT
ATOM      1  C2  <0> d           0.002  -0.004   0.002  0.00  0.00    -0.005 C 
ENDROOT
BRANCH   1   2
ATOM      2  C1  <0> d          -0.019   1.526   0.010  0.00  0.00    -0.064 C 
ATOM      3  H2  <0> d           1.004   1.903   0.003  0.00  0.00     0.028 H 
ATOM      4  H3  <0> d          -0.546   1.887  -0.873  0.00  0.00     0.028 H 
ATOM      5  H4  <0> d          -0.529   1.877   0.907  0.00  0.00     0.028 H 
ENDBRANCH   1   2
BRANCH   1   6
ATOM      6  C3  <0> d           0.742  -0.511   1.242  0.00  0.00    -0.064 C 
ATOM      7  H5  <0> d           0.232  -0.159   2.138  0.00  0.00     0.028 H 
ATOM      8  H6  <0> d           0.757  -1.601   1.236  0.00  0.00     0.028 H 
ATOM      9  H7  <0> d           1.765  -0.134   1.234  0.00  0.00     0.028 H 
ENDBRANCH   1   6
BRANCH   1  10
ATOM     10  C4  <0> d          -1.433  -0.534   0.013  0.00  0.00    -0.064 C 
ATOM     11  H8  <0> d          -1.960  -0.173  -0.870  0.00  0.00     0.028 H 
ATOM     12  H9  <0> d          -1.419  -1.623   0.007  0.00  0.00     0.028 H 
ATOM     13  H10 <0> d          -1.944  -0.182   0.910  0.00  0.00     0.028 H 
ENDBRANCH   1  10
BRANCH   1  14
ATOM     14  C5  <0> d           0.707  -0.490  -1.238  0.00  0.00     0.064 A 
ATOM     15  N2  <0> d           0.134  -1.007  -2.294  0.00  0.00    -0.178 NA
ATOM     16  N1  <0> d           1.133  -1.327  -3.222  0.00  0.00    -0.280 N 
ATOM     17  C7  <0> d           2.324  -0.992  -2.683  0.00  0.00     0.053 A 
ATOM     18  H1  <0> d           0.994  -1.722  -4.097  0.00  0.00     0.189 HD
ATOM     19  C6  <0> d           2.089  -0.472  -1.456  0.00  0.00    -0.031 A 
ATOM     20  H11 <0> d           2.836  -0.107  -0.767  0.00  0.00     0.089 H 
BRANCH  17  21
ATOM     21  C8  <0> d           3.673  -1.165  -3.331  0.00  0.00     0.056 C 
ATOM     22  H12 <0> d           3.840  -2.220  -3.546  0.00  0.00     0.083 H 
ATOM     23  H13 <0> d           3.706  -0.596  -4.260  0.00  0.00     0.083 H 
BRANCH  21  24
ATOM     24  O1  <0> d           4.691  -0.692  -2.446  0.00  0.00    -0.395 OA
ATOM     25  H14 <0> d           5.587  -0.773  -2.799  0.00  0.00     0.209 HD
ENDBRANCH  21  24
ENDBRANCH  17  21
ENDBRANCH   1  14
TORSDOF 6
