REMARK  5 active torsions:
REMARK  status: ('A' for Active; 'I' for Inactive)
REMARK    1  A    between atoms: C1_1  and  O1_2 
REMARK    2  A    between atoms: O1_2  and  C2_3 
REMARK    3  A    between atoms: C2_3  and  C3_4 
REMARK    4  A    between atoms: C2_3  and  O3_10 
REMARK    5  A    between atoms: O3_10  and  C7_11 
ROOT
ATOM      1  C3  <0> d           0.748  -2.147  -1.482  0.00  0.00     0.086 C 
ATOM      2  H1  <0> d          -0.254  -2.511  -1.255  0.00  0.00     0.090 H 
ATOM      3  C4  <0> d           1.200  -2.650  -2.876  0.00  0.00    -0.034 C 
ATOM      4  C5  <0> d           1.707  -4.075  -2.526  0.00  0.00    -0.043 C 
ATOM      5  C6  <0> d           2.297  -3.875  -1.114  0.00  0.00     0.020 C 
ATOM      6  O2  <0> d           1.700  -2.696  -0.557  0.00  0.00    -0.381 OA
ATOM      7  H6  <0> d           0.360  -2.691  -3.570  0.00  0.00     0.037 H 
ATOM      8  H7  <0> d           2.005  -2.033  -3.275  0.00  0.00     0.037 H 
ATOM      9  H8  <0> d           0.881  -4.786  -2.504  0.00  0.00     0.036 H 
ATOM     10  H9  <0> d           2.477  -4.396  -3.227  0.00  0.00     0.036 H 
ATOM     11  H10 <0> d           2.063  -4.737  -0.489  0.00  0.00     0.074 H 
ATOM     12  H11 <0> d           3.378  -3.747  -1.180  0.00  0.00     0.074 H 
ENDROOT
BRANCH   1  13
ATOM     13  C2  <0> d           0.781  -0.618  -1.432  0.00  0.00     0.154 C 
ATOM     14  H5  <0> d           1.767  -0.266  -1.735  0.00  0.00     0.133 H 
BRANCH  13  15
ATOM     15  O1  <0> d           0.507  -0.179  -0.101  0.00  0.00    -0.363 OA
BRANCH  15  16
ATOM     16  C1  <0> d           0.938   1.156   0.172  0.00  0.00     0.007 C 
ATOM     17  H2  <0> d           1.986   1.264  -0.110  0.00  0.00     0.066 H 
ATOM     18  H3  <0> d           0.333   1.858  -0.403  0.00  0.00     0.066 H 
ATOM     19  H4  <0> d           0.825   1.365   1.235  0.00  0.00     0.066 H 
ENDBRANCH  15  16
ENDBRANCH  13  15
BRANCH  13  20
ATOM     20  O3  <0> d          -0.207  -0.091  -2.321  0.00  0.00    -0.363 OA
BRANCH  20  21
ATOM     21  C7  <0> d          -0.002   1.279  -2.671  0.00  0.00     0.007 C 
ATOM     22  H12 <0> d          -0.353   1.918  -1.861  0.00  0.00     0.066 H 
ATOM     23  H13 <0> d           1.061   1.456  -2.839  0.00  0.00     0.066 H 
ATOM     24  H14 <0> d          -0.556   1.508  -3.581  0.00  0.00     0.066 H 
ENDBRANCH  20  21
ENDBRANCH  13  20
ENDBRANCH   1  13
TORSDOF 5
