REMARK  0 active torsions:
REMARK  status: ('A' for Active; 'I' for Inactive)
ROOT
ATOM      1  C1  <0> d          -0.013   1.076   0.008  0.00  0.00    -0.082 A 
ATOM      2  C2  <0> d           1.254   1.827  -0.000  0.00  0.00    -0.082 A 
ATOM      3  C3  <0> d           1.232   3.143   0.007  0.00  0.00    -0.068 A 
ATOM      4  C4  <0> d          -0.054   3.861   0.022  0.00  0.00     0.032 A 
ATOM      5  C5  <0> d          -1.191   3.195   0.029  0.00  0.00     0.032 A 
ATOM      6  C6  <0> d          -1.160   1.715   0.017  0.00  0.00    -0.068 A 
ATOM      7  C7  <0> d          -2.062   4.394   0.043  0.00  0.00     0.233 A 
ATOM      8  O1  <0> d          -3.242   4.641   0.055  0.00  0.00    -0.283 OA
ATOM      9  C8  <0> d          -0.792   5.137   0.035  0.00  0.00     0.233 A 
ATOM     10  O2  <0> d          -0.483   6.303   0.037  0.00  0.00    -0.283 OA
ATOM     11  H1  <0> d           0.002  -0.004   0.002  0.00  0.00     0.083 H 
ATOM     12  H2  <0> d           2.197   1.301  -0.012  0.00  0.00     0.083 H 
ATOM     13  H3  <0> d           2.159   3.697   0.001  0.00  0.00     0.085 H 
ATOM     14  H4  <0> d          -2.085   1.158   0.018  0.00  0.00     0.085 H 
ENDROOT
TORSDOF 0
