REMARK  0 active torsions:
REMARK  status: ('A' for Active; 'I' for Inactive)
ROOT
ATOM      1  C1  <0> d           1.173   1.794   0.001  0.00  0.00    -0.077 A 
ATOM      2  C2  <0> d          -0.013   1.076   0.008  0.00  0.00    -0.044 A 
ATOM      3  C3  <0> d          -1.215   1.760   0.017  0.00  0.00     0.127 A 
ATOM      4  N1  <0> d          -1.241   3.079   0.030  0.00  0.00    -0.225 NA
ATOM      5  C4  <0> d          -0.131   3.794   0.024  0.00  0.00     0.127 A 
ATOM      6  C5  <0> d           1.107   3.178   0.009  0.00  0.00    -0.044 A 
ATOM      7 Cl1  <0> d          -0.228   5.528   0.035  0.00  0.00    -0.062 Cl
ATOM      8 Cl2  <0> d          -2.707   0.872   0.019  0.00  0.00    -0.062 Cl
ATOM      9  H1  <0> d           2.127   1.286  -0.012  0.00  0.00     0.083 H 
ATOM     10  H2  <0> d           0.002  -0.004   0.002  0.00  0.00     0.088 H 
ATOM     11  H3  <0> d           2.011   3.769   0.003  0.00  0.00     0.088 H 
ENDROOT
TORSDOF 0
