REMARK  2 active torsions:
REMARK  status: ('A' for Active; 'I' for Inactive)
REMARK    1  A    between atoms: C1_1  and  C2_2 
REMARK    2  A    between atoms: C2_2  and  C3_4 
ROOT
ATOM      1  C3  <0> d          -0.939   1.683   1.080  0.00  0.00     0.003 C 
ATOM      2  C4  <0> d          -0.013   1.086   0.008  0.00  0.00    -0.055 C 
ATOM      3  C5  <0> d          -0.959   1.695  -1.040  0.00  0.00    -0.064 C 
ATOM      4  C6  <0> d          -1.349   2.730   0.028  0.00  0.00    -0.055 C 
ATOM      5  H4  <0> d          -0.487   2.040   1.898  0.00  0.00     0.051 H 
ATOM      6  H5  <0> d           0.002  -0.004   0.002  0.00  0.00     0.034 H 
ATOM      7  H6  <0> d           0.986   1.523   0.001  0.00  0.00     0.034 H 
ATOM      8  H7  <0> d          -0.442   2.126  -1.897  0.00  0.00     0.033 H 
ATOM      9  H8  <0> d          -1.777   1.034  -1.326  0.00  0.00     0.033 H 
ATOM     10  H9  <0> d          -0.716   3.618   0.028  0.00  0.00     0.034 H 
ATOM     11  H10 <0> d          -2.412   2.969   0.038  0.00  0.00     0.034 H 
ENDROOT
BRANCH   1  12
ATOM     12  C2  <0> d          -2.062   0.765   1.488  0.00  0.00     0.127 C 
ATOM     13  O1  <0> d          -2.454  -0.085   0.725  0.00  0.00    -0.298 OA
BRANCH  12  14
ATOM     14  C1  <0> d          -2.697   0.908   2.847  0.00  0.00    -0.021 C 
ATOM     15  H1  <0> d          -3.088   1.823   2.938  0.00  0.00     0.037 H 
ATOM     16  H2  <0> d          -3.485   0.163   2.960  0.00  0.00     0.037 H 
ATOM     17  H3  <0> d          -1.941   0.758   3.618  0.00  0.00     0.037 H 
ENDBRANCH  12  14
ENDBRANCH   1  12
TORSDOF 2
