REMARK  1 active torsions:
REMARK  status: ('A' for Active; 'I' for Inactive)
REMARK    1  A    between atoms: C3_3  and  N3_9 
ROOT
ATOM      1  C1  <0> d           1.182   2.156   0.002  0.00  0.00    -0.058 A 
ATOM      2  C2  <0> d           1.116   3.524   0.010  0.00  0.00    -0.038 A 
ATOM      3  C3  <0> d          -0.130   4.148   0.026  0.00  0.00     0.120 A 
ATOM      4  N1  <0> d          -1.248   3.436   0.033  0.00  0.00    -0.242 NA
ATOM      5  C4  <0> d          -1.230   2.120   0.019  0.00  0.00     0.024 A 
ATOM      6  C5  <0> d          -0.017   1.428   0.010  0.00  0.00     0.062 A 
ATOM      7  C6  <0> d           0.002  -0.004   0.002  0.00  0.00     0.101 C 
ATOM      8  N2  <0> d           0.018  -1.140  -0.004  0.00  0.00    -0.191 NA
ATOM      9  H1  <0> d           2.136   1.649  -0.010  0.00  0.00     0.086 H 
ATOM     10  H2  <0> d           2.021   4.113   0.004  0.00  0.00     0.089 H 
ATOM     11  H3  <0> d          -2.160   1.571   0.021  0.00  0.00     0.117 H 
ENDROOT
BRANCH   3  12
ATOM     12  N3  <0> d          -0.200   5.532   0.034  0.00  0.00    -0.384 N 
ATOM     13  H4  <0> d          -1.179   6.033   0.046  0.00  0.00     0.157 HD
ATOM     14  H5  <0> d           0.723   6.130   0.029  0.00  0.00     0.157 HD
ENDBRANCH   3  12
TORSDOF 1
