REMARK  2 active torsions:
REMARK  status: ('A' for Active; 'I' for Inactive)
REMARK    1  A    between atoms: C3_3  and  O1_10 
REMARK    2  A    between atoms: C6_6  and  C7_7 
ROOT
ATOM      1  C1  <0> d          -0.379   4.161  -0.701  0.00  0.00    -0.074 A 
ATOM      2  C2  <0> d          -0.083   5.353  -1.334  0.00  0.00    -0.051 A 
ATOM      3  C3  <0> d          -0.254   5.470  -2.706  0.00  0.00     0.065 A 
ATOM      4  C4  <0> d          -0.717   4.387  -3.439  0.00  0.00    -0.051 A 
ATOM      5  C5  <0> d          -1.006   3.195  -2.802  0.00  0.00    -0.074 A 
ATOM      6  C6  <0> d          -0.834   3.082  -1.435  0.00  0.00    -0.054 A 
ATOM      7  H1  <0> d          -0.250   4.072   0.368  0.00  0.00     0.084 H 
ATOM      8  H2  <0> d           0.277   6.195  -0.761  0.00  0.00     0.087 H 
ATOM      9  H3  <0> d          -0.850   4.475  -4.507  0.00  0.00     0.087 H 
ATOM     10  H4  <0> d          -1.365   2.352  -3.373  0.00  0.00     0.084 H 
ENDROOT
BRANCH   6  11
ATOM     11  C7  <0> d          -1.150   1.781  -0.743  0.00  0.00    -0.029 A 
ATOM     12  C9  <0> d          -1.136   1.773   0.788  0.00  0.00    -0.057 A 
ATOM     13  C8  <0> d          -0.013   1.086   0.008  0.00  0.00    -0.057 A 
ATOM     14  H8  <0> d          -1.859   1.135   1.295  0.00  0.00     0.034 H 
ATOM     15  H9  <0> d          -0.897   2.708   1.294  0.00  0.00     0.034 H 
ATOM     16  H6  <0> d           0.002  -0.004   0.002  0.00  0.00     0.034 H 
ATOM     17  H7  <0> d           0.964   1.569   0.001  0.00  0.00     0.034 H 
ATOM     18  H5  <0> d          -1.884   1.149  -1.243  0.00  0.00     0.047 H 
ENDBRANCH   6  11
BRANCH   3  19
ATOM     19  O1  <0> d           0.031   6.643  -3.330  0.00  0.00    -0.361 OA
ATOM     20  H10 <0> d          -0.718   7.252  -3.384  0.00  0.00     0.217 HD
ENDBRANCH   3  19
TORSDOF 2
