REMARK  4 active torsions:
REMARK  status: ('A' for Active; 'I' for Inactive)
REMARK    1  A    between atoms: C1_1  and  O1_2 
REMARK    2  A    between atoms: O1_2  and  C2_3 
REMARK    3  A    between atoms: C2_3  and  C3_5 
REMARK    4  A    between atoms: C5_8  and  C6_10 
ROOT
ATOM      1  C3  <0> d          -1.244  -2.135   0.003  0.00  0.00     0.044 A 
ATOM      2  H1  <0> d          -0.457  -2.634  -0.564  0.00  0.00     0.057 H 
ATOM      3  C4  <0> d          -1.751  -2.829   1.268  0.00  0.00    -0.039 A 
ATOM      4  C5  <0> d          -2.627  -2.789   0.014  0.00  0.00     0.043 A 
ATOM      5  H2  <0> d          -3.495  -2.130   0.027  0.00  0.00     0.058 H 
ATOM      6  H6  <0> d          -1.298  -3.784   1.535  0.00  0.00     0.035 H 
ATOM      7  H7  <0> d          -2.042  -2.196   2.107  0.00  0.00     0.035 H 
ENDROOT
BRANCH   1   8
ATOM      8  C2  <0> d          -1.185  -0.630   0.010  0.00  0.00     0.263 C 
ATOM      9  O2  <0> d          -2.208   0.015   0.023  0.00  0.00    -0.265 OA
BRANCH   8  10
ATOM     10  O1  <0> d           0.002  -0.004   0.002  0.00  0.00    -0.326 OA
BRANCH  10  11
ATOM     11  C1  <0> d          -0.017   1.425   0.010  0.00  0.00     0.013 C 
ATOM     12  H3  <0> d           1.005   1.802   0.002  0.00  0.00     0.067 H 
ATOM     13  H4  <0> d          -0.544   1.786  -0.873  0.00  0.00     0.067 H 
ATOM     14  H5  <0> d          -0.527   1.776   0.907  0.00  0.00     0.067 H 
ENDBRANCH  10  11
ENDBRANCH   8  10
ENDBRANCH   1   8
BRANCH   4  15
ATOM     15  C6  <0> d          -2.797  -4.072  -0.757  0.00  0.00     0.177 C 
ATOM     16  O3  <0> d          -3.611  -4.902  -0.388  0.00  0.00    -0.648 OA
ATOM     17  O4  <0> d          -2.122  -4.280  -1.750  0.00  0.00    -0.648 OA
ENDBRANCH   4  15
TORSDOF 4
