REMARK  2 active torsions:
REMARK  status: ('A' for Active; 'I' for Inactive)
REMARK    1  A    between atoms: C4_4  and  C6_6 
REMARK    2  A    between atoms: C6_6  and  O1_7 
ROOT
ATOM      1  C1  <0> d          -0.019   1.538   0.011  0.00  0.00    -0.063 C 
ATOM      2  C2  <0> d           1.477   1.939  -0.002  0.00  0.00    -0.063 C 
ATOM      3  C3  <0> d           2.107   0.881  -0.942  0.00  0.00    -0.044 C 
ATOM      4  C4  <0> d           1.353  -0.422  -0.604  0.00  0.00     0.070 C 
ATOM      5  C5  <0> d           0.002  -0.004   0.002  0.00  0.00    -0.044 C 
ATOM      6  C7  <0> d           2.122  -1.209   0.374  0.00  0.00     0.071 C 
ATOM      7  N1  <0> d           2.716  -1.817   1.128  0.00  0.00    -0.196 NA
ATOM      8  H1  <0> d          -0.505   1.908   0.913  0.00  0.00     0.033 H 
ATOM      9  H2  <0> d          -0.522   1.918  -0.878  0.00  0.00     0.033 H 
ATOM     10  H3  <0> d           1.606   2.942  -0.408  0.00  0.00     0.033 H 
ATOM     11  H4  <0> d           1.904   1.868   0.999  0.00  0.00     0.033 H 
ATOM     12  H5  <0> d           1.946   1.155  -1.985  0.00  0.00     0.035 H 
ATOM     13  H6  <0> d           3.171   0.771  -0.735  0.00  0.00     0.035 H 
ATOM     14  H7  <0> d          -0.084  -0.384   1.020  0.00  0.00     0.035 H 
ATOM     15  H8  <0> d          -0.815  -0.385  -0.610  0.00  0.00     0.035 H 
ENDROOT
BRANCH   4  16
ATOM     16  C6  <0> d           1.127  -1.242  -1.876  0.00  0.00     0.036 C 
ATOM     17  H9  <0> d           0.535  -0.659  -2.582  0.00  0.00     0.076 H 
ATOM     18  H10 <0> d           2.088  -1.490  -2.324  0.00  0.00     0.076 H 
BRANCH  16  19
ATOM     19  O1  <0> d           0.429  -2.445  -1.548  0.00  0.00    -0.399 OA
ATOM     20  H11 <0> d           0.250  -3.015  -2.309  0.00  0.00     0.209 HD
ENDBRANCH  16  19
ENDBRANCH   4  16
TORSDOF 2
