REMARK  0 active torsions:
REMARK  status: ('A' for Active; 'I' for Inactive)
ROOT
ATOM      1  C1  <0> d          -0.019   1.556   0.011  0.00  0.00    -0.061 C 
ATOM      2  C2  <0> d           1.515   1.820  -0.003  0.00  0.00    -0.061 C 
ATOM      3  C3  <0> d           2.013   0.342  -0.015  0.00  0.00    -0.046 C 
ATOM      4  C4  <0> d           1.116  -0.478  -0.998  0.00  0.00    -0.046 C 
ATOM      5  C5  <0> d           0.002  -0.004   0.002  0.00  0.00    -0.046 C 
ATOM      6  C6  <0> d           1.114  -0.362   1.040  0.00  0.00    -0.046 C 
ATOM      7  C7  <0> d           1.471  -1.874   0.884  0.00  0.00    -0.061 C 
ATOM      8  C8  <0> d           1.472  -1.961  -0.670  0.00  0.00    -0.061 C 
ATOM      9  H1  <0> d          -0.483   1.944   0.917  0.00  0.00     0.033 H 
ATOM     10  H2  <0> d          -0.501   1.954  -0.883  0.00  0.00     0.033 H 
ATOM     11  H3  <0> d           1.821   2.353  -0.903  0.00  0.00     0.033 H 
ATOM     12  H4  <0> d           1.838   2.344   0.897  0.00  0.00     0.033 H 
ATOM     13  H5  <0> d           3.091   0.175  -0.006  0.00  0.00     0.041 H 
ATOM     14  H6  <0> d           1.058  -0.193  -2.049  0.00  0.00     0.041 H 
ATOM     15  H7  <0> d          -0.957  -0.522   0.015  0.00  0.00     0.041 H 
ATOM     16  H8  <0> d           1.046   0.043   2.049  0.00  0.00     0.041 H 
ATOM     17  H9  <0> d           2.454  -2.097   1.298  0.00  0.00     0.033 H 
ATOM     18  H10 <0> d           0.703  -2.513   1.319  0.00  0.00     0.033 H 
ATOM     19  H11 <0> d           0.705  -2.645  -1.032  0.00  0.00     0.033 H 
ATOM     20  H12 <0> d           2.456  -2.230  -1.054  0.00  0.00     0.033 H 
ENDROOT
TORSDOF 0
