REMARK  2 active torsions:
REMARK  status: ('A' for Active; 'I' for Inactive)
REMARK    1  A    between atoms: C2_2  and  C3_3 
REMARK    2  A    between atoms: C3_3  and  C4_4 
ROOT
ATOM      1  C4  <0> d           1.370  -1.717   1.161  0.00  0.00    -0.051 C 
ATOM      2  C5  <0> d           1.432  -0.940   2.492  0.00  0.00    -0.061 C 
ATOM      3  C6  <0> d           2.379  -1.784   3.381  0.00  0.00    -0.065 C 
ATOM      4  C7  <0> d           3.450  -2.272   2.374  0.00  0.00    -0.065 C 
ATOM      5  C8  <0> d           2.652  -2.564   1.086  0.00  0.00    -0.061 C 
ATOM      6  H6  <0> d           0.493  -2.365   1.147  0.00  0.00     0.040 H 
ATOM      7  H7  <0> d           1.846   0.056   2.333  0.00  0.00     0.033 H 
ATOM      8  H8  <0> d           0.442  -0.875   2.943  0.00  0.00     0.033 H 
ATOM      9  H9  <0> d           2.831  -1.168   4.158  0.00  0.00     0.033 H 
ATOM     10  H10 <0> d           1.846  -2.629   3.818  0.00  0.00     0.033 H 
ATOM     11  H11 <0> d           4.189  -1.491   2.196  0.00  0.00     0.033 H 
ATOM     12  H12 <0> d           3.931  -3.179   2.739  0.00  0.00     0.033 H 
ATOM     13  H13 <0> d           2.398  -3.623   1.037  0.00  0.00     0.033 H 
ATOM     14  H14 <0> d           3.237  -2.279   0.212  0.00  0.00     0.033 H 
ENDROOT
BRANCH   1  15
ATOM     15  C3  <0> d           1.317  -0.740  -0.015  0.00  0.00    -0.047 C 
ATOM     16  H4  <0> d           1.413  -1.291  -0.950  0.00  0.00     0.039 H 
ATOM     17  H5  <0> d           2.135  -0.024   0.071  0.00  0.00     0.039 H 
BRANCH  15  18
ATOM     18  C2  <0> d           0.002  -0.004   0.002  0.00  0.00    -0.111 C 
ATOM     19  C1  <0> d          -0.016   1.306   0.009  0.00  0.00    -0.125 C 
ATOM     20  H1  <0> d           0.912   1.859   0.003  0.00  0.00     0.066 H 
ATOM     21  H2  <0> d          -0.958   1.833   0.017  0.00  0.00     0.066 H 
ATOM     22  H3  <0> d          -0.926  -0.557   0.008  0.00  0.00     0.075 H 
ENDBRANCH  15  18
ENDBRANCH   1  15
TORSDOF 2
