REMARK  3 active torsions:
REMARK  status: ('A' for Active; 'I' for Inactive)
REMARK    1  A    between atoms: C1_1  and  C2_2 
REMARK    2  A    between atoms: C2_2  and  C3_3 
REMARK    3  A    between atoms: C7_7  and  C8_9 
ROOT
ATOM      1  C3  <0> d           0.002  -0.004   0.002  0.00  0.00     0.034 A 
ATOM      2  C4  <0> d           1.199  -0.695  -0.013  0.00  0.00    -0.059 A 
ATOM      3  C5  <0> d           2.389   0.016  -0.021  0.00  0.00    -0.079 A 
ATOM      4  C6  <0> d           2.330   1.402  -0.013  0.00  0.00    -0.059 A 
ATOM      5  C7  <0> d           1.096   2.023   0.003  0.00  0.00     0.031 A 
ATOM      6  N1  <0> d          -0.016   1.314   0.009  0.00  0.00    -0.258 NA
ATOM      7  H6  <0> d           1.207  -1.775  -0.019  0.00  0.00     0.086 H 
ATOM      8  H7  <0> d           3.340  -0.497  -0.033  0.00  0.00     0.083 H 
ATOM      9  H8  <0> d           3.238   1.988  -0.018  0.00  0.00     0.086 H 
ENDROOT
BRANCH   1  10
ATOM     10  C2  <0> d          -1.298  -0.767   0.011  0.00  0.00    -0.028 C 
ATOM     11  H4  <0> d          -1.840  -0.571  -0.914  0.00  0.00     0.041 H 
ATOM     12  H5  <0> d          -1.092  -1.834   0.093  0.00  0.00     0.041 H 
BRANCH  10  13
ATOM     13  C1  <0> d          -2.144  -0.317   1.203  0.00  0.00    -0.071 C 
ATOM     14  H1  <0> d          -2.350   0.750   1.122  0.00  0.00     0.028 H 
ATOM     15  H2  <0> d          -3.085  -0.869   1.210  0.00  0.00     0.028 H 
ATOM     16  H3  <0> d          -1.602  -0.513   2.128  0.00  0.00     0.028 H 
ENDBRANCH  10  13
ENDBRANCH   1  10
BRANCH   5  17
ATOM     17  C8  <0> d           1.020   3.528   0.011  0.00  0.00    -0.035 C 
ATOM     18  H9  <0> d           1.012   3.885   1.041  0.00  0.00     0.035 H 
ATOM     19  H10 <0> d           1.886   3.939  -0.509  0.00  0.00     0.035 H 
ATOM     20  H11 <0> d           0.108   3.849  -0.492  0.00  0.00     0.035 H 
ENDBRANCH   5  17
TORSDOF 3
