REMARK  5 active torsions:
REMARK  status: ('A' for Active; 'I' for Inactive)
REMARK    1  A    between atoms: C1_1  and  C2_2 
REMARK    2  A    between atoms: C2_2  and  C3_3 
REMARK    3  A    between atoms: C6_6  and  O2_11 
REMARK    4  A    between atoms: C7_7  and  O1_9 
REMARK    5  A    between atoms: O1_9  and  C9_10 
ROOT
ATOM      1  C3  <0> d          -0.718   1.572   1.248  0.00  0.00    -0.056 A 
ATOM      2  C4  <0> d          -0.359   2.779   1.817  0.00  0.00    -0.074 A 
ATOM      3  C5  <0> d          -1.006   3.232   2.952  0.00  0.00    -0.048 A 
ATOM      4  C6  <0> d          -2.011   2.470   3.526  0.00  0.00     0.099 A 
ATOM      5  C7  <0> d          -2.369   1.252   2.957  0.00  0.00     0.101 A 
ATOM      6  C8  <0> d          -1.719   0.807   1.817  0.00  0.00    -0.042 A 
ATOM      7  H6  <0> d           0.427   3.372   1.373  0.00  0.00     0.084 H 
ATOM      8  H7  <0> d          -0.727   4.178   3.392  0.00  0.00     0.087 H 
ATOM      9  H8  <0> d          -1.995  -0.138   1.372  0.00  0.00     0.088 H 
ENDROOT
BRANCH   1  10
ATOM     10  C2  <0> d          -0.013   1.086   0.008  0.00  0.00    -0.044 C 
ATOM     11  H4  <0> d           0.002  -0.004   0.002  0.00  0.00     0.039 H 
ATOM     12  H5  <0> d           1.010   1.463   0.000  0.00  0.00     0.039 H 
BRANCH  10  13
ATOM     13  C1  <0> d          -0.753   1.593  -1.232  0.00  0.00    -0.073 C 
ATOM     14  H1  <0> d          -0.242   1.241  -2.128  0.00  0.00     0.028 H 
ATOM     15  H2  <0> d          -1.775   1.215  -1.224  0.00  0.00     0.028 H 
ATOM     16  H3  <0> d          -0.767   2.683  -1.226  0.00  0.00     0.028 H 
ENDBRANCH  10  13
ENDBRANCH   1  10
BRANCH   5  17
ATOM     17  O1  <0> d          -3.354   0.501   3.517  0.00  0.00    -0.353 OA
BRANCH  17  18
ATOM     18  C9  <0> d          -3.669  -0.738   2.877  0.00  0.00     0.010 C 
ATOM     19  H9  <0> d          -3.992  -0.547   1.854  0.00  0.00     0.066 H 
ATOM     20  H10 <0> d          -2.785  -1.376   2.866  0.00  0.00     0.066 H 
ATOM     21  H11 <0> d          -4.469  -1.236   3.424  0.00  0.00     0.066 H 
ENDBRANCH  17  18
ENDBRANCH   5  17
BRANCH   4  22
ATOM     22  O2  <0> d          -2.646   2.912   4.645  0.00  0.00    -0.358 OA
ATOM     23  H12 <0> d          -2.230   2.628   5.471  0.00  0.00     0.217 HD
ENDBRANCH   4  22
TORSDOF 5
