REMARK  2 active torsions:
REMARK  status: ('A' for Active; 'I' for Inactive)
REMARK    1  A    between atoms: C1_1  and  C2_2 
REMARK    2  A    between atoms: C4_4  and  C7_11 
ROOT
ATOM      1  C2  <0> d           1.152   1.781   0.001  0.00  0.00    -0.056 A 
ATOM      2  C3  <0> d           1.116   3.184   0.009  0.00  0.00    -0.053 A 
ATOM      3  C4  <0> d          -0.069   3.834   0.023  0.00  0.00     0.036 A 
ATOM      4  N1  <0> d          -1.237   3.139   0.031  0.00  0.00    -0.199 N 
ATOM      5  C5  <0> d          -1.235   1.771   0.018  0.00  0.00     0.176 A 
ATOM      6  C6  <0> d          -0.013   1.076   0.008  0.00  0.00    -0.029 A 
ATOM      7  N2  <0> d          -2.505   1.389   0.035  0.00  0.00    -0.109 NA
ATOM      8  N3  <0> d          -3.277   2.416   0.048  0.00  0.00    -0.022 NA
ATOM      9  N4  <0> d          -2.589   3.507   0.047  0.00  0.00    -0.039 NA
ATOM     10  H4  <0> d           2.038   3.746   0.002  0.00  0.00     0.087 H 
ATOM     11  H5  <0> d           0.002  -0.004   0.002  0.00  0.00     0.090 H 
ENDROOT
BRANCH   1  12
ATOM     12  C1  <0> d           2.474   1.058  -0.015  0.00  0.00    -0.051 C 
ATOM     13  H1  <0> d           2.784   0.889  -1.047  0.00  0.00     0.033 H 
ATOM     14  H2  <0> d           3.225   1.662   0.494  0.00  0.00     0.033 H 
ATOM     15  H3  <0> d           2.371   0.100   0.494  0.00  0.00     0.033 H 
ENDBRANCH   1  12
BRANCH   3  16
ATOM     16  C7  <0> d          -0.095   5.341   0.032  0.00  0.00    -0.035 C 
ATOM     17  H6  <0> d          -0.111   5.710  -0.994  0.00  0.00     0.035 H 
ATOM     18  H7  <0> d          -0.986   5.686   0.556  0.00  0.00     0.035 H 
ATOM     19  H8  <0> d           0.793   5.717   0.539  0.00  0.00     0.035 H 
ENDBRANCH   3  16
TORSDOF 2
