REMARK  2 active torsions:
REMARK  status: ('A' for Active; 'I' for Inactive)
REMARK    1  A    between atoms: C1_1  and  C2_2 
REMARK    2  A    between atoms: C10_11  and  O1_12 
ROOT
ATOM      1  C2  <0> d           1.190   1.778   0.000  0.00  0.00    -0.026 A 
ATOM      2  C3  <0> d          -0.013   1.076   0.008  0.00  0.00    -0.074 A 
ATOM      3  C4  <0> d          -1.206   1.731   0.017  0.00  0.00    -0.070 A 
ATOM      4  C5  <0> d          -1.230   3.135   0.031  0.00  0.00    -0.004 A 
ATOM      5  C6  <0> d          -2.445   3.847   0.046  0.00  0.00    -0.069 A 
ATOM      6  C7  <0> d          -2.391   5.212   0.053  0.00  0.00    -0.065 A 
ATOM      7  C8  <0> d          -1.157   5.859   0.046  0.00  0.00     0.003 A 
ATOM      8  N1  <0> d          -0.029   5.192   0.032  0.00  0.00    -0.257 NA
ATOM      9  C9  <0> d          -0.011   3.857   0.023  0.00  0.00     0.100 A 
ATOM     10  C10 <0> d           1.206   3.144   0.008  0.00  0.00     0.101 A 
ATOM     11  H4  <0> d           0.002  -0.004   0.002  0.00  0.00     0.084 H 
ATOM     12  H5  <0> d          -2.131   1.173   0.019  0.00  0.00     0.084 H 
ATOM     13  H6  <0> d          -3.392   3.329   0.052  0.00  0.00     0.085 H 
ATOM     14  H7  <0> d          -3.304   5.788   0.066  0.00  0.00     0.085 H 
ATOM     15  H8  <0> d          -1.130   6.939   0.052  0.00  0.00     0.114 H 
ENDROOT
BRANCH   1  16
ATOM     16  C1  <0> d           2.492   1.021  -0.016  0.00  0.00    -0.049 C 
ATOM     17  H1  <0> d           2.796   0.844  -1.048  0.00  0.00     0.033 H 
ATOM     18  H2  <0> d           3.259   1.604   0.493  0.00  0.00     0.033 H 
ATOM     19  H3  <0> d           2.363   0.066   0.494  0.00  0.00     0.033 H 
ENDBRANCH   1  16
BRANCH  10  20
ATOM     20  O1  <0> d           2.389   3.813   0.000  0.00  0.00    -0.358 OA
ATOM     21  H9  <0> d           2.722   4.011  -0.885  0.00  0.00     0.217 HD
ENDBRANCH  10  20
TORSDOF 2
