REMARK  4 active torsions:
REMARK  status: ('A' for Active; 'I' for Inactive)
REMARK    1  A    between atoms: C1_1  and  C2_2 
REMARK    2  A    between atoms: C3_3  and  C6_9 
REMARK    3  A    between atoms: C4_4  and  C5_8 
REMARK    4  A    between atoms: C6_9  and  C7_10 
ROOT
ATOM      1  C2  <0> d          -3.054   0.413   1.113  0.00  0.00     0.033 A 
ATOM      2  C3  <0> d          -2.462   0.945   0.019  0.00  0.00     0.001 A 
ATOM      3  C4  <0> d          -3.089   0.412  -1.112  0.00  0.00     0.059 A 
ATOM      4  N1  <0> d          -4.019  -0.416  -0.711  0.00  0.00    -0.179 NA
ATOM      5  N2  <0> d          -4.019  -0.430   0.689  0.00  0.00    -0.282 N 
ATOM      6  H1  <0> d          -4.627  -0.969   1.272  0.00  0.00     0.189 HD
ENDROOT
BRANCH   2   7
ATOM      7  C6  <0> d          -1.329   1.940   0.019  0.00  0.00     0.043 C 
ATOM      8  H8  <0> d          -1.391   2.561   0.913  0.00  0.00     0.056 H 
ATOM      9  H9  <0> d          -1.400   2.570  -0.867  0.00  0.00     0.056 H 
BRANCH   7  10
ATOM     10  C7  <0> d          -0.014   1.204   0.009  0.00  0.00     0.177 C 
ATOM     11  O1  <0> d           0.002  -0.004   0.002  0.00  0.00    -0.648 OA
ATOM     12  O2  <0> d           1.139   1.891   0.001  0.00  0.00    -0.648 OA
ENDBRANCH   7  10
ENDBRANCH   2   7
BRANCH   1  13
ATOM     13  C1  <0> d          -2.701   0.710   2.548  0.00  0.00    -0.035 C 
ATOM     14  H2  <0> d          -3.293   1.554   2.901  0.00  0.00     0.035 H 
ATOM     15  H3  <0> d          -2.912  -0.165   3.162  0.00  0.00     0.035 H 
ATOM     16  H4  <0> d          -1.641   0.956   2.617  0.00  0.00     0.035 H 
ENDBRANCH   1  13
BRANCH   3  17
ATOM     17  C5  <0> d          -2.750   0.735  -2.545  0.00  0.00    -0.033 C 
ATOM     18  H5  <0> d          -1.990   0.040  -2.903  0.00  0.00     0.035 H 
ATOM     19  H6  <0> d          -3.645   0.642  -3.159  0.00  0.00     0.035 H 
ATOM     20  H7  <0> d          -2.369   1.754  -2.608  0.00  0.00     0.035 H 
ENDBRANCH   3  17
TORSDOF 4
