REMARK  7 active torsions:
REMARK  status: ('A' for Active; 'I' for Inactive)
REMARK    1  A    between atoms: C1_1  and  C2_2 
REMARK    2  A    between atoms: C2_2  and  C3_3 
REMARK    3  A    between atoms: C2_2  and  C4_4 
REMARK    4  A    between atoms: C2_2  and  C5_5 
REMARK    5  A    between atoms: C5_5  and  C6_6 
REMARK    6  A    between atoms: C5_5  and  C7_7 
REMARK    7  A    between atoms: C5_5  and  C8_8 
REMARK       I    between atoms: C8_8  and  N1_10 
ROOT
ATOM      1  C5  <0> d          -1.208   3.131   0.025  0.00  0.00     0.040 C 
ENDROOT
BRANCH   1   2
ATOM      2  C2  <0> d          -2.657   3.621   0.034  0.00  0.00    -0.036 C 
BRANCH   2   3
ATOM      3  C1  <0> d          -3.365   3.094   1.284  0.00  0.00    -0.069 C 
ATOM      4  H1  <0> d          -2.852   3.460   2.174  0.00  0.00     0.028 H 
ATOM      5  H2  <0> d          -4.398   3.444   1.291  0.00  0.00     0.028 H 
ATOM      6  H3  <0> d          -3.351   2.005   1.278  0.00  0.00     0.028 H 
ENDBRANCH   2   3
BRANCH   2   7
ATOM      7  C3  <0> d          -2.678   5.151   0.043  0.00  0.00    -0.069 C 
ATOM      8  H4  <0> d          -2.173   5.526  -0.848  0.00  0.00     0.028 H 
ATOM      9  H5  <0> d          -3.710   5.500   0.050  0.00  0.00     0.028 H 
ATOM     10  H6  <0> d          -2.165   5.516   0.932  0.00  0.00     0.028 H 
ENDBRANCH   2   7
BRANCH   2  11
ATOM     11  C4  <0> d          -3.377   3.108  -1.214  0.00  0.00    -0.069 C 
ATOM     12  H7  <0> d          -3.362   2.018  -1.220  0.00  0.00     0.028 H 
ATOM     13  H8  <0> d          -4.410   3.457  -1.208  0.00  0.00     0.028 H 
ATOM     14  H9  <0> d          -2.873   3.483  -2.105  0.00  0.00     0.028 H 
ENDBRANCH   2  11
ENDBRANCH   1   2
BRANCH   1  15
ATOM     15  C6  <0> d          -0.488   3.644   1.273  0.00  0.00    -0.060 C 
ATOM     16  H10 <0> d           0.545   3.294   1.267  0.00  0.00     0.029 H 
ATOM     17  H11 <0> d          -0.502   4.734   1.279  0.00  0.00     0.029 H 
ATOM     18  H12 <0> d          -0.992   3.268   2.164  0.00  0.00     0.029 H 
ENDBRANCH   1  15
BRANCH   1  19
ATOM     19  C7  <0> d          -0.499   3.657  -1.225  0.00  0.00    -0.060 C 
ATOM     20  H13 <0> d          -1.012   3.292  -2.115  0.00  0.00     0.029 H 
ATOM     21  H14 <0> d          -0.514   4.747  -1.219  0.00  0.00     0.029 H 
ATOM     22  H15 <0> d           0.533   3.308  -1.232  0.00  0.00     0.029 H 
ENDBRANCH   1  19
BRANCH   1  23
ATOM     23  C8  <0> d          -1.187   1.624   0.017  0.00  0.00     0.224 C 
ATOM     24  O1  <0> d          -2.229   1.003   0.018  0.00  0.00    -0.273 OA
ATOM     25  N1  <0> d          -0.011   0.966   0.007  0.00  0.00    -0.369 N 
ATOM     26  H16 <0> d           0.002  -0.004   0.002  0.00  0.00     0.159 HD
ATOM     27  H17 <0> d           0.822   1.462   0.002  0.00  0.00     0.159 HD
ENDBRANCH   1  23
TORSDOF 7
