REMARK  3 active torsions:
REMARK  status: ('A' for Active; 'I' for Inactive)
REMARK    1  A    between atoms: C1_1  and  O1_2 
REMARK    2  A    between atoms: O1_2  and  C2_3 
REMARK    3  A    between atoms: C2_3  and  C3_5 
ROOT
ATOM      1  C3  <0> d          -1.329   1.940   0.019  0.00  0.00     0.034 C 
ATOM      2  C4  <0> d          -1.423   2.804   1.280  0.00  0.00    -0.033 C 
ATOM      3  C5  <0> d          -2.793   3.486   1.321  0.00  0.00     0.020 C 
ATOM      4  O3  <0> d          -3.820   2.492   1.287  0.00  0.00    -0.391 OA
ATOM      5  C6  <0> d          -3.811   1.684   0.109  0.00  0.00     0.020 C 
ATOM      6  C7  <0> d          -2.481   0.930   0.019  0.00  0.00    -0.033 C 
ATOM      7  H4  <0> d          -1.400   2.573  -0.865  0.00  0.00     0.055 H 
ATOM      8  H5  <0> d          -1.302   2.176   2.162  0.00  0.00     0.037 H 
ATOM      9  H6  <0> d          -0.640   3.562   1.261  0.00  0.00     0.037 H 
ATOM     10  H7  <0> d          -2.897   4.146   0.459  0.00  0.00     0.074 H 
ATOM     11  H8  <0> d          -2.882   4.069   2.238  0.00  0.00     0.074 H 
ATOM     12  H9  <0> d          -3.928   2.320  -0.769  0.00  0.00     0.074 H 
ATOM     13  H10 <0> d          -4.632   0.969   0.152  0.00  0.00     0.074 H 
ATOM     14  H11 <0> d          -2.455   0.347  -0.902  0.00  0.00     0.037 H 
ATOM     15  H12 <0> d          -2.382   0.264   0.876  0.00  0.00     0.037 H 
ENDROOT
BRANCH   1  16
ATOM     16  C2  <0> d          -0.014   1.204   0.009  0.00  0.00     0.262 C 
ATOM     17  O2  <0> d           0.002  -0.004   0.002  0.00  0.00    -0.265 OA
BRANCH  16  18
ATOM     18  O1  <0> d           1.139   1.891   0.001  0.00  0.00    -0.326 OA
BRANCH  18  19
ATOM     19  C1  <0> d           2.367   1.117  -0.015  0.00  0.00     0.013 C 
ATOM     20  H1  <0> d           3.223   1.792  -0.019  0.00  0.00     0.067 H 
ATOM     21  H2  <0> d           2.409   0.484   0.872  0.00  0.00     0.067 H 
ATOM     22  H3  <0> d           2.392   0.493  -0.908  0.00  0.00     0.067 H 
ENDBRANCH  18  19
ENDBRANCH  16  18
ENDBRANCH   1  16
TORSDOF 3
