REMARK  3 active torsions:
REMARK  status: ('A' for Active; 'I' for Inactive)
REMARK    1  A    between atoms: C1_1  and  C2_2 
REMARK    2  A    between atoms: C5_6  and  O2_11 
REMARK    3  A    between atoms: C6_8  and  O1_10 
ROOT
ATOM      1  C2  <0> d           1.477   1.939  -0.002  0.00  0.00    -0.030 C 
ATOM      2  H1  <0> d           1.904   1.868   0.999  0.00  0.00     0.043 H 
ATOM      3  C3  <0> d          -0.019   1.538   0.011  0.00  0.00    -0.057 C 
ATOM      4  C4  <0> d           0.002  -0.004   0.002  0.00  0.00    -0.038 C 
ATOM      5  C5  <0> d           1.353  -0.422  -0.604  0.00  0.00     0.060 C 
ATOM      6  H2  <0> d           1.923  -1.005   0.120  0.00  0.00     0.086 H 
ATOM      7  C6  <0> d           2.107   0.881  -0.942  0.00  0.00     0.063 C 
ATOM      8  H3  <0> d           1.946   1.155  -1.985  0.00  0.00     0.087 H 
ATOM      9  H7  <0> d          -0.522   1.918  -0.878  0.00  0.00     0.033 H 
ATOM     10  H8  <0> d          -0.505   1.908   0.913  0.00  0.00     0.033 H 
ATOM     11  H9  <0> d          -0.084  -0.384   1.020  0.00  0.00     0.036 H 
ATOM     12  H10 <0> d          -0.816  -0.385  -0.609  0.00  0.00     0.036 H 
ENDROOT
BRANCH   1  13
ATOM     13  C1  <0> d           1.657   3.347  -0.572  0.00  0.00    -0.070 C 
ATOM     14  H4  <0> d           1.129   4.064   0.057  0.00  0.00     0.028 H 
ATOM     15  H5  <0> d           2.718   3.597  -0.595  0.00  0.00     0.028 H 
ATOM     16  H6  <0> d           1.254   3.384  -1.584  0.00  0.00     0.028 H 
ENDBRANCH   1  13
BRANCH   7  17
ATOM     17  O1  <0> d           3.502   0.737  -0.671  0.00  0.00    -0.393 OA
ATOM     18  H11 <0> d           3.935   0.047  -1.191  0.00  0.00     0.210 HD
ENDBRANCH   7  17
BRANCH   5  19
ATOM     19  O2  <0> d           1.141  -1.189  -1.791  0.00  0.00    -0.393 OA
ATOM     20  H12 <0> d           0.654  -2.011  -1.646  0.00  0.00     0.210 HD
ENDBRANCH   5  19
TORSDOF 3
