REMARK  4 active torsions:
REMARK  status: ('A' for Active; 'I' for Inactive)
REMARK    1  A    between atoms: C1_1  and  C2_2 
REMARK    2  A    between atoms: C2_2  and  O2_4 
REMARK    3  A    between atoms: O2_4  and  C3_5 
REMARK    4  A    between atoms: C4_6  and  N1_10 
ROOT
ATOM      1  C3  <0> d          -2.316   1.107   0.019  0.00  0.00     0.146 A 
ATOM      2  C4  <0> d          -3.618   1.510   0.033  0.00  0.00     0.067 A 
ATOM      3  C5  <0> d          -4.613   0.546   0.026  0.00  0.00    -0.048 A 
ATOM      4  C6  <0> d          -4.261  -0.763   0.018  0.00  0.00    -0.040 A 
ATOM      5  S1  <0> d          -2.479  -0.671   0.011  0.00  0.00    -0.074 SA
ATOM      6  H4  <0> d          -5.654   0.834   0.033  0.00  0.00     0.087 H 
ATOM      7  H5  <0> d          -4.896  -1.636   0.016  0.00  0.00     0.095 H 
ENDROOT
BRANCH   1   8
ATOM      8  O2  <0> d          -1.185   1.863   0.018  0.00  0.00    -0.269 OA
BRANCH   8   9
ATOM      9  C2  <0> d          -0.014   1.208   0.009  0.00  0.00     0.260 C 
ATOM     10  O1  <0> d           0.002  -0.004   0.002  0.00  0.00    -0.265 OA
BRANCH   9  11
ATOM     11  C1  <0> d           1.280   1.979   0.001  0.00  0.00     0.004 C 
ATOM     12  H1  <0> d           1.583   2.171  -1.029  0.00  0.00     0.041 H 
ATOM     13  H2  <0> d           1.142   2.927   0.521  0.00  0.00     0.041 H 
ATOM     14  H3  <0> d           2.053   1.398   0.504  0.00  0.00     0.041 H 
ENDBRANCH   9  11
ENDBRANCH   8   9
ENDBRANCH   1   8
BRANCH   2  15
ATOM     15  N1  <0> d          -3.946   2.883   0.049  0.00  0.00    -0.396 N 
ATOM     16  H6  <0> d          -3.241   3.550   0.050  0.00  0.00     0.156 HD
ATOM     17  H7  <0> d          -4.875   3.159   0.059  0.00  0.00     0.156 HD
ENDBRANCH   2  15
TORSDOF 4
