REMARK  3 active torsions:
REMARK  status: ('A' for Active; 'I' for Inactive)
REMARK    1  A    between atoms: C2_2  and  C5_10 
REMARK    2  A    between atoms: C3_3  and  N3_9 
REMARK    3  A    between atoms: C5_10  and  O2_11 
ROOT
ATOM      1  C1  <0> d          -0.078   3.639   0.022  0.00  0.00    -0.007 A 
ATOM      2  C2  <0> d           1.147   3.062   0.008  0.00  0.00     0.021 A 
ATOM      3  C3  <0> d           2.290   3.888   0.007  0.00  0.00     0.116 A 
ATOM      4  N1  <0> d           2.147   5.206   0.011  0.00  0.00    -0.182 NA
ATOM      5  C4  <0> d           0.935   5.759   0.025  0.00  0.00     0.347 A 
ATOM      6  O1  <0> d           0.830   6.974   0.033  0.00  0.00    -0.245 OA
ATOM      7  N2  <0> d          -0.175   4.998   0.031  0.00  0.00    -0.317 N 
ATOM      8  H1  <0> d          -1.075   5.433   0.042  0.00  0.00     0.170 HD
ATOM      9  H2  <0> d          -0.969   3.028   0.027  0.00  0.00     0.112 H 
ENDROOT
BRANCH   2  10
ATOM     10  C5  <0> d           1.286   1.562  -0.002  0.00  0.00     0.045 C 
ATOM     11  H5  <0> d           1.840   1.243   0.881  0.00  0.00     0.081 H 
ATOM     12  H6  <0> d           1.823   1.252  -0.899  0.00  0.00     0.081 H 
BRANCH  10  13
ATOM     13  O2  <0> d          -0.011   0.963   0.007  0.00  0.00    -0.396 OA
ATOM     14  H7  <0> d           0.002  -0.004   0.002  0.00  0.00     0.209 HD
ENDBRANCH  10  13
ENDBRANCH   2  10
BRANCH   3  15
ATOM     15  N3  <0> d           3.547   3.328  -0.003  0.00  0.00    -0.286 NA
ATOM     16  H3  <0> d           3.664   2.757   0.810  0.00  0.00     0.125 HD
ATOM     17  H4  <0> d           4.332   3.898  -0.003  0.00  0.00     0.125 HD
ENDBRANCH   3  15
TORSDOF 3
