REMARK  3 active torsions:
REMARK  status: ('A' for Active; 'I' for Inactive)
REMARK    1  A    between atoms: C1_1  and  C2_2 
REMARK    2  A    between atoms: C4_5  and  C6_10 
REMARK    3  A    between atoms: C6_10  and  O2_11 
ROOT
ATOM      1  C2  <0> d           2.864   3.989  -1.399  0.00  0.00     0.022 C 
ATOM      2  H1  <0> d           3.447   3.160  -1.799  0.00  0.00     0.054 H 
ATOM      3  C3  <0> d           2.536   3.751   0.093  0.00  0.00    -0.033 C 
ATOM      4  C4  <0> d           1.145   3.085   0.008  0.00  0.00     0.033 C 
ATOM      5  H2  <0> d           0.524   3.401   0.846  0.00  0.00     0.075 H 
ATOM      6  N1  <0> d           0.564   3.549  -1.258  0.00  0.00    -0.354 N 
ATOM      7  C5  <0> d           1.510   4.057  -2.070  0.00  0.00     0.221 C 
ATOM      8  O1  <0> d           1.306   4.504  -3.179  0.00  0.00    -0.273 OA
ATOM      9  H6  <0> d           2.485   4.694   0.637  0.00  0.00     0.037 H 
ATOM     10  H7  <0> d           3.263   3.079   0.550  0.00  0.00     0.037 H 
ATOM     11  H8  <0> d          -0.379   3.497  -1.479  0.00  0.00     0.162 HD
ENDROOT
BRANCH   4  12
ATOM     12  C6  <0> d           1.286   1.562  -0.002  0.00  0.00     0.035 C 
ATOM     13  H9  <0> d           1.840   1.243   0.881  0.00  0.00     0.077 H 
ATOM     14  H10 <0> d           1.823   1.252  -0.899  0.00  0.00     0.077 H 
BRANCH  12  15
ATOM     15  O2  <0> d          -0.011   0.963   0.007  0.00  0.00    -0.399 OA
ATOM     16  H11 <0> d           0.002  -0.004   0.002  0.00  0.00     0.209 HD
ENDBRANCH  12  15
ENDBRANCH   4  12
BRANCH   1  17
ATOM     17  C1  <0> d           3.620   5.308  -1.577  0.00  0.00    -0.065 C 
ATOM     18  H3  <0> d           4.551   5.272  -1.011  0.00  0.00     0.028 H 
ATOM     19  H4  <0> d           3.842   5.459  -2.633  0.00  0.00     0.028 H 
ATOM     20  H5  <0> d           3.005   6.131  -1.214  0.00  0.00     0.028 H 
ENDBRANCH   1  17
TORSDOF 3
