REMARK  1 active torsions:
REMARK  status: ('A' for Active; 'I' for Inactive)
REMARK    1  A    between atoms: C5_5  and  N1_7 
REMARK       I    between atoms: N1_7  and  C7_8 
REMARK       I    between atoms: C7_8  and  N2_10 
ROOT
ATOM      1  C1  <0> d          -3.673  -0.840  -0.160  0.00  0.00    -0.081 A 
ATOM      2  C2  <0> d          -4.847  -0.115  -0.245  0.00  0.00    -0.080 A 
ATOM      3  C3  <0> d          -4.813   1.267  -0.243  0.00  0.00    -0.043 A 
ATOM      4  C4  <0> d          -3.602   1.929  -0.156  0.00  0.00     0.143 A 
ATOM      5  C5  <0> d          -2.419   1.203  -0.070  0.00  0.00     0.075 A 
ATOM      6  C6  <0> d          -2.459  -0.184  -0.077  0.00  0.00    -0.054 A 
ATOM      7  F1  <0> d          -3.568   3.280  -0.155  0.00  0.00    -0.204 F 
ATOM      8  H1  <0> d          -3.704  -1.919  -0.162  0.00  0.00     0.083 H 
ATOM      9  H2  <0> d          -5.794  -0.630  -0.313  0.00  0.00     0.083 H 
ATOM     10  H3  <0> d          -5.732   1.830  -0.311  0.00  0.00     0.088 H 
ATOM     11  H4  <0> d          -1.542  -0.752  -0.015  0.00  0.00     0.087 H 
ENDROOT
BRANCH   5  12
ATOM     12  N1  <0> d          -1.191   1.870   0.018  0.00  0.00    -0.306 N 
ATOM     13  C7  <0> d          -0.097   1.348  -0.573  0.00  0.00     0.318 C 
ATOM     14  O1  <0> d          -0.158   0.260  -1.112  0.00  0.00    -0.247 OA
ATOM     15  N2  <0> d           1.062   2.035  -0.570  0.00  0.00    -0.352 N 
ATOM     16  H6  <0> d           1.849   1.661  -0.998  0.00  0.00     0.160 HD
ATOM     17  H7  <0> d           1.111   2.903  -0.140  0.00  0.00     0.160 HD
ATOM     18  H5  <0> d          -1.127   2.707   0.504  0.00  0.00     0.171 HD
ENDBRANCH   5  12
TORSDOF 1
