REMARK  1 active torsions:
REMARK  status: ('A' for Active; 'I' for Inactive)
REMARK    1  A    between atoms: C9_10  and  N2_11 
ROOT
ATOM      1  C1  <0> d           1.159   2.087   0.002  0.00  0.00    -0.082 A 
ATOM      2  C2  <0> d           2.382   1.419  -0.012  0.00  0.00    -0.082 A 
ATOM      3  C3  <0> d           2.438   0.058  -0.020  0.00  0.00    -0.070 A 
ATOM      4  C4  <0> d           1.248  -0.681  -0.013  0.00  0.00     0.003 A 
ATOM      5  C5  <0> d           0.002  -0.004   0.002  0.00  0.00    -0.006 A 
ATOM      6  C6  <0> d          -0.017   1.400   0.010  0.00  0.00    -0.071 A 
ATOM      7  C7  <0> d          -1.179  -0.764   0.010  0.00  0.00     0.013 A 
ATOM      8  N1  <0> d          -1.120  -2.075   0.003  0.00  0.00    -0.270 NA
ATOM      9  C8  <0> d           0.023  -2.744  -0.012  0.00  0.00     0.028 A 
ATOM     10  C9  <0> d           1.240  -2.094  -0.021  0.00  0.00     0.054 A 
ATOM     11  H1  <0> d           1.143   3.167   0.008  0.00  0.00     0.083 H 
ATOM     12  H2  <0> d           3.299   1.990  -0.017  0.00  0.00     0.083 H 
ATOM     13  H3  <0> d           3.393  -0.447  -0.032  0.00  0.00     0.084 H 
ATOM     14  H4  <0> d          -0.957   1.931   0.017  0.00  0.00     0.084 H 
ATOM     15  H5  <0> d          -2.138  -0.268   0.022  0.00  0.00     0.116 H 
ATOM     16  H6  <0> d           0.002  -3.824  -0.017  0.00  0.00     0.118 H 
ENDROOT
BRANCH  10  17
ATOM     17  N2  <0> d           2.434  -2.814  -0.035  0.00  0.00    -0.397 N 
ATOM     18  H7  <0> d           3.283  -2.345  -0.041  0.00  0.00     0.156 HD
ATOM     19  H8  <0> d           2.415  -3.784  -0.040  0.00  0.00     0.156 HD
ENDBRANCH  10  17
TORSDOF 1
