REMARK  0 active torsions:
REMARK  status: ('A' for Active; 'I' for Inactive)
ROOT
ATOM      1  C1  <0> d          -0.820  -2.220  -0.655  0.00  0.00    -0.065 C 
ATOM      2  C2  <0> d           0.515  -2.525  -1.325  0.00  0.00    -0.064 C 
ATOM      3  C3  <0> d           1.657  -1.678  -0.728  0.00  0.00    -0.053 C 
ATOM      4  C4  <0> d           1.250  -0.231  -0.900  0.00  0.00     0.028 C 
ATOM      5  H1  <0> d           0.978  -0.054  -1.941  0.00  0.00     0.055 H 
ATOM      6  C5  <0> d           0.002  -0.004   0.002  0.00  0.00    -0.027 C 
ATOM      7  H2  <0> d           0.169  -0.395   1.006  0.00  0.00     0.043 H 
ATOM      8  C6  <0> d          -1.156  -0.717  -0.667  0.00  0.00    -0.059 C 
ATOM      9  C7  <0> d          -0.019   1.524   0.010  0.00  0.00    -0.001 C 
ATOM     10  N1  <0> d           1.418   1.887  -0.001  0.00  0.00    -0.360 N 
ATOM     11  C8  <0> d           2.175   0.848  -0.451  0.00  0.00     0.222 C 
ATOM     12  O1  <0> d           3.387   0.808  -0.481  0.00  0.00    -0.273 OA
ATOM     13  H3  <0> d          -1.609  -2.763  -1.174  0.00  0.00     0.033 H 
ATOM     14  H4  <0> d          -0.782  -2.556   0.381  0.00  0.00     0.033 H 
ATOM     15  H5  <0> d           0.435  -2.313  -2.391  0.00  0.00     0.033 H 
ATOM     16  H6  <0> d           0.748  -3.581  -1.189  0.00  0.00     0.033 H 
ATOM     17  H7  <0> d           2.586  -1.871  -1.265  0.00  0.00     0.034 H 
ATOM     18  H8  <0> d           1.780  -1.908   0.330  0.00  0.00     0.034 H 
ATOM     19  H9  <0> d          -2.077  -0.529  -0.115  0.00  0.00     0.033 H 
ATOM     20  H10 <0> d          -1.260  -0.373  -1.696  0.00  0.00     0.033 H 
ATOM     21  H11 <0> d          -0.519   1.906  -0.879  0.00  0.00     0.064 H 
ATOM     22  H12 <0> d          -0.502   1.896   0.914  0.00  0.00     0.064 H 
ATOM     23  H13 <0> d           1.771   2.748   0.274  0.00  0.00     0.162 HD
ENDROOT
TORSDOF 0
