REMARK  1 active torsions:
REMARK  status: ('A' for Active; 'I' for Inactive)
REMARK    1  A    between atoms: C3_4  and  N3_8 
ROOT
ATOM      1  C1  <0> d           1.223  -0.664  -0.013  0.00  0.00     0.030 A 
ATOM      2  C2  <0> d           0.002  -0.004   0.002  0.00  0.00     0.232 A 
ATOM      3  N1  <0> d          -0.016   1.321   0.009  0.00  0.00    -0.034 NA
ATOM      4  C3  <0> d           1.113   2.015   0.002  0.00  0.00     0.725 A 
ATOM      5  N2  <0> d           2.295   1.417  -0.012  0.00  0.00    -0.034 NA
ATOM      6  C4  <0> d           2.386   0.094  -0.020  0.00  0.00     0.232 A 
ATOM      7  F1  <0> d           3.595  -0.509  -0.035  0.00  0.00    -0.183 F 
ATOM      8  F2  <0> d          -1.154  -0.704   0.009  0.00  0.00    -0.183 F 
ATOM      9  H1  <0> d           1.267  -1.743  -0.019  0.00  0.00     0.098 H 
ENDROOT
BRANCH   4  10
ATOM     10  N3  <0> d           1.056   3.397   0.010  0.00  0.00    -0.231 N 
ATOM     11  H2  <0> d           0.197   3.847   0.020  0.00  0.00     0.174 HD
ATOM     12  H3  <0> d           1.876   3.916   0.005  0.00  0.00     0.174 HD
ENDBRANCH   4  10
TORSDOF 1
