REMARK  0 active torsions:
REMARK  status: ('A' for Active; 'I' for Inactive)
ROOT
ATOM      1  C1  <0> d          -0.547   3.460  -1.558  0.00  0.00    -0.035 C 
ATOM      2  C2  <0> d          -1.584   2.808  -0.687  0.00  0.00    -0.099 C 
ATOM      3  C3  <0> d          -1.311   1.726   0.018  0.00  0.00    -0.086 C 
ATOM      4  C4  <0> d          -0.013   1.076   0.008  0.00  0.00    -0.083 C 
ATOM      5  C5  <0> d           1.159   1.704   0.000  0.00  0.00    -0.083 C 
ATOM      6  C6  <0> d           1.337   3.145   0.006  0.00  0.00    -0.086 C 
ATOM      7  C7  <0> d           0.580   3.967  -0.702  0.00  0.00    -0.099 C 
ATOM      8  H1  <0> d          -0.997   4.294  -2.096  0.00  0.00     0.044 H 
ATOM      9  H2  <0> d          -0.162   2.732  -2.272  0.00  0.00     0.044 H 
ATOM     10  H3  <0> d          -2.576   3.232  -0.641  0.00  0.00     0.076 H 
ATOM     11  H4  <0> d          -2.092   1.308   0.635  0.00  0.00     0.082 H 
ATOM     12  H5  <0> d           0.002  -0.004   0.002  0.00  0.00     0.083 H 
ATOM     13  H6  <0> d           2.050   1.093  -0.012  0.00  0.00     0.083 H 
ATOM     14  H7  <0> d           2.123   3.565   0.616  0.00  0.00     0.082 H 
ATOM     15  H8  <0> d           0.776   5.029  -0.664  0.00  0.00     0.076 H 
ENDROOT
TORSDOF 0
