REMARK  6 active torsions:
REMARK  status: ('A' for Active; 'I' for Inactive)
REMARK    1  A    between atoms: C1_1  and  C2_2 
REMARK    2  A    between atoms: C2_2  and  C4_4 
REMARK    3  A    between atoms: C5_5  and  C6_6 
REMARK    4  A    between atoms: C6_6  and  N1_7 
REMARK    5  A    between atoms: N1_7  and  C7_8 
REMARK    6  A    between atoms: N1_7  and  C8_9 
ROOT
ATOM      1  C6  <0> d          -1.228   5.802   0.039  0.00  0.00     0.166 C 
ATOM      2  H6  <0> d          -0.710   6.171   0.937  0.00  0.00     0.099 H 
ATOM      3  H7  <0> d          -0.718   6.181  -0.859  0.00  0.00     0.099 H 
ENDROOT
BRANCH   1   4
ATOM      4  C5  <0> d          -1.208   4.330   0.031  0.00  0.00    -0.071 C 
ATOM      5  C4  <0> d          -1.192   3.156   0.025  0.00  0.00    -0.071 C 
BRANCH   5   6
ATOM      6  C2  <0> d          -1.172   1.724   0.017  0.00  0.00    -0.018 C 
ATOM      7  C3  <0> d          -0.013   1.076   0.008  0.00  0.00    -0.108 C 
ATOM      8  H4  <0> d           0.932   1.639   0.007  0.00  0.00     0.068 H 
ATOM      9  H5  <0> d           0.002  -0.024   0.002  0.00  0.00     0.068 H 
BRANCH   6  10
ATOM     10  C1  <0> d          -2.467   0.953   0.019  0.00  0.00    -0.045 C 
ATOM     11  H1  <0> d          -3.313   1.657   0.027  0.00  0.00     0.034 H 
ATOM     12  H2  <0> d          -2.512   0.315   0.914  0.00  0.00     0.034 H 
ATOM     13  H3  <0> d          -2.521   0.325  -0.882  0.00  0.00     0.034 H 
ENDBRANCH   6  10
ENDBRANCH   5   6
ENDBRANCH   1   4
BRANCH   1  14
ATOM     14  N1  <0> d          -2.619   6.273   0.049  0.00  0.00     0.090 N 
BRANCH  14  15
ATOM     15  C7  <0> d          -3.290   5.907   1.303  0.00  0.00     0.096 C 
ATOM     16  H8  <0> d          -4.328   6.271   1.283  0.00  0.00     0.071 H 
ATOM     17  H9  <0> d          -2.758   6.364   2.150  0.00  0.00     0.071 H 
ATOM     18  H10 <0> d          -3.287   4.813   1.415  0.00  0.00     0.071 H 
ENDBRANCH  14  15
BRANCH  14  19
ATOM     19  C8  <0> d          -2.686   7.722  -0.181  0.00  0.00     0.096 C 
ATOM     20  H11 <0> d          -3.737   8.047  -0.170  0.00  0.00     0.071 H 
ATOM     21  H12 <0> d          -2.240   7.959  -1.159  0.00  0.00     0.071 H 
ATOM     22  H13 <0> d          -2.131   8.245   0.612  0.00  0.00     0.071 H 
ENDBRANCH  14  19
ENDBRANCH   1  14
TORSDOF 6
