REMARK  1 active torsions:
REMARK  status: ('A' for Active; 'I' for Inactive)
REMARK    1  A    between atoms: C6_7  and  C8_10 
ROOT
ATOM      1  C1  <0> d          -0.019   1.518   0.010  0.00  0.00    -0.064 C 
ATOM      2  C2  <0> d           1.400   2.035  -0.000  0.00  0.00    -0.059 C 
ATOM      3  C3  <0> d           1.838   2.305  -1.452  0.00  0.00    -0.010 C 
ATOM      4  C4  <0> d           1.338   1.227  -2.397  0.00  0.00     0.127 C 
ATOM      5  O1  <0> d           0.899   1.556  -3.472  0.00  0.00    -0.298 OA
ATOM      6  C5  <0> d           1.368  -0.222  -2.051  0.00  0.00     0.003 C 
ATOM      7  C6  <0> d           0.049  -0.615  -1.337  0.00  0.00     0.037 C 
ATOM      8  H1  <0> d          -0.799  -0.264  -1.925  0.00  0.00     0.057 H 
ATOM      9  C7  <0> d           0.002  -0.004   0.002  0.00  0.00    -0.052 C 
ATOM     10  H2  <0> d          -0.527   1.870   0.908  0.00  0.00     0.033 H 
ATOM     11  H3  <0> d          -0.544   1.880  -0.873  0.00  0.00     0.033 H 
ATOM     12  H4  <0> d           1.454   2.960   0.574  0.00  0.00     0.033 H 
ATOM     13  H5  <0> d           2.061   1.292   0.446  0.00  0.00     0.033 H 
ATOM     14  H6  <0> d           1.439   3.269  -1.770  0.00  0.00     0.044 H 
ATOM     15  H7  <0> d           2.926   2.340  -1.496  0.00  0.00     0.044 H 
ATOM     16  H8  <0> d           1.476  -0.811  -2.962  0.00  0.00     0.045 H 
ATOM     17  H9  <0> d           2.211  -0.420  -1.389  0.00  0.00     0.045 H 
ATOM     18  H10 <0> d           0.874  -0.340   0.564  0.00  0.00     0.034 H 
ATOM     19  H11 <0> d          -0.891  -0.363   0.513  0.00  0.00     0.034 H 
ENDROOT
BRANCH   7  20
ATOM     20  C8  <0> d          -0.021  -2.114  -1.203  0.00  0.00     0.177 C 
ATOM     21  O2  <0> d           0.886  -2.807  -1.632  0.00  0.00    -0.648 OA
ATOM     22  O3  <0> d          -0.984  -2.634  -0.667  0.00  0.00    -0.648 OA
ENDBRANCH   7  20
TORSDOF 1
