REMARK  0 active torsions:
REMARK  status: ('A' for Active; 'I' for Inactive)
ROOT
ATOM      1  C1  <0> d          -0.329   3.876  -0.218  0.00  0.00     0.012 C 
ATOM      2  C2  <0> d           0.597   3.563  -1.372  0.00  0.00    -0.088 C 
ATOM      3  C3  <0> d           1.364   2.506  -1.267  0.00  0.00    -0.088 C 
ATOM      4  C4  <0> d           1.261   1.686  -0.001  0.00  0.00     0.012 C 
ATOM      5  N1  <0> d          -0.011   0.966   0.007  0.00  0.00    -0.340 N 
ATOM      6  C5  <0> d          -1.190   1.592   0.017  0.00  0.00     0.316 C 
ATOM      7  O1  <0> d          -2.169   0.904   0.236  0.00  0.00    -0.247 OA
ATOM      8  N2  <0> d          -1.410   2.893  -0.184  0.00  0.00    -0.340 N 
ATOM      9  H1  <0> d           0.229   3.836   0.717  0.00  0.00     0.070 H 
ATOM     10  H2  <0> d          -0.748   4.873  -0.349  0.00  0.00     0.070 H 
ATOM     11  H3  <0> d           0.624   4.188  -2.252  0.00  0.00     0.079 H 
ATOM     12  H4  <0> d           2.046   2.230  -2.057  0.00  0.00     0.079 H 
ATOM     13  H5  <0> d           1.310   2.346   0.865  0.00  0.00     0.070 H 
ATOM     14  H6  <0> d           2.083   0.972   0.039  0.00  0.00     0.070 H 
ATOM     15  H7  <0> d           0.002  -0.004   0.002  0.00  0.00     0.164 HD
ATOM     16  H8  <0> d          -2.321   3.197  -0.316  0.00  0.00     0.164 HD
ENDROOT
TORSDOF 0
