REMARK  2 active torsions:
REMARK  status: ('A' for Active; 'I' for Inactive)
REMARK    1  A    between atoms: C1_1  and  O1_2 
REMARK    2  A    between atoms: O1_2  and  C2_3 
ROOT
ATOM      1  C2  <0> d          -1.252   3.409   0.032  0.00  0.00     0.072 A 
ATOM      2  C3  <0> d          -0.067   4.125   0.025  0.00  0.00    -0.031 A 
ATOM      3  C4  <0> d           1.153   3.449   0.010  0.00  0.00     0.050 A 
ATOM      4  C5  <0> d           1.172   2.052   0.002  0.00  0.00    -0.025 A 
ATOM      5  C6  <0> d          -0.016   1.347   0.009  0.00  0.00     0.120 A 
ATOM      6  C7  <0> d          -1.226   2.021   0.019  0.00  0.00    -0.013 A 
ATOM      7  F1  <0> d           0.002  -0.004   0.002  0.00  0.00    -0.206 F 
ATOM      8  C8  <0> d           2.382   4.184   0.001  0.00  0.00     0.099 C 
ATOM      9  N1  <0> d           3.357   4.766  -0.005  0.00  0.00    -0.191 NA
ATOM     10  H4  <0> d          -0.087   5.205   0.031  0.00  0.00     0.090 H 
ATOM     11  H5  <0> d           2.114   1.524  -0.010  0.00  0.00     0.090 H 
ATOM     12  H6  <0> d          -2.152   1.465   0.020  0.00  0.00     0.092 H 
ENDROOT
BRANCH   1  13
ATOM     13  O1  <0> d          -2.442   4.065   0.047  0.00  0.00    -0.356 OA
BRANCH  13  14
ATOM     14  C1  <0> d          -3.625   3.264   0.054  0.00  0.00     0.010 C 
ATOM     15  H1  <0> d          -3.629   2.630   0.941  0.00  0.00     0.066 H 
ATOM     16  H2  <0> d          -4.502   3.910   0.065  0.00  0.00     0.066 H 
ATOM     17  H3  <0> d          -3.646   2.639  -0.839  0.00  0.00     0.066 H 
ENDBRANCH  13  14
ENDBRANCH   1  13
TORSDOF 2
