REMARK  5 active torsions:
REMARK  status: ('A' for Active; 'I' for Inactive)
REMARK    1  A    between atoms: C1_1  and  C2_2 
REMARK    2  A    between atoms: C2_2  and  C3_3 
REMARK    3  A    between atoms: C2_2  and  C4_4 
REMARK    4  A    between atoms: C4_4  and  O1_6 
REMARK    5  A    between atoms: C4_4  and  S1_7 
ROOT
ATOM      1  C2  <0> d          -0.013   1.086   0.008  0.00  0.00    -0.020 C 
ATOM      2  H5  <0> d           0.002  -0.004   0.002  0.00  0.00     0.044 H 
ENDROOT
BRANCH   1   3
ATOM      3  C1  <0> d           1.423   1.615  -0.003  0.00  0.00    -0.070 C 
ATOM      4  H2  <0> d           1.408   2.705   0.003  0.00  0.00     0.028 H 
ATOM      5  H3  <0> d           1.950   1.254   0.880  0.00  0.00     0.028 H 
ATOM      6  H4  <0> d           1.933   1.264  -0.900  0.00  0.00     0.028 H 
ENDBRANCH   1   3
BRANCH   1   7
ATOM      7  C3  <0> d          -0.753   1.593  -1.232  0.00  0.00    -0.070 C 
ATOM      8  H6  <0> d          -0.242   1.241  -2.128  0.00  0.00     0.028 H 
ATOM      9  H7  <0> d          -1.775   1.215  -1.224  0.00  0.00     0.028 H 
ATOM     10  H8  <0> d          -0.767   2.683  -1.226  0.00  0.00     0.028 H 
ENDBRANCH   1   7
BRANCH   1  11
ATOM     11  C4  <0> d          -0.729   1.579   1.267  0.00  0.00     0.152 C 
ATOM     12  H1  <0> d          -0.822   2.665   1.230  0.00  0.00     0.112 H 
BRANCH  11  13
ATOM     13  O1  <0> d          -2.030   0.991   1.336  0.00  0.00    -0.377 OA
ATOM     14  H9  <0> d          -2.023   0.025   1.372  0.00  0.00     0.211 HD
ENDBRANCH  11  13
BRANCH  11  15
ATOM     15  S1  <0> d           0.229   1.104   2.733  0.00  0.00     0.131 S 
ATOM     16  O2  <0> d           0.305  -0.311   2.829  0.00  0.00    -0.593 OA
ATOM     17  O3  <0> d           1.400   1.902   2.831  0.00  0.00    -0.593 OA
ATOM     18  O4  <0> d          -0.631   1.528   3.915  0.00  0.00    -0.593 OA
ENDBRANCH  11  15
ENDBRANCH   1  11
TORSDOF 5
