REMARK  1 active torsions:
REMARK  status: ('A' for Active; 'I' for Inactive)
REMARK    1  A    between atoms: C8_8  and  O1_11 
ROOT
ATOM      1  C1  <0> d          -0.013   1.086   0.008  0.00  0.00    -0.058 C 
ATOM      2  C2  <0> d          -0.729   1.579   1.267  0.00  0.00    -0.051 C 
ATOM      3  C3  <0> d          -0.750   3.109   1.275  0.00  0.00    -0.058 C 
ATOM      4  C4  <0> d          -1.490   3.616   0.036  0.00  0.00    -0.051 C 
ATOM      5  C5  <0> d          -0.773   3.123  -1.223  0.00  0.00    -0.058 C 
ATOM      6  C6  <0> d          -0.753   1.593  -1.232  0.00  0.00    -0.051 C 
ATOM      7  C7  <0> d          -2.188   1.063  -1.221  0.00  0.00    -0.033 C 
ATOM      8  C8  <0> d          -2.904   1.556   0.038  0.00  0.00     0.059 C 
ATOM      9  C9  <0> d          -2.164   1.050   1.278  0.00  0.00    -0.033 C 
ATOM     10  C10 <0> d          -2.925   3.086   0.047  0.00  0.00    -0.033 C 
ATOM     11  H1  <0> d           0.002  -0.004   0.002  0.00  0.00     0.034 H 
ATOM     12  H2  <0> d           1.010   1.463   0.000  0.00  0.00     0.034 H 
ATOM     13  H3  <0> d          -0.202   1.218   2.150  0.00  0.00     0.040 H 
ATOM     14  H4  <0> d          -1.260   3.461   2.172  0.00  0.00     0.034 H 
ATOM     15  H5  <0> d           0.273   3.486   1.268  0.00  0.00     0.034 H 
ATOM     16  H6  <0> d          -1.504   4.706   0.042  0.00  0.00     0.040 H 
ATOM     17  H7  <0> d           0.249   3.500  -1.231  0.00  0.00     0.034 H 
ATOM     18  H8  <0> d          -1.301   3.484  -2.106  0.00  0.00     0.034 H 
ATOM     19  H9  <0> d          -0.242   1.241  -2.128  0.00  0.00     0.040 H 
ATOM     20  H10 <0> d          -2.715   1.424  -2.104  0.00  0.00     0.037 H 
ATOM     21  H11 <0> d          -2.173  -0.027  -1.227  0.00  0.00     0.037 H 
ATOM     22  H12 <0> d          -2.674   1.401   2.175  0.00  0.00     0.037 H 
ATOM     23  H13 <0> d          -2.149  -0.040   1.272  0.00  0.00     0.037 H 
ATOM     24  H14 <0> d          -3.452   3.447  -0.837  0.00  0.00     0.037 H 
ATOM     25  H15 <0> d          -3.435   3.438   0.943  0.00  0.00     0.037 H 
ENDROOT
BRANCH   8  26
ATOM     26  O1  <0> d          -4.245   1.062   0.048  0.00  0.00    -0.390 OA
ATOM     27  H16 <0> d          -4.759   1.336   0.820  0.00  0.00     0.210 HD
ENDBRANCH   8  26
TORSDOF 1
