REMARK  5 active torsions:
REMARK  status: ('A' for Active; 'I' for Inactive)
REMARK    1  A    between atoms: C1_1  and  C2_2 
REMARK    2  A    between atoms: C2_2  and  O1_3 
REMARK    3  A    between atoms: O1_3  and  C3_4 
REMARK    4  A    between atoms: C3_4  and  C4_6 
REMARK    5  A    between atoms: C4_6  and  C5_7 
ROOT
ATOM      1  C3  <0> d          -0.014   1.204   0.009  0.00  0.00     0.262 C 
ATOM      2  O2  <0> d           0.002  -0.004   0.002  0.00  0.00    -0.265 OA
ENDROOT
BRANCH   1   3
ATOM      3  O1  <0> d           1.139   1.891   0.001  0.00  0.00    -0.322 OA
BRANCH   3   4
ATOM      4  C2  <0> d           2.367   1.117  -0.015  0.00  0.00     0.025 C 
ATOM      5  H4  <0> d           2.409   0.484   0.872  0.00  0.00     0.074 H 
ATOM      6  H5  <0> d           2.392   0.493  -0.908  0.00  0.00     0.074 H 
BRANCH   4   7
ATOM      7  C1  <0> d           3.568   2.065  -0.021  0.00  0.00    -0.056 C 
ATOM      8  H1  <0> d           3.543   2.689   0.873  0.00  0.00     0.030 H 
ATOM      9  H2  <0> d           4.490   1.484  -0.033  0.00  0.00     0.030 H 
ATOM     10  H3  <0> d           3.526   2.698  -0.907  0.00  0.00     0.030 H 
ENDBRANCH   4   7
ENDBRANCH   3   4
ENDBRANCH   1   3
BRANCH   1  11
ATOM     11  C4  <0> d          -1.329   1.940   0.019  0.00  0.00     0.030 C 
ATOM     12  H6  <0> d          -1.391   2.561   0.913  0.00  0.00     0.053 H 
ATOM     13  H7  <0> d          -1.400   2.570  -0.867  0.00  0.00     0.053 H 
BRANCH  11  14
ATOM     14  C5  <0> d          -2.462   0.945   0.019  0.00  0.00    -0.103 C 
ATOM     15  C6  <0> d          -3.379   0.996   0.953  0.00  0.00    -0.124 C 
ATOM     16  H9  <0> d          -3.324   1.752   1.723  0.00  0.00     0.066 H 
ATOM     17  H10 <0> d          -4.190   0.283   0.953  0.00  0.00     0.066 H 
ATOM     18  H8  <0> d          -2.517   0.190  -0.751  0.00  0.00     0.076 H 
ENDBRANCH  11  14
ENDBRANCH   1  11
TORSDOF 5
