REMARK  8 active torsions:
REMARK  status: ('A' for Active; 'I' for Inactive)
REMARK    1  A    between atoms: C1_1  and  C2_2 
REMARK    2  A    between atoms: C2_2  and  C3_3 
REMARK    3  A    between atoms: C3_3  and  C4_4 
REMARK    4  A    between atoms: C3_3  and  C6_6 
REMARK    5  A    between atoms: C4_4  and  C5_5 
REMARK    6  A    between atoms: C6_6  and  O2_8 
REMARK    7  A    between atoms: O2_8  and  C7_9 
REMARK    8  A    between atoms: C7_9  and  C8_10 
ROOT
ATOM      1  C3  <0> d           1.474   2.197   0.028  0.00  0.00     0.030 C 
ATOM      2  H6  <0> d           1.766   2.848  -0.796  0.00  0.00     0.055 H 
ENDROOT
BRANCH   1   3
ATOM      3  C2  <0> d           1.508   2.987   1.338  0.00  0.00    -0.057 C 
ATOM      4  H4  <0> d           1.112   2.370   2.144  0.00  0.00     0.033 H 
ATOM      5  H5  <0> d           2.536   3.268   1.567  0.00  0.00     0.033 H 
BRANCH   3   6
ATOM      6  C1  <0> d           0.654   4.249   1.195  0.00  0.00    -0.076 C 
ATOM      7  H1  <0> d           0.967   4.800   0.308  0.00  0.00     0.027 H 
ATOM      8  H2  <0> d          -0.395   3.969   1.097  0.00  0.00     0.027 H 
ATOM      9  H3  <0> d           0.783   4.876   2.077  0.00  0.00     0.027 H 
ENDBRANCH   3   6
ENDBRANCH   1   3
BRANCH   1  10
ATOM     10  C4  <0> d           2.448   1.020   0.117  0.00  0.00    -0.057 C 
ATOM     11  H7  <0> d           2.219   0.426   1.002  0.00  0.00     0.033 H 
ATOM     12  H8  <0> d           2.349   0.399  -0.773  0.00  0.00     0.033 H 
BRANCH  10  13
ATOM     13  C5  <0> d           3.880   1.549   0.213  0.00  0.00    -0.076 C 
ATOM     14  H9  <0> d           4.130   2.089  -0.700  0.00  0.00     0.027 H 
ATOM     15  H10 <0> d           3.963   2.221   1.067  0.00  0.00     0.027 H 
ATOM     16  H11 <0> d           4.568   0.713   0.340  0.00  0.00     0.027 H 
ENDBRANCH  10  13
ENDBRANCH   1  10
BRANCH   1  17
ATOM     17  C6  <0> d           0.080   1.679  -0.211  0.00  0.00     0.263 C 
ATOM     18  O1  <0> d          -0.116   0.490  -0.301  0.00  0.00    -0.265 OA
BRANCH  17  19
ATOM     19  O2  <0> d          -0.944   2.539  -0.330  0.00  0.00    -0.317 OA
BRANCH  19  20
ATOM     20  C7  <0> d          -2.259   1.969  -0.565  0.00  0.00     0.043 C 
ATOM     21  H12 <0> d          -2.247   1.398  -1.494  0.00  0.00     0.081 H 
ATOM     22  H13 <0> d          -2.523   1.311   0.263  0.00  0.00     0.081 H 
BRANCH  20  23
ATOM     23  C8  <0> d          -3.275   3.077  -0.670  0.00  0.00    -0.089 C 
ATOM     24  C9  <0> d          -4.171   3.056  -1.625  0.00  0.00    -0.123 C 
ATOM     25  H15 <0> d          -4.182   2.244  -2.337  0.00  0.00     0.066 H 
ATOM     26  H16 <0> d          -4.899   3.850  -1.700  0.00  0.00     0.066 H 
ATOM     27  H14 <0> d          -3.264   3.889   0.042  0.00  0.00     0.078 H 
ENDBRANCH  20  23
ENDBRANCH  19  20
ENDBRANCH  17  19
ENDBRANCH   1  17
TORSDOF 8
