REMARK  4 active torsions:
REMARK  status: ('A' for Active; 'I' for Inactive)
REMARK    1  A    between atoms: C3_3  and  C5_6 
REMARK    2  A    between atoms: C5_6  and  C6_7 
REMARK    3  A    between atoms: C6_7  and  C7_9 
REMARK    4  A    between atoms: C7_9  and  O2_10 
ROOT
ATOM      1  C6  <0> d          -0.018   1.468   0.010  0.00  0.00     0.056 C 
ATOM      2  H1  <0> d          -0.545   1.829  -0.873  0.00  0.00     0.066 H 
ATOM      3  C8  <0> d           0.002  -0.004   0.002  0.00  0.00     0.066 C 
ATOM      4  N1  <0> d           0.018  -1.140  -0.004  0.00  0.00    -0.197 NA
ENDROOT
BRANCH   1   5
ATOM      5  C5  <0> d           1.417   1.997  -0.001  0.00  0.00    -0.003 C 
ATOM      6  H5  <0> d           1.405   3.083   0.095  0.00  0.00     0.045 H 
ATOM      7  H6  <0> d           1.970   1.566   0.834  0.00  0.00     0.045 H 
BRANCH   5   8
ATOM      8  C3  <0> d           2.084   1.615  -1.297  0.00  0.00     0.053 A 
ATOM      9  C2  <0> d           2.081   2.343  -2.428  0.00  0.00    -0.052 A 
ATOM     10  C1  <0> d           2.823   1.614  -3.386  0.00  0.00    -0.059 A 
ATOM     11  H3  <0> d           1.605   3.301  -2.575  0.00  0.00     0.087 H 
ATOM     12  C4  <0> d           3.228   0.481  -2.786  0.00  0.00     0.019 A 
ATOM     13  H2  <0> d           3.022   1.909  -4.406  0.00  0.00     0.086 H 
ATOM     14  O1  <0> d           2.777   0.486  -1.520  0.00  0.00    -0.327 OA
ATOM     15  H4  <0> d           3.815  -0.301  -3.244  0.00  0.00     0.123 H 
ENDBRANCH   5   8
ENDBRANCH   1   5
BRANCH   1  16
ATOM     16  C7  <0> d          -0.734   1.961   1.269  0.00  0.00     0.032 C 
ATOM     17  H7  <0> d          -0.260   1.528   2.150  0.00  0.00     0.076 H 
ATOM     18  H8  <0> d          -0.671   3.048   1.320  0.00  0.00     0.076 H 
BRANCH  16  19
ATOM     19  O2  <0> d          -2.106   1.565   1.223  0.00  0.00    -0.400 OA
ATOM     20  H9  <0> d          -2.623   1.845   1.991  0.00  0.00     0.209 HD
ENDBRANCH  16  19
ENDBRANCH   1  16
TORSDOF 4
