REMARK  6 active torsions:
REMARK  status: ('A' for Active; 'I' for Inactive)
REMARK    1  A    between atoms: C1_1  and  C2_2 
REMARK    2  A    between atoms: C2_2  and  C3_3 
REMARK    3  A    between atoms: C3_3  and  C4_4 
REMARK    4  A    between atoms: C4_4  and  C5_6 
REMARK    5  A    between atoms: C4_4  and  O1_9 
REMARK    6  A    between atoms: C6_7  and  C7_8 
ROOT
ATOM      1  C4  <0> d          -0.960   1.741   3.671  0.00  0.00     0.051 C 
ATOM      2  H1  <0> d          -0.308   2.424   4.216  0.00  0.00     0.089 H 
ENDROOT
BRANCH   1   3
ATOM      3  C3  <0> d          -1.307   0.546   4.563  0.00  0.00    -0.038 C 
ATOM      4  H7  <0> d          -2.028  -0.091   4.051  0.00  0.00     0.037 H 
ATOM      5  H8  <0> d          -0.402  -0.024   4.773  0.00  0.00     0.037 H 
BRANCH   3   6
ATOM      6  C2  <0> d          -1.910   1.048   5.876  0.00  0.00    -0.066 C 
ATOM      7  H5  <0> d          -1.188   1.685   6.387  0.00  0.00     0.032 H 
ATOM      8  H6  <0> d          -2.814   1.619   5.666  0.00  0.00     0.032 H 
BRANCH   6   9
ATOM      9  C1  <0> d          -2.256  -0.146   6.767  0.00  0.00    -0.076 C 
ATOM     10  H2  <0> d          -2.978  -0.784   6.256  0.00  0.00     0.027 H 
ATOM     11  H3  <0> d          -1.352  -0.717   6.977  0.00  0.00     0.027 H 
ATOM     12  H4  <0> d          -2.686   0.211   7.703  0.00  0.00     0.027 H 
ENDBRANCH   6   9
ENDBRANCH   3   6
ENDBRANCH   1   3
BRANCH   1  13
ATOM     13  C5  <0> d          -0.255   1.255   2.432  0.00  0.00    -0.080 C 
ATOM     14  C6  <0> d          -0.718   1.572   1.248  0.00  0.00    -0.108 C 
ATOM     15  H10 <0> d          -1.605   2.181   1.161  0.00  0.00     0.075 H 
ATOM     16  H9  <0> d           0.632   0.646   2.519  0.00  0.00     0.080 H 
BRANCH  14  17
ATOM     17  C7  <0> d          -0.013   1.086   0.008  0.00  0.00    -0.060 C 
ATOM     18  H11 <0> d           0.002  -0.004   0.002  0.00  0.00     0.032 H 
ATOM     19  H12 <0> d           1.010   1.463   0.000  0.00  0.00     0.032 H 
ATOM     20  H13 <0> d          -0.540   1.447  -0.875  0.00  0.00     0.032 H 
ENDBRANCH  14  17
ENDBRANCH   1  13
BRANCH   1  21
ATOM     21  O1  <0> d          -2.160   2.422   3.301  0.00  0.00    -0.392 OA
ATOM     22  H14 <0> d          -2.789   1.874   2.811  0.00  0.00     0.210 HD
ENDBRANCH   1  21
TORSDOF 6
