REMARK  5 active torsions:
REMARK  status: ('A' for Active; 'I' for Inactive)
REMARK    1  A    between atoms: C1_1  and  C2_2 
REMARK    2  A    between atoms: C2_2  and  C3_3 
REMARK    3  A    between atoms: C3_3  and  C4_5 
REMARK    4  A    between atoms: C3_3  and  C5_6 
REMARK    5  A    between atoms: C10_11  and  O1_12 
ROOT
ATOM      1  C3  <0> d          -1.433  -0.534   0.013  0.00  0.00    -0.030 C 
ATOM      2  H1  <0> d          -1.970  -0.111   0.862  0.00  0.00     0.046 H 
ENDROOT
BRANCH   1   3
ATOM      3  C2  <0> d           0.002  -0.004   0.002  0.00  0.00    -0.061 C 
ATOM      4  H5  <0> d           0.512  -0.356  -0.895  0.00  0.00     0.033 H 
ATOM      5  H6  <0> d           0.529  -0.365   0.885  0.00  0.00     0.033 H 
BRANCH   3   6
ATOM      6  C1  <0> d          -0.019   1.526   0.010  0.00  0.00    -0.076 C 
ATOM      7  H2  <0> d           1.004   1.903   0.003  0.00  0.00     0.027 H 
ATOM      8  H3  <0> d          -0.546   1.887  -0.873  0.00  0.00     0.027 H 
ATOM      9  H4  <0> d          -0.529   1.877   0.907  0.00  0.00     0.027 H 
ENDBRANCH   3   6
ENDBRANCH   1   3
BRANCH   1  10
ATOM     10  C4  <0> d          -2.135  -0.131  -1.286  0.00  0.00    -0.069 C 
ATOM     11  H7  <0> d          -3.158  -0.508  -1.278  0.00  0.00     0.028 H 
ATOM     12  H8  <0> d          -2.150   0.956  -1.369  0.00  0.00     0.028 H 
ATOM     13  H9  <0> d          -1.598  -0.554  -2.135  0.00  0.00     0.028 H 
ENDBRANCH   1  10
BRANCH   1  14
ATOM     14  C5  <0> d          -1.414  -2.036   0.129  0.00  0.00    -0.021 A 
ATOM     15  C10 <0> d          -2.026  -2.657   1.207  0.00  0.00     0.072 A 
ATOM     16  C9  <0> d          -2.011  -4.041   1.307  0.00  0.00    -0.051 A 
ATOM     17  C8  <0> d          -1.377  -4.796   0.340  0.00  0.00    -0.080 A 
ATOM     18  H13 <0> d          -2.491  -4.528   2.143  0.00  0.00     0.087 H 
ATOM     19  C7  <0> d          -0.762  -4.174  -0.731  0.00  0.00    -0.082 A 
ATOM     20  H12 <0> d          -1.362  -5.873   0.419  0.00  0.00     0.083 H 
ATOM     21  C6  <0> d          -0.780  -2.796  -0.837  0.00  0.00    -0.074 A 
ATOM     22  H11 <0> d          -0.267  -4.766  -1.487  0.00  0.00     0.083 H 
ATOM     23  H10 <0> d          -0.299  -2.312  -1.674  0.00  0.00     0.084 H 
BRANCH  15  24
ATOM     24  O1  <0> d          -2.644  -1.912   2.160  0.00  0.00    -0.360 OA
ATOM     25  H14 <0> d          -3.579  -1.741   1.981  0.00  0.00     0.217 HD
ENDBRANCH  15  24
ENDBRANCH   1  14
TORSDOF 5
