REMARK  2 active torsions:
REMARK  status: ('A' for Active; 'I' for Inactive)
REMARK    1  A    between atoms: C1_1  and  C2_2 
REMARK    2  A    between atoms: C5_6  and  N3_8 
ROOT
ATOM      1  C2  <0> d           0.002  -0.004   0.002  0.00  0.00     0.052 A 
ATOM      2  C3  <0> d           0.006  -0.698  -1.197  0.00  0.00    -0.019 A 
ATOM      3  C4  <0> d           0.025  -2.086  -1.160  0.00  0.00     0.147 A 
ATOM      4  N1  <0> d           0.039  -2.700   0.013  0.00  0.00    -0.051 NA
ATOM      5  C5  <0> d           0.035  -2.005   1.141  0.00  0.00     0.721 A 
ATOM      6  N2  <0> d           0.022  -0.679   1.139  0.00  0.00    -0.068 NA
ATOM      7 Cl1  <0> d           0.030  -3.004  -2.633  0.00  0.00    -0.062 Cl
ATOM      8  H4  <0> d          -0.006  -0.172  -2.139  0.00  0.00     0.091 H 
ENDROOT
BRANCH   1   9
ATOM      9  C1  <0> d          -0.018   1.503   0.010  0.00  0.00    -0.035 C 
ATOM     10  H1  <0> d           1.004   1.880   0.003  0.00  0.00     0.035 H 
ATOM     11  H2  <0> d          -0.545   1.864  -0.873  0.00  0.00     0.035 H 
ATOM     12  H3  <0> d          -0.529   1.854   0.907  0.00  0.00     0.035 H 
ENDBRANCH   1   9
BRANCH   5  13
ATOM     13  N3  <0> d           0.049  -2.678   2.350  0.00  0.00    -0.231 N 
ATOM     14  H5  <0> d           0.062  -3.648   2.364  0.00  0.00     0.174 HD
ATOM     15  H6  <0> d           0.046  -2.181   3.183  0.00  0.00     0.174 HD
ENDBRANCH   5  13
TORSDOF 2
