REMARK  1 active torsions:
REMARK  status: ('A' for Active; 'I' for Inactive)
REMARK    1  A    between atoms: N2_9  and  N3_10 
ROOT
ATOM      1  C1  <0> d           2.398   0.029  -0.021  0.00  0.00    -0.082 A 
ATOM      2  C2  <0> d           1.196  -0.668  -0.013  0.00  0.00    -0.081 A 
ATOM      3  C3  <0> d           0.002  -0.004   0.002  0.00  0.00    -0.053 A 
ATOM      4  C4  <0> d          -0.017   1.389   0.010  0.00  0.00     0.088 A 
ATOM      5  C5  <0> d           1.200   2.097   0.002  0.00  0.00     0.013 A 
ATOM      6  C6  <0> d           2.410   1.394  -0.013  0.00  0.00    -0.069 A 
ATOM      7  C7  <0> d           0.850   3.514   0.012  0.00  0.00     0.036 A 
ATOM      8  N1  <0> d          -0.449   3.602   0.025  0.00  0.00    -0.163 NA
ATOM      9  N2  <0> d          -1.018   2.325   0.019  0.00  0.00    -0.180 N 
ATOM     10  H1  <0> d           3.331  -0.514  -0.033  0.00  0.00     0.083 H 
ATOM     11  H2  <0> d           1.206  -1.748  -0.019  0.00  0.00     0.083 H 
ATOM     12  H3  <0> d          -0.925  -0.558   0.008  0.00  0.00     0.087 H 
ATOM     13  H4  <0> d           3.349   1.929  -0.020  0.00  0.00     0.085 H 
ATOM     14  H5  <0> d           1.545   4.341   0.009  0.00  0.00     0.118 H 
ENDROOT
BRANCH   9  15
ATOM     15  N3  <0> d          -2.357   2.053   0.023  0.00  0.00    -0.322 N 
ATOM     16  H6  <0> d          -3.085   2.877   0.030  0.00  0.00     0.179 HD
ATOM     17  H7  <0> d          -2.706   1.010   0.018  0.00  0.00     0.179 HD
ENDBRANCH   9  15
TORSDOF 1
