REMARK  5 active torsions:
REMARK  status: ('A' for Active; 'I' for Inactive)
REMARK    1  A    between atoms: C1_1  and  C2_2 
REMARK    2  A    between atoms: C2_2  and  O1_3 
REMARK    3  A    between atoms: O1_3  and  C3_4 
REMARK    4  A    between atoms: C3_4  and  C4_6 
REMARK    5  A    between atoms: C4_6  and  N1_7 
ROOT
ATOM      1  C4  <0> d           1.704   3.175   0.003  0.00  0.00     0.096 C 
ATOM      2  H6  <0> d           2.219   3.396  -0.932  0.00  0.00     0.082 H 
ATOM      3  H7  <0> d           0.838   3.829   0.104  0.00  0.00     0.082 H 
ENDROOT
BRANCH   1   4
ATOM      4  C3  <0> d           2.643   3.402   1.159  0.00  0.00     0.278 C 
ATOM      5  O2  <0> d           2.917   2.491   1.904  0.00  0.00    -0.263 OA
BRANCH   4   6
ATOM      6  O1  <0> d           3.177   4.617   1.361  0.00  0.00    -0.321 OA
BRANCH   6   7
ATOM      7  C2  <0> d           4.073   4.764   2.494  0.00  0.00     0.025 C 
ATOM      8  H4  <0> d           3.540   4.521   3.413  0.00  0.00     0.074 H 
ATOM      9  H5  <0> d           4.920   4.088   2.377  0.00  0.00     0.074 H 
BRANCH   7  10
ATOM     10  C1  <0> d           4.577   6.207   2.563  0.00  0.00    -0.056 C 
ATOM     11  H1  <0> d           5.111   6.449   1.644  0.00  0.00     0.030 H 
ATOM     12  H2  <0> d           3.730   6.882   2.680  0.00  0.00     0.030 H 
ATOM     13  H3  <0> d           5.250   6.316   3.413  0.00  0.00     0.030 H 
ENDBRANCH   7  10
ENDBRANCH   6   7
ENDBRANCH   4   6
ENDBRANCH   1   4
BRANCH   1  14
ATOM     14  N1  <0> d           1.263   1.778  -0.001  0.00  0.00    -0.272 N 
ATOM     15  N2  <0> d           2.095   0.651  -0.015  0.00  0.00    -0.185 NA
ATOM     16  C7  <0> d           1.339  -0.416  -0.013  0.00  0.00     0.023 A 
ATOM     17  C6  <0> d           0.002  -0.004   0.002  0.00  0.00    -0.048 A 
ATOM     18  H10 <0> d           1.686  -1.439  -0.022  0.00  0.00     0.117 H 
ATOM     19  C5  <0> d          -0.016   1.349   0.009  0.00  0.00     0.000 A 
ATOM     20  H9  <0> d          -0.863  -0.651   0.007  0.00  0.00     0.087 H 
ATOM     21  H8  <0> d          -0.897   1.974   0.017  0.00  0.00     0.114 H 
ENDBRANCH   1  14
TORSDOF 5
