REMARK  3 active torsions:
REMARK  status: ('A' for Active; 'I' for Inactive)
REMARK    1  A    between atoms: C1_1  and  C2_2 
REMARK    2  A    between atoms: C6_7  and  C8_10 
REMARK    3  A    between atoms: C6_7  and  C9_11 
ROOT
ATOM      1  C2  <0> d           0.854  -0.715   1.030  0.00  0.00     0.001 C 
ATOM      2  H1  <0> d           0.463  -0.585   1.942  0.00  0.00     0.051 H 
ATOM      3  C3  <0> d           2.268  -0.128   0.982  0.00  0.00    -0.056 C 
ATOM      4  C4  <0> d           2.195   1.389   1.165  0.00  0.00    -0.063 C 
ATOM      5  C5  <0> d           1.428   2.015  -0.001  0.00  0.00    -0.052 C 
ATOM      6  C6  <0> d          -0.018   1.508   0.010  0.00  0.00     0.013 C 
ATOM      7  C7  <0> d           0.002  -0.004   0.002  0.00  0.00     0.138 C 
ATOM      8  O1  <0> d          -0.644  -0.628  -0.805  0.00  0.00    -0.297 OA
ATOM      9  H5  <0> d           2.869  -0.562   1.781  0.00  0.00     0.034 H 
ATOM     10  H6  <0> d           2.724  -0.356   0.019  0.00  0.00     0.034 H 
ATOM     11  H7  <0> d           1.682   1.617   2.100  0.00  0.00     0.033 H 
ATOM     12  H8  <0> d           3.204   1.799   1.196  0.00  0.00     0.033 H 
ATOM     13  H9  <0> d           1.903   1.736  -0.941  0.00  0.00     0.034 H 
ATOM     14  H10 <0> d           1.433   3.100   0.102  0.00  0.00     0.034 H 
ENDROOT
BRANCH   6  15
ATOM     15  C8  <0> d          -0.752   2.019  -1.232  0.00  0.00    -0.063 C 
ATOM     16  H11 <0> d          -1.775   1.643  -1.230  0.00  0.00     0.029 H 
ATOM     17  H12 <0> d          -0.765   3.109  -1.223  0.00  0.00     0.029 H 
ATOM     18  H13 <0> d          -0.237   1.669  -2.127  0.00  0.00     0.029 H 
ENDBRANCH   6  15
BRANCH   6  19
ATOM     19  C9  <0> d          -0.728   2.006   1.272  0.00  0.00    -0.063 C 
ATOM     20  H14 <0> d          -0.197   1.646   2.153  0.00  0.00     0.029 H 
ATOM     21  H15 <0> d          -0.741   3.096   1.275  0.00  0.00     0.029 H 
ATOM     22  H16 <0> d          -1.751   1.630   1.285  0.00  0.00     0.029 H 
ENDBRANCH   6  19
BRANCH   1  23
ATOM     23  C1  <0> d           0.907  -2.210   0.708  0.00  0.00    -0.066 C 
ATOM     24  H2  <0> d           1.340  -2.353  -0.282  0.00  0.00     0.028 H 
ATOM     25  H3  <0> d           1.521  -2.720   1.450  0.00  0.00     0.028 H 
ATOM     26  H4  <0> d          -0.102  -2.622   0.726  0.00  0.00     0.028 H 
ENDBRANCH   1  23
TORSDOF 3
