REMARK  5 active torsions:
REMARK  status: ('A' for Active; 'I' for Inactive)
REMARK    1  A    between atoms: C1_1  and  C2_2 
REMARK    2  A    between atoms: C2_2  and  C3_3 
REMARK    3  A    between atoms: C4_4  and  C5_5 
REMARK    4  A    between atoms: C6_6  and  C7_7 
REMARK    5  A    between atoms: C7_7  and  O1_8 
ROOT
ATOM      1  C3  <0> d          -3.596   1.620   0.028  0.00  0.00    -0.103 C 
ATOM      2  C4  <0> d          -2.436   0.972   0.019  0.00  0.00    -0.087 C 
ATOM      3  H6  <0> d          -3.610   2.700   0.034  0.00  0.00     0.076 H 
ATOM      4  H7  <0> d          -2.421  -0.108   0.013  0.00  0.00     0.083 H 
ENDROOT
BRANCH   2   5
ATOM      5  C5  <0> d          -1.172   1.724   0.017  0.00  0.00    -0.085 C 
ATOM      6  C6  <0> d          -0.013   1.076   0.008  0.00  0.00    -0.081 C 
ATOM      7  H9  <0> d           0.002  -0.004   0.002  0.00  0.00     0.080 H 
ATOM      8  H8  <0> d          -1.187   2.804   0.023  0.00  0.00     0.083 H 
BRANCH   6   9
ATOM      9  C7  <0> d           1.282   1.847  -0.000  0.00  0.00     0.032 C 
ATOM     10  H10 <0> d           1.721   1.810  -0.997  0.00  0.00     0.080 H 
ATOM     11  H11 <0> d           1.089   2.884   0.273  0.00  0.00     0.080 H 
BRANCH   9  12
ATOM     12  O1  <0> d           2.188   1.267   0.941  0.00  0.00    -0.397 OA
ATOM     13  H12 <0> d           3.044   1.714   0.989  0.00  0.00     0.209 HD
ENDBRANCH   9  12
ENDBRANCH   6   9
ENDBRANCH   2   5
BRANCH   1  14
ATOM     14  C2  <0> d          -4.890   0.849   0.030  0.00  0.00    -0.053 C 
ATOM     15  H4  <0> d          -5.429   1.041  -0.898  0.00  0.00     0.038 H 
ATOM     16  H5  <0> d          -4.678  -0.217   0.113  0.00  0.00     0.038 H 
BRANCH  14  17
ATOM     17  C1  <0> d          -5.746   1.293   1.218  0.00  0.00    -0.073 C 
ATOM     18  H1  <0> d          -5.208   1.100   2.146  0.00  0.00     0.027 H 
ATOM     19  H2  <0> d          -5.958   2.358   1.135  0.00  0.00     0.027 H 
ATOM     20  H3  <0> d          -6.683   0.735   1.219  0.00  0.00     0.027 H 
ENDBRANCH  14  17
ENDBRANCH   1  14
TORSDOF 5
