REMARK  2 active torsions:
REMARK  status: ('A' for Active; 'I' for Inactive)
REMARK    1  A    between atoms: C2_2  and  C6_8 
REMARK    2  A    between atoms: C5_6  and  O1_7 
REMARK       I    between atoms: C6_8  and  N2_10 
ROOT
ATOM      1  C1  <0> d          -2.422   3.797   0.034  0.00  0.00    -0.033 A 
ATOM      2  C2  <0> d          -1.207   3.102   0.025  0.00  0.00     0.051 A 
ATOM      3  C3  <0> d          -0.015   3.827   0.029  0.00  0.00     0.017 A 
ATOM      4  N1  <0> d          -0.029   5.144   0.031  0.00  0.00    -0.269 NA
ATOM      5  C4  <0> d          -1.156   5.830   0.040  0.00  0.00     0.034 A 
ATOM      6  C5  <0> d          -2.386   5.185   0.042  0.00  0.00     0.084 A 
ATOM      7  H1  <0> d          -3.364   3.267   0.035  0.00  0.00     0.089 H 
ATOM      8  H2  <0> d           0.929   3.303   0.026  0.00  0.00     0.116 H 
ATOM      9  H3  <0> d          -1.122   6.909   0.047  0.00  0.00     0.119 H 
ENDROOT
BRANCH   2  10
ATOM     10  C6  <0> d          -1.187   1.624   0.017  0.00  0.00     0.250 C 
ATOM     11  O2  <0> d          -2.232   1.002   0.018  0.00  0.00    -0.268 OA
ATOM     12  N2  <0> d          -0.011   0.966   0.007  0.00  0.00    -0.366 N 
ATOM     13  H5  <0> d           0.002  -0.004   0.002  0.00  0.00     0.159 HD
ATOM     14  H6  <0> d           0.822   1.462   0.002  0.00  0.00     0.159 HD
ENDBRANCH   2  10
BRANCH   6  15
ATOM     15  O1  <0> d          -3.539   5.903   0.052  0.00  0.00    -0.359 OA
ATOM     16  H4  <0> d          -3.869   6.106   0.938  0.00  0.00     0.217 HD
ENDBRANCH   6  15
TORSDOF 2
