REMARK  1 active torsions:
REMARK  status: ('A' for Active; 'I' for Inactive)
REMARK    1  A    between atoms: C1_1  and  C2_2 
ROOT
ATOM      1  C2  <0> d           0.601   4.139   0.020  0.00  0.00     0.010 A 
ATOM      2  C3  <0> d           1.610   3.247   0.005  0.00  0.00    -0.035 A 
ATOM      3  C4  <0> d           1.323   1.865  -0.001  0.00  0.00     0.049 A 
ATOM      4  C5  <0> d          -0.018   1.457   0.010  0.00  0.00     0.060 A 
ATOM      5  C6  <0> d           0.002  -0.004   0.002  0.00  0.00    -0.051 A 
ATOM      6  C7  <0> d           1.295  -0.374  -0.012  0.00  0.00    -0.021 A 
ATOM      7  N1  <0> d           2.093   0.739  -0.014  0.00  0.00    -0.365 N 
ATOM      8  H1  <0> d           3.063   0.728  -0.023  0.00  0.00     0.165 HD
ATOM      9  C8  <0> d          -1.037   2.434   0.030  0.00  0.00     0.258 A 
ATOM     10  O1  <0> d          -2.209   2.099   0.045  0.00  0.00    -0.267 OA
ATOM     11  N2  <0> d          -0.705   3.741   0.030  0.00  0.00    -0.327 N 
ATOM     12  H2  <0> d          -1.406   4.411   0.041  0.00  0.00     0.169 HD
ATOM     13  H6  <0> d           2.635   3.588  -0.003  0.00  0.00     0.090 H 
ATOM     14  H7  <0> d          -0.856  -0.660   0.006  0.00  0.00     0.087 H 
ATOM     15  H8  <0> d           1.650  -1.394  -0.021  0.00  0.00     0.111 H 
ENDROOT
BRANCH   1  16
ATOM     16  C1  <0> d           0.920   5.612   0.026  0.00  0.00    -0.037 C 
ATOM     17  H3  <0> d           0.988   5.973  -1.000  0.00  0.00     0.035 H 
ATOM     18  H4  <0> d           0.133   6.152   0.551  0.00  0.00     0.035 H 
ATOM     19  H5  <0> d           1.872   5.775   0.532  0.00  0.00     0.035 H 
ENDBRANCH   1  16
TORSDOF 1
