REMARK  2 active torsions:
REMARK  status: ('A' for Active; 'I' for Inactive)
REMARK    1  A    between atoms: C1_1  and  C2_2 
REMARK       I    between atoms: C2_2  and  N1_4 
REMARK    2  A    between atoms: N1_4  and  C3_5 
ROOT
ATOM      1  C3  <0> d           1.157  -0.686  -0.013  0.00  0.00     0.136 A 
ATOM      2  C4  <0> d           2.356   0.003  -0.020  0.00  0.00     0.027 A 
ATOM      3  C5  <0> d           2.321   1.406  -0.013  0.00  0.00     0.249 A 
ATOM      4  O2  <0> d           3.355   2.055  -0.018  0.00  0.00    -0.268 OA
ATOM      5  N2  <0> d           1.121   2.024   0.002  0.00  0.00    -0.318 N 
ATOM      6  H1  <0> d           1.077   2.993   0.007  0.00  0.00     0.169 HD
ATOM      7  C6  <0> d          -0.016   1.301   0.009  0.00  0.00     0.069 A 
ATOM      8  N3  <0> d           0.002  -0.004   0.002  0.00  0.00    -0.226 NA
ATOM      9  H6  <0> d           3.298  -0.526  -0.032  0.00  0.00     0.098 H 
ATOM     10  H7  <0> d          -0.966   1.814   0.016  0.00  0.00     0.143 H 
ENDROOT
BRANCH   1  11
ATOM     11  N1  <0> d           1.149  -2.072  -0.020  0.00  0.00    -0.312 N 
ATOM     12  C2  <0> d          -0.022  -2.739  -0.011  0.00  0.00     0.219 C 
ATOM     13  O1  <0> d          -1.068  -2.127   0.002  0.00  0.00    -0.274 OA
ATOM     14  H5  <0> d           1.986  -2.562  -0.030  0.00  0.00     0.170 HD
BRANCH  12  15
ATOM     15  C1  <0> d          -0.030  -4.246  -0.019  0.00  0.00    -0.002 C 
ATOM     16  H2  <0> d           0.995  -4.615  -0.031  0.00  0.00     0.040 H 
ATOM     17  H3  <0> d          -0.538  -4.611   0.874  0.00  0.00     0.040 H 
ATOM     18  H4  <0> d          -0.555  -4.602  -0.906  0.00  0.00     0.040 H 
ENDBRANCH  12  15
ENDBRANCH   1  11
TORSDOF 2
