REMARK  3 active torsions:
REMARK  status: ('A' for Active; 'I' for Inactive)
REMARK    1  A    between atoms: C1_1  and  C2_2 
REMARK    2  A    between atoms: C5_6  and  S1_8 
REMARK    3  A    between atoms: S1_8  and  C6_9 
ROOT
ATOM      1  C2  <0> d          -0.718   1.572   1.248  0.00  0.00     0.035 A 
ATOM      2  C3  <0> d          -0.005   1.809   2.413  0.00  0.00    -0.043 A 
ATOM      3  C4  <0> d          -0.692   2.255   3.531  0.00  0.00     0.007 A 
ATOM      4  N1  <0> d          -2.000   2.441   3.454  0.00  0.00    -0.235 NA
ATOM      5  C5  <0> d          -2.652   2.205   2.324  0.00  0.00     0.188 A 
ATOM      6  N2  <0> d          -2.024   1.782   1.236  0.00  0.00    -0.228 NA
ATOM      7  H4  <0> d           1.062   1.650   2.449  0.00  0.00     0.088 H 
ATOM      8  H5  <0> d          -0.166   2.449   4.454  0.00  0.00     0.114 H 
ENDROOT
BRANCH   5   9
ATOM      9  S1  <0> d          -4.393   2.466   2.266  0.00  0.00    -0.095 SA
BRANCH   9  10
ATOM     10  C6  <0> d          -4.685   3.024   3.963  0.00  0.00    -0.027 C 
ATOM     11  H6  <0> d          -4.107   3.929   4.152  0.00  0.00     0.042 H 
ATOM     12  H7  <0> d          -5.745   3.234   4.099  0.00  0.00     0.042 H 
ATOM     13  H8  <0> d          -4.377   2.244   4.660  0.00  0.00     0.042 H 
ENDBRANCH   9  10
ENDBRANCH   5   9
BRANCH   1  14
ATOM     14  C1  <0> d          -0.013   1.086   0.008  0.00  0.00    -0.035 C 
ATOM     15  H1  <0> d           0.002  -0.004   0.002  0.00  0.00     0.035 H 
ATOM     16  H2  <0> d           1.010   1.463   0.000  0.00  0.00     0.035 H 
ATOM     17  H3  <0> d          -0.540   1.447  -0.875  0.00  0.00     0.035 H 
ENDBRANCH   1  14
TORSDOF 3
