REMARK  1 active torsions:
REMARK  status: ('A' for Active; 'I' for Inactive)
REMARK    1  A    between atoms: C3_4  and  O3_12 
ROOT
ATOM      1  C1  <0> d          -0.013   1.086   0.008  0.00  0.00     0.050 C 
ATOM      2  C2  <0> d          -0.776   1.604   1.243  0.00  0.00     0.090 C 
ATOM      3  H1  <0> d          -0.129   1.919   2.075  0.00  0.00     0.091 H 
ATOM      4  C3  <0> d          -1.762   0.534   1.724  0.00  0.00     0.079 C 
ATOM      5  H2  <0> d          -2.214   0.808   2.689  0.00  0.00     0.093 H 
ATOM      6  C4  <0> d          -2.838   0.324   0.694  0.00  0.00    -0.072 C 
ATOM      7  C5  <0> d          -2.942   1.083  -0.386  0.00  0.00    -0.052 C 
ATOM      8  C6  <0> d          -1.941   2.201  -0.595  0.00  0.00     0.149 C 
ATOM      9  H3  <0> d          -2.317   3.011  -1.237  0.00  0.00     0.136 H 
ATOM     10  O1  <0> d          -0.748   1.582  -1.126  0.00  0.00    -0.355 OA
ATOM     11  O2  <0> d          -1.559   2.703   0.707  0.00  0.00    -0.348 OA
ATOM     12  H4  <0> d           0.009  -0.014  -0.022  0.00  0.00     0.078 H 
ATOM     13  H5  <0> d           1.016   1.474  -0.023  0.00  0.00     0.078 H 
ATOM     14  H6  <0> d          -3.554  -0.495   0.861  0.00  0.00     0.080 H 
ATOM     15  H7  <0> d          -3.745   0.898  -1.114  0.00  0.00     0.084 H 
ENDROOT
BRANCH   4  16
ATOM     16  O3  <0> d          -1.062  -0.694   1.937  0.00  0.00    -0.389 OA
ATOM     17  H8  <0> d          -1.607  -1.583   2.286  0.00  0.00     0.210 HD
ENDBRANCH   4  16
TORSDOF 1
