REMARK  0 active torsions:
REMARK  status: ('A' for Active; 'I' for Inactive)
ROOT
ATOM      1  C1  <0> d          -0.017   1.380   0.010  0.00  0.00    -0.082 A 
ATOM      2  C2  <0> d           1.170   2.092   0.002  0.00  0.00    -0.082 A 
ATOM      3  C3  <0> d           2.380   1.428  -0.013  0.00  0.00    -0.069 A 
ATOM      4  C4  <0> d           2.406   0.033  -0.021  0.00  0.00     0.021 A 
ATOM      5  C5  <0> d           1.204  -0.675  -0.013  0.00  0.00    -0.024 A 
ATOM      6  C6  <0> d           0.002  -0.004   0.002  0.00  0.00    -0.074 A 
ATOM      7  C7  <0> d           1.568  -2.139  -0.025  0.00  0.00     0.045 A 
ATOM      8  N1  <0> d           3.029  -2.198  -0.040  0.00  0.00    -0.226 N 
ATOM      9  C8  <0> d           3.521  -0.939  -0.038  0.00  0.00     0.182 A 
ATOM     10  N2  <0> d           4.836  -1.044  -0.052  0.00  0.00    -0.108 NA
ATOM     11  N3  <0> d           5.188  -2.279  -0.063  0.00  0.00    -0.023 NA
ATOM     12  N4  <0> d           4.149  -3.042  -0.057  0.00  0.00    -0.044 NA
ATOM     13  H1  <0> d          -0.960   1.906   0.026  0.00  0.00     0.083 H 
ATOM     14  H2  <0> d           1.149   3.171   0.008  0.00  0.00     0.083 H 
ATOM     15  H3  <0> d           3.304   1.987  -0.020  0.00  0.00     0.085 H 
ATOM     16  H4  <0> d          -0.925  -0.557   0.008  0.00  0.00     0.084 H 
ATOM     17  H5  <0> d           1.182  -2.628   0.870  0.00  0.00     0.074 H 
ATOM     18  H6  <0> d           1.164  -2.618  -0.917  0.00  0.00     0.074 H 
ENDROOT
TORSDOF 0
