REMARK  5 active torsions:
REMARK  status: ('A' for Active; 'I' for Inactive)
REMARK    1  A    between atoms: C1_1  and  C2_2 
REMARK    2  A    between atoms: C2_2  and  C3_4 
REMARK    3  A    between atoms: C2_2  and  O1_11 
REMARK    4  A    between atoms: C7_8  and  N1_10 
REMARK    5  A    between atoms: O1_11  and  C9_12 
ROOT
ATOM      1  C3  <0> d           0.707  -0.490  -1.238  0.00  0.00    -0.028 A 
ATOM      2  C4  <0> d           0.036  -0.521  -2.447  0.00  0.00    -0.074 A 
ATOM      3  C5  <0> d           0.680  -0.967  -3.587  0.00  0.00    -0.080 A 
ATOM      4  C6  <0> d           1.996  -1.382  -3.522  0.00  0.00    -0.058 A 
ATOM      5  C7  <0> d           2.672  -1.352  -2.309  0.00  0.00     0.026 A 
ATOM      6  C8  <0> d           2.025  -0.898  -1.167  0.00  0.00    -0.049 A 
ATOM      7  H5  <0> d          -0.992  -0.197  -2.501  0.00  0.00     0.084 H 
ATOM      8  H6  <0> d           0.153  -0.991  -4.529  0.00  0.00     0.083 H 
ATOM      9  H7  <0> d           2.497  -1.730  -4.412  0.00  0.00     0.086 H 
ATOM     10  H8  <0> d           2.549  -0.870  -0.223  0.00  0.00     0.087 H 
ENDROOT
BRANCH   1  11
ATOM     11  C2  <0> d           0.002  -0.004   0.002  0.00  0.00     0.059 C 
ATOM     12  H1  <0> d           0.529  -0.365   0.885  0.00  0.00     0.090 H 
BRANCH  11  13
ATOM     13  C1  <0> d          -0.019   1.526   0.010  0.00  0.00    -0.048 C 
ATOM     14  H2  <0> d           1.004   1.903   0.003  0.00  0.00     0.031 H 
ATOM     15  H3  <0> d          -0.546   1.887  -0.873  0.00  0.00     0.031 H 
ATOM     16  H4  <0> d          -0.529   1.877   0.907  0.00  0.00     0.031 H 
ENDBRANCH  11  13
BRANCH  11  17
ATOM     17  O1  <0> d          -1.339  -0.499   0.012  0.00  0.00    -0.386 OA
BRANCH  17  18
ATOM     18  C9  <0> d          -1.871  -0.707   1.322  0.00  0.00     0.005 C 
ATOM     19  H11 <0> d          -1.256  -1.433   1.853  0.00  0.00     0.066 H 
ATOM     20  H12 <0> d          -1.873   0.236   1.868  0.00  0.00     0.066 H 
ATOM     21  H13 <0> d          -2.892  -1.083   1.243  0.00  0.00     0.066 H 
ENDBRANCH  17  18
ENDBRANCH  11  17
ENDBRANCH   1  11
BRANCH   5  22
ATOM     22  N1  <0> d           4.003  -1.771  -2.240  0.00  0.00    -0.399 N 
ATOM     23  H9  <0> d           4.455  -2.083  -3.039  0.00  0.00     0.156 HD
ATOM     24  H10 <0> d           4.475  -1.749  -1.392  0.00  0.00     0.156 HD
ENDBRANCH   5  22
TORSDOF 5
