REMARK  2 active torsions:
REMARK  status: ('A' for Active; 'I' for Inactive)
REMARK    1  A    between atoms: C1_1  and  C2_2 
REMARK    2  A    between atoms: C4_4  and  C6_8 
ROOT
ATOM      1  C2  <0> d           0.002  -0.004   0.002  0.00  0.00    -0.044 A 
ATOM      2  C3  <0> d           0.008  -0.826  -1.136  0.00  0.00    -0.049 A 
ATOM      3  C4  <0> d           0.029  -2.118  -0.704  0.00  0.00     0.042 A 
ATOM      4  N1  <0> d           0.035  -2.103   0.667  0.00  0.00    -0.365 N 
ATOM      5  H1  <0> d           0.049  -2.885   1.242  0.00  0.00     0.165 HD
ATOM      6  C5  <0> d           0.024  -0.807   1.088  0.00  0.00    -0.017 A 
ATOM      7  H5  <0> d          -0.002  -0.496  -2.165  0.00  0.00     0.087 H 
ATOM      8  H6  <0> d           0.029  -0.477   2.116  0.00  0.00     0.112 H 
ENDROOT
BRANCH   3   9
ATOM      9  C6  <0> d           0.041  -3.323  -1.561  0.00  0.00    -0.009 A 
ATOM     10  C11 <0> d           0.062  -4.593  -0.984  0.00  0.00    -0.071 A 
ATOM     11  C10 <0> d           0.067  -5.713  -1.790  0.00  0.00    -0.082 A 
ATOM     12  H11 <0> d           0.069  -4.700   0.090  0.00  0.00     0.084 H 
ATOM     13  C9  <0> d           0.065  -5.579  -3.167  0.00  0.00    -0.083 A 
ATOM     14  H10 <0> d           0.078  -6.697  -1.345  0.00  0.00     0.083 H 
ATOM     15  C8  <0> d           0.051  -4.322  -3.745  0.00  0.00    -0.082 A 
ATOM     16  H9  <0> d           0.074  -6.459  -3.793  0.00  0.00     0.083 H 
ATOM     17  C7  <0> d           0.038  -3.194  -2.951  0.00  0.00    -0.071 A 
ATOM     18  H8  <0> d           0.048  -4.224  -4.821  0.00  0.00     0.083 H 
ATOM     19  H7  <0> d           0.027  -2.214  -3.404  0.00  0.00     0.084 H 
ENDBRANCH   3   9
BRANCH   1  20
ATOM     20  C1  <0> d          -0.018   1.503   0.010  0.00  0.00    -0.050 C 
ATOM     21  H2  <0> d           1.004   1.880   0.003  0.00  0.00     0.033 H 
ATOM     22  H3  <0> d          -0.545   1.864  -0.873  0.00  0.00     0.033 H 
ATOM     23  H4  <0> d          -0.529   1.854   0.907  0.00  0.00     0.033 H 
ENDBRANCH   1  20
TORSDOF 2
