REMARK  2 active torsions:
REMARK  status: ('A' for Active; 'I' for Inactive)
REMARK    1  A    between atoms: C1_1  and  N1_2 
REMARK    2  A    between atoms: C6_8  and  N4_11 
ROOT
ATOM      1  N1  <0> d           0.002  -0.004   0.002  0.00  0.00    -0.192 N 
ATOM      2  N2  <0> d           0.007  -0.722  -1.067  0.00  0.00    -0.153 NA
ATOM      3  C2  <0> d           0.027  -2.000  -0.721  0.00  0.00     0.111 A 
ATOM      4  C3  <0> d           0.041  -3.224  -1.416  0.00  0.00    -0.051 A 
ATOM      5  C4  <0> d           0.060  -4.394  -0.723  0.00  0.00    -0.078 A 
ATOM      6  C5  <0> d           0.066  -4.407   0.672  0.00  0.00    -0.055 A 
ATOM      7  C6  <0> d           0.053  -3.244   1.387  0.00  0.00     0.059 A 
ATOM      8  C7  <0> d           0.033  -2.007   0.704  0.00  0.00     0.135 A 
ATOM      9  N3  <0> d           0.022  -0.733   1.064  0.00  0.00    -0.151 NA
ATOM     10  H4  <0> d           0.035  -3.235  -2.496  0.00  0.00     0.087 H 
ATOM     11  H5  <0> d           0.070  -5.329  -1.263  0.00  0.00     0.083 H 
ATOM     12  H6  <0> d           0.081  -5.352   1.194  0.00  0.00     0.087 H 
ENDROOT
BRANCH   1  13
ATOM     13  C1  <0> d          -0.018   1.461   0.010  0.00  0.00     0.020 C 
ATOM     14  H1  <0> d           1.005   1.838   0.002  0.00  0.00     0.062 H 
ATOM     15  H2  <0> d          -0.545   1.822  -0.873  0.00  0.00     0.062 H 
ATOM     16  H3  <0> d          -0.528   1.812   0.907  0.00  0.00     0.062 H 
ENDBRANCH   1  13
BRANCH   7  17
ATOM     17  N4  <0> d           0.059  -3.276   2.780  0.00  0.00    -0.397 N 
ATOM     18  H7  <0> d           0.072  -4.127   3.246  0.00  0.00     0.156 HD
ATOM     19  H8  <0> d           0.049  -2.447   3.284  0.00  0.00     0.156 HD
ENDBRANCH   7  17
TORSDOF 2
