REMARK  4 active torsions:
REMARK  status: ('A' for Active; 'I' for Inactive)
REMARK    1  A    between atoms: C1_1  and  C2_2 
REMARK    2  A    between atoms: C2_2  and  C4_4 
REMARK    3  A    between atoms: C7_7  and  O1_10 
REMARK    4  A    between atoms: O1_10  and  C10_11 
ROOT
ATOM      1  C4  <0> d           1.221  -0.684  -0.013  0.00  0.00    -0.031 A 
ATOM      2  C5  <0> d           0.002  -0.004   0.002  0.00  0.00    -0.070 A 
ATOM      3  C6  <0> d          -0.017   1.374   0.010  0.00  0.00    -0.050 A 
ATOM      4  C7  <0> d           1.175   2.087   0.002  0.00  0.00     0.068 A 
ATOM      5  C8  <0> d           2.390   1.414  -0.013  0.00  0.00    -0.050 A 
ATOM      6  C9  <0> d           2.417   0.036  -0.021  0.00  0.00    -0.070 A 
ATOM      7  H6  <0> d          -0.925  -0.557   0.008  0.00  0.00     0.084 H 
ATOM      8  H7  <0> d          -0.960   1.901   0.017  0.00  0.00     0.087 H 
ATOM      9  H8  <0> d           3.315   1.972  -0.019  0.00  0.00     0.087 H 
ATOM     10  H9  <0> d           3.362  -0.486  -0.032  0.00  0.00     0.084 H 
ENDROOT
BRANCH   1  11
ATOM     11  C2  <0> d           1.246  -2.161  -0.021  0.00  0.00    -0.061 C 
ATOM     12  C3  <0> d           0.761  -2.827  -1.060  0.00  0.00    -0.115 C 
ATOM     13  H4  <0> d           0.779  -3.907  -1.066  0.00  0.00     0.067 H 
ATOM     14  H5  <0> d           0.349  -2.289  -1.901  0.00  0.00     0.067 H 
BRANCH  11  15
ATOM     15  C1  <0> d           1.821  -2.911   1.153  0.00  0.00    -0.051 C 
ATOM     16  H1  <0> d           1.260  -2.662   2.054  0.00  0.00     0.033 H 
ATOM     17  H2  <0> d           1.753  -3.983   0.967  0.00  0.00     0.033 H 
ATOM     18  H3  <0> d           2.866  -2.631   1.286  0.00  0.00     0.033 H 
ENDBRANCH  11  15
ENDBRANCH   1  11
BRANCH   4  19
ATOM     19  O1  <0> d           1.153   3.445   0.009  0.00  0.00    -0.356 OA
BRANCH  19  20
ATOM     20  C10 <0> d           2.415   4.115   0.001  0.00  0.00     0.010 C 
ATOM     21  H10 <0> d           2.985   3.827   0.884  0.00  0.00     0.066 H 
ATOM     22  H11 <0> d           2.969   3.836  -0.896  0.00  0.00     0.066 H 
ATOM     23  H12 <0> d           2.254   5.193   0.008  0.00  0.00     0.066 H 
ENDBRANCH  19  20
ENDBRANCH   4  19
TORSDOF 4
