REMARK  0 active torsions:
REMARK  status: ('A' for Active; 'I' for Inactive)
ROOT
ATOM      1  C1  <0> d          -0.814   3.359   0.028  0.00  0.00     0.011 A 
ATOM      2  C2  <0> d           0.727   3.380   0.013  0.00  0.00     0.011 A 
ATOM      3  N1  <0> d           1.098   1.957   0.002  0.00  0.00    -0.342 N 
ATOM      4  C3  <0> d          -0.014   1.212   0.009  0.00  0.00     0.316 A 
ATOM      5  O1  <0> d           0.002  -0.004   0.002  0.00  0.00    -0.247 OA
ATOM      6  N2  <0> d          -1.147   1.927   0.018  0.00  0.00    -0.342 N 
ATOM      7  H1  <0> d          -1.195   3.837   0.930  0.00  0.00     0.066 H 
ATOM      8  H2  <0> d          -1.212   3.847  -0.862  0.00  0.00     0.066 H 
ATOM      9  H3  <0> d           1.111   3.869   0.908  0.00  0.00     0.066 H 
ATOM     10  H4  <0> d           1.094   3.878  -0.884  0.00  0.00     0.066 H 
ATOM     11  H5  <0> d           2.005   1.613  -0.008  0.00  0.00     0.164 HD
ATOM     12  H6  <0> d          -2.044   1.558   0.020  0.00  0.00     0.164 HD
ENDROOT
TORSDOF 0
