REMARK  3 active torsions:
REMARK  status: ('A' for Active; 'I' for Inactive)
REMARK    1  A    between atoms: C3_3  and  O3_10 
REMARK    2  A    between atoms: C4_4  and  C7_8 
REMARK    3  A    between atoms: C5_5  and  O1_7 
ROOT
ATOM      1  C1  <0> d           1.347   5.837   0.021  0.00  0.00    -0.078 A 
ATOM      2  C2  <0> d           1.308   5.158  -1.183  0.00  0.00    -0.050 A 
ATOM      3  C3  <0> d           1.254   3.773  -1.202  0.00  0.00     0.085 A 
ATOM      4  C4  <0> d           1.238   3.061   0.007  0.00  0.00     0.106 A 
ATOM      5  C5  <0> d           1.272   3.761   1.222  0.00  0.00     0.085 A 
ATOM      6  C6  <0> d           1.332   5.145   1.217  0.00  0.00    -0.050 A 
ATOM      7  H1  <0> d           1.389   6.916   0.026  0.00  0.00     0.083 H 
ATOM      8  H2  <0> d           1.321   5.708  -2.112  0.00  0.00     0.087 H 
ATOM      9  H3  <0> d           1.362   5.685   2.152  0.00  0.00     0.087 H 
ENDROOT
BRANCH   4  10
ATOM     10  C7  <0> d           1.181   1.591  -0.001  0.00  0.00     0.215 C 
ATOM     11  O2  <0> d           2.210   0.943  -0.014  0.00  0.00    -0.644 OA
ATOM     12  O4  <0> d          -0.011   0.963   0.007  0.00  0.00    -0.644 OA
ENDBRANCH   4  10
BRANCH   3  13
ATOM     13  O3  <0> d           1.218   3.110  -2.384  0.00  0.00    -0.360 OA
ATOM     14  H5  <0> d           0.324   2.951  -2.719  0.00  0.00     0.217 HD
ENDBRANCH   3  13
BRANCH   5  15
ATOM     15  O1  <0> d           1.251   3.084   2.398  0.00  0.00    -0.360 OA
ATOM     16  H4  <0> d           2.127   2.854   2.735  0.00  0.00     0.217 HD
ENDBRANCH   5  15
TORSDOF 3
