REMARK  3 active torsions:
REMARK  status: ('A' for Active; 'I' for Inactive)
REMARK    1  A    between atoms: C1_1  and  C2_2 
REMARK    2  A    between atoms: C2_2  and  C3_3 
REMARK    3  A    between atoms: C3_3  and  C4_4 
ROOT
ATOM      1  C4  <0> d          -1.413  -2.063   0.004  0.00  0.00    -0.052 C 
ATOM      2  H1  <0> d          -0.823  -2.398  -0.849  0.00  0.00     0.040 H 
ATOM      3  C5  <0> d          -0.739  -2.546   1.276  0.00  0.00    -0.054 C 
ATOM      4  C6  <0> d          -0.515  -4.059   1.231  0.00  0.00     0.009 C 
ATOM      5  C7  <0> d          -1.780  -4.747   1.701  0.00  0.00     0.217 C 
ATOM      6  O1  <0> d          -1.802  -5.301   2.780  0.00  0.00    -0.274 OA
ATOM      7  N1  <0> d          -2.870  -4.744   0.933  0.00  0.00    -0.361 N 
ATOM      8  C8  <0> d          -2.856  -4.080  -0.381  0.00  0.00    -0.004 C 
ATOM      9  C9  <0> d          -2.835  -2.566  -0.162  0.00  0.00    -0.047 C 
ATOM     10  H9  <0> d           0.222  -2.044   1.386  0.00  0.00     0.034 H 
ATOM     11  H10 <0> d          -1.370  -2.302   2.131  0.00  0.00     0.034 H 
ATOM     12  H11 <0> d          -0.290  -4.366   0.209  0.00  0.00     0.047 H 
ATOM     13  H12 <0> d           0.312  -4.327   1.888  0.00  0.00     0.047 H 
ATOM     14  H13 <0> d          -3.679  -5.182   1.242  0.00  0.00     0.162 HD
ATOM     15  H14 <0> d          -1.966  -4.383  -0.933  0.00  0.00     0.064 H 
ATOM     16  H15 <0> d          -3.749  -4.357  -0.941  0.00  0.00     0.064 H 
ATOM     17  H16 <0> d          -3.408  -2.324   0.734  0.00  0.00     0.035 H 
ATOM     18  H17 <0> d          -3.291  -2.075  -1.021  0.00  0.00     0.035 H 
ENDROOT
BRANCH   1  19
ATOM     19  C3  <0> d          -1.433  -0.534   0.013  0.00  0.00    -0.062 C 
ATOM     20  H7  <0> d          -1.944  -0.182   0.910  0.00  0.00     0.033 H 
ATOM     21  H8  <0> d          -1.960  -0.173  -0.870  0.00  0.00     0.033 H 
BRANCH  19  22
ATOM     22  C2  <0> d           0.002  -0.004   0.002  0.00  0.00    -0.068 C 
ATOM     23  H5  <0> d           0.512  -0.356  -0.895  0.00  0.00     0.032 H 
ATOM     24  H6  <0> d           0.529  -0.365   0.885  0.00  0.00     0.032 H 
BRANCH  22  25
ATOM     25  C1  <0> d          -0.019   1.526   0.010  0.00  0.00    -0.077 C 
ATOM     26  H2  <0> d           1.004   1.903   0.003  0.00  0.00     0.027 H 
ATOM     27  H3  <0> d          -0.546   1.887  -0.873  0.00  0.00     0.027 H 
ATOM     28  H4  <0> d          -0.529   1.877   0.907  0.00  0.00     0.027 H 
ENDBRANCH  22  25
ENDBRANCH  19  22
ENDBRANCH   1  19
TORSDOF 3
