REMARK  2 active torsions:
REMARK  status: ('A' for Active; 'I' for Inactive)
REMARK    1  A    between atoms: C1_1  and  C2_2 
REMARK    2  A    between atoms: C7_7  and  C8_8 
ROOT
ATOM      1  C8  <0> d           0.025   0.046   2.504  0.00  0.00     0.039 C 
ATOM      2  C9  <0> d          -1.359   0.375   2.883  0.00  0.00     0.063 C 
ATOM      3  N1  <0> d          -2.427   0.629   3.175  0.00  0.00    -0.197 NA
ATOM      4  H7  <0> d           0.475  -0.577   3.277  0.00  0.00     0.062 H 
ATOM      5  H8  <0> d           0.600   0.965   2.397  0.00  0.00     0.062 H 
ENDROOT
BRANCH   1   6
ATOM      6  C7  <0> d           0.023  -0.701   1.195  0.00  0.00    -0.039 A 
ATOM      7  C2  <0> d           0.002  -0.004   0.002  0.00  0.00    -0.052 A 
ATOM      8  C3  <0> d           0.006  -0.688  -1.199  0.00  0.00    -0.040 A 
ATOM      9  C4  <0> d           0.025  -2.072  -1.206  0.00  0.00     0.117 A 
ATOM     10  H4  <0> d          -0.007  -0.143  -2.131  0.00  0.00     0.089 H 
ATOM     11  C5  <0> d           0.041  -2.770  -0.010  0.00  0.00    -0.045 A 
ATOM     12  F1  <0> d           0.028  -2.742  -2.380  0.00  0.00    -0.206 F 
ATOM     13  C6  <0> d           0.037  -2.084   1.189  0.00  0.00    -0.073 A 
ATOM     14  H5  <0> d           0.055  -3.850  -0.015  0.00  0.00     0.088 H 
ATOM     15  H6  <0> d           0.049  -2.628   2.122  0.00  0.00     0.084 H 
BRANCH   7  16
ATOM     16  C1  <0> d          -0.018   1.503   0.010  0.00  0.00    -0.051 C 
ATOM     17  H1  <0> d           1.004   1.880   0.003  0.00  0.00     0.033 H 
ATOM     18  H2  <0> d          -0.545   1.864  -0.873  0.00  0.00     0.033 H 
ATOM     19  H3  <0> d          -0.529   1.854   0.907  0.00  0.00     0.033 H 
ENDBRANCH   7  16
ENDBRANCH   1   6
TORSDOF 2
