REMARK  6 active torsions:
REMARK  status: ('A' for Active; 'I' for Inactive)
REMARK    1  A    between atoms: C1_1  and  C2_2 
REMARK    2  A    between atoms: C2_2  and  C3_3 
REMARK    3  A    between atoms: C3_3  and  C4_4 
REMARK    4  A    between atoms: C3_3  and  C5_5 
REMARK    5  A    between atoms: C3_3  and  C7_8 
REMARK    6  A    between atoms: C5_5  and  C6_6 
ROOT
ATOM      1  C3  <0> d          -0.019   1.526   0.010  0.00  0.00     0.054 C 
ENDROOT
BRANCH   1   2
ATOM      2  C2  <0> d          -0.735   2.019   1.269  0.00  0.00    -0.052 C 
ATOM      3  H4  <0> d          -0.750   3.109   1.275  0.00  0.00     0.034 H 
ATOM      4  H5  <0> d          -1.757   1.642   1.277  0.00  0.00     0.034 H 
BRANCH   2   5
ATOM      5  C1  <0> d           0.005   1.512   2.509  0.00  0.00    -0.075 C 
ATOM      6  H1  <0> d          -0.505   1.864   3.406  0.00  0.00     0.027 H 
ATOM      7  H2  <0> d           0.020   0.422   2.503  0.00  0.00     0.027 H 
ATOM      8  H3  <0> d           1.028   1.890   2.501  0.00  0.00     0.027 H 
ENDBRANCH   2   5
ENDBRANCH   1   2
BRANCH   1   9
ATOM      9  C4  <0> d           0.002  -0.004   0.002  0.00  0.00    -0.059 C 
ATOM     10  H6  <0> d           0.529  -0.365   0.885  0.00  0.00     0.029 H 
ATOM     11  H7  <0> d          -1.020  -0.381   0.010  0.00  0.00     0.029 H 
ATOM     12  H8  <0> d           0.512  -0.356  -0.895  0.00  0.00     0.029 H 
ENDBRANCH   1   9
BRANCH   1  13
ATOM     13  C5  <0> d          -0.759   2.033  -1.229  0.00  0.00     0.032 C 
ATOM     14  H9  <0> d          -1.781   1.655  -1.221  0.00  0.00     0.051 H 
ATOM     15  H10 <0> d          -0.773   3.123  -1.223  0.00  0.00     0.051 H 
BRANCH  13  16
ATOM     16  C6  <0> d          -0.053   1.547  -2.469  0.00  0.00     0.173 C 
ATOM     17  O1  <0> d           0.939   0.865  -2.371  0.00  0.00    -0.648 OA
ATOM     18  O3  <0> d          -0.528   1.871  -3.682  0.00  0.00    -0.648 OA
ENDBRANCH  13  16
ENDBRANCH   1  13
BRANCH   1  19
ATOM     19  C7  <0> d           1.395   2.047  -0.000  0.00  0.00     0.182 C 
ATOM     20  O2  <0> d           2.324   1.275  -0.013  0.00  0.00    -0.647 OA
ATOM     21  O4  <0> d           1.623   3.370   0.005  0.00  0.00    -0.647 OA
ENDBRANCH   1  19
TORSDOF 6
