REMARK  3 active torsions:
REMARK  status: ('A' for Active; 'I' for Inactive)
REMARK    1  A    between atoms: C1_1  and  N1_2 
REMARK    2  A    between atoms: N1_2  and  C2_3 
REMARK       I    between atoms: N1_2  and  C3_4 
REMARK    3  A    between atoms: C3_4  and  C4_6 
ROOT
ATOM      1  C4  <0> d           0.201   0.684  -0.216  0.00  0.00     0.024 C 
ATOM      2  C5  <0> d          -0.848   1.369   0.662  0.00  0.00    -0.054 C 
ATOM      3  C6  <0> d          -2.177   0.620   0.547  0.00  0.00    -0.064 C 
ATOM      4  C7  <0> d          -2.645   0.632  -0.909  0.00  0.00    -0.065 C 
ATOM      5  C8  <0> d          -1.596  -0.053  -1.788  0.00  0.00    -0.064 C 
ATOM      6  C9  <0> d          -0.267   0.696  -1.672  0.00  0.00    -0.054 C 
ATOM      7  H7  <0> d           0.351  -0.353   0.120  0.00  0.00     0.054 H 
ATOM      8  H8  <0> d          -0.512   1.360   1.710  0.00  0.00     0.034 H 
ATOM      9  H9  <0> d          -0.983   2.408   0.330  0.00  0.00     0.034 H 
ATOM     10  H10 <0> d          -2.042  -0.420   0.880  0.00  0.00     0.033 H 
ATOM     11  H11 <0> d          -2.931   1.112   1.179  0.00  0.00     0.033 H 
ATOM     12  H12 <0> d          -3.600   0.094  -0.992  0.00  0.00     0.033 H 
ATOM     13  H13 <0> d          -2.780   1.672  -1.242  0.00  0.00     0.033 H 
ATOM     14  H14 <0> d          -1.461  -1.093  -1.454  0.00  0.00     0.033 H 
ATOM     15  H15 <0> d          -1.932  -0.044  -2.835  0.00  0.00     0.033 H 
ATOM     16  H16 <0> d          -0.401   1.736  -2.006  0.00  0.00     0.034 H 
ATOM     17  H17 <0> d           0.488   0.203  -2.304  0.00  0.00     0.034 H 
ENDROOT
BRANCH   1  18
ATOM     18  C3  <0> d           1.510   1.421  -0.102  0.00  0.00     0.223 C 
ATOM     19  N1  <0> d           2.214   1.372   1.046  0.00  0.00    -0.360 N 
ATOM     20  O1  <0> d           1.931   2.059  -1.044  0.00  0.00    -0.273 OA
BRANCH  19  21
ATOM     21  C1  <0> d           3.432   2.173   1.194  0.00  0.00    -0.017 C 
ATOM     22  H1  <0> d           3.609   2.744   0.271  0.00  0.00     0.056 H 
ATOM     23  H2  <0> d           4.287   1.508   1.383  0.00  0.00     0.056 H 
ATOM     24  H3  <0> d           3.314   2.868   2.038  0.00  0.00     0.056 H 
ENDBRANCH  19  21
BRANCH  19  25
ATOM     25  C2  <0> d           1.761   0.518   2.147  0.00  0.00    -0.017 C 
ATOM     26  H4  <0> d           0.837  -0.001   1.852  0.00  0.00     0.056 H 
ATOM     27  H5  <0> d           1.566   1.137   3.035  0.00  0.00     0.056 H 
ATOM     28  H6  <0> d           2.540  -0.223   2.380  0.00  0.00     0.056 H 
ENDBRANCH  19  25
ENDBRANCH   1  18
TORSDOF 3
