REMARK  2 active torsions:
REMARK  status: ('A' for Active; 'I' for Inactive)
REMARK    1  A    between atoms: C1_1  and  N1_2 
REMARK    2  A    between atoms: C3_4  and  N3_11 
ROOT
ATOM      1  N1  <0> d           1.158   2.996   0.007  0.00  0.00    -0.312 N 
ATOM      2  C2  <0> d          -0.019   3.705   0.022  0.00  0.00     0.014 A 
ATOM      3  C3  <0> d          -1.198   3.041   0.029  0.00  0.00     0.110 A 
ATOM      4  C4  <0> d          -1.190   1.620   0.017  0.00  0.00     0.277 A 
ATOM      5  O1  <0> d          -2.237   0.999   0.018  0.00  0.00    -0.266 OA
ATOM      6  N2  <0> d          -0.011   0.966   0.007  0.00  0.00    -0.273 N 
ATOM      7  H1  <0> d           0.003  -0.034   0.006  0.00  0.00     0.173 HD
ATOM      8  C5  <0> d           1.147   1.651  -0.000  0.00  0.00     0.328 A 
ATOM      9  O2  <0> d           2.201   1.044  -0.013  0.00  0.00    -0.246 OA
ATOM     10  H5  <0> d          -0.003   4.784   0.028  0.00  0.00     0.115 H 
ENDROOT
BRANCH   1  11
ATOM     11  C1  <0> d           2.436   3.712  -0.000  0.00  0.00    -0.010 C 
ATOM     12  H2  <0> d           3.255   2.993  -0.011  0.00  0.00     0.057 H 
ATOM     13  H3  <0> d           2.494   4.343  -0.887  0.00  0.00     0.057 H 
ATOM     14  H4  <0> d           2.510   4.333   0.892  0.00  0.00     0.057 H 
ENDBRANCH   1  11
BRANCH   3  15
ATOM     15  N3  <0> d          -2.415   3.747   0.043  0.00  0.00    -0.394 N 
ATOM     16  H6  <0> d          -2.413   4.717   0.048  0.00  0.00     0.156 HD
ATOM     17  H7  <0> d          -3.256   3.264   0.049  0.00  0.00     0.156 HD
ENDBRANCH   3  15
TORSDOF 2
