REMARK  6 active torsions:
REMARK  status: ('A' for Active; 'I' for Inactive)
REMARK    1  A    between atoms: C1_1  and  C2_2 
REMARK    2  A    between atoms: C2_2  and  C3_3 
REMARK    3  A    between atoms: C3_3  and  C4_4 
REMARK    4  A    between atoms: C3_3  and  C5_5 
REMARK    5  A    between atoms: C3_3  and  C7_7 
REMARK    6  A    between atoms: C5_5  and  C6_6 
ROOT
ATOM      1  C3  <0> d           0.002  -0.004   0.002  0.00  0.00     0.044 C 
ENDROOT
BRANCH   1   2
ATOM      2  C2  <0> d           0.718  -0.497  -1.257  0.00  0.00    -0.052 C 
ATOM      3  H4  <0> d           1.741  -0.120  -1.264  0.00  0.00     0.034 H 
ATOM      4  H5  <0> d           0.733  -1.587  -1.263  0.00  0.00     0.034 H 
BRANCH   2   5
ATOM      5  C1  <0> d          -0.022   0.009  -2.496  0.00  0.00    -0.075 C 
ATOM      6  H1  <0> d          -1.044  -0.368  -2.489  0.00  0.00     0.027 H 
ATOM      7  H2  <0> d          -0.037   1.099  -2.490  0.00  0.00     0.027 H 
ATOM      8  H3  <0> d           0.488  -0.342  -3.393  0.00  0.00     0.027 H 
ENDBRANCH   2   5
ENDBRANCH   1   2
BRANCH   1   9
ATOM      9  C4  <0> d          -1.433  -0.534   0.013  0.00  0.00    -0.059 C 
ATOM     10  H6  <0> d          -1.960  -0.173  -0.870  0.00  0.00     0.029 H 
ATOM     11  H7  <0> d          -1.419  -1.623   0.007  0.00  0.00     0.029 H 
ATOM     12  H8  <0> d          -1.944  -0.182   0.910  0.00  0.00     0.029 H 
ENDBRANCH   1   9
BRANCH   1  13
ATOM     13  C5  <0> d           0.742  -0.511   1.242  0.00  0.00    -0.052 C 
ATOM     14  H9  <0> d           0.757  -1.601   1.236  0.00  0.00     0.034 H 
ATOM     15  H10 <0> d           1.765  -0.134   1.234  0.00  0.00     0.034 H 
BRANCH  13  16
ATOM     16  C6  <0> d           0.026  -0.018   2.500  0.00  0.00    -0.075 C 
ATOM     17  H11 <0> d           0.011   1.072   2.506  0.00  0.00     0.027 H 
ATOM     18  H12 <0> d          -0.997  -0.395   2.508  0.00  0.00     0.027 H 
ATOM     19  H13 <0> d           0.553  -0.379   3.383  0.00  0.00     0.027 H 
ENDBRANCH  13  16
ENDBRANCH   1  13
BRANCH   1  20
ATOM     20  C7  <0> d          -0.018   1.503   0.010  0.00  0.00     0.181 C 
ATOM     21  O1  <0> d          -1.073   2.093   0.018  0.00  0.00    -0.647 OA
ATOM     22  O2  <0> d           1.135   2.190   0.003  0.00  0.00    -0.647 OA
ENDBRANCH   1  20
TORSDOF 6
