REMARK  2 active torsions:
REMARK  status: ('A' for Active; 'I' for Inactive)
REMARK    1  A    between atoms: C1_1  and  C2_2 
REMARK    2  A    between atoms: C2_2  and  C3_3 
ROOT
ATOM      1  C3  <0> d           0.000   1.080   2.488  0.00  0.00    -0.036 A 
ATOM      2  C4  <0> d          -0.412  -0.076   3.111  0.00  0.00    -0.055 A 
ATOM      3  C5  <0> d           0.267  -0.542   4.239  0.00  0.00     0.045 A 
ATOM      4  C6  <0> d           1.357   0.172   4.743  0.00  0.00    -0.061 A 
ATOM      5  C7  <0> d           1.766   1.331   4.123  0.00  0.00    -0.061 A 
ATOM      6  C8  <0> d           1.091   1.794   2.991  0.00  0.00     0.051 A 
ATOM      7  C9  <0> d           1.516   3.000   2.346  0.00  0.00     0.100 C 
ATOM      8  N1  <0> d           1.853   3.956   1.835  0.00  0.00    -0.191 NA
ATOM      9  C10 <0> d          -0.159  -1.748   4.884  0.00  0.00     0.099 C 
ATOM     10  N2  <0> d          -0.496  -2.705   5.395  0.00  0.00    -0.191 NA
ATOM     11  H6  <0> d          -1.258  -0.626   2.725  0.00  0.00     0.086 H 
ATOM     12  H7  <0> d           1.879  -0.186   5.618  0.00  0.00     0.085 H 
ATOM     13  H8  <0> d           2.609   1.883   4.512  0.00  0.00     0.085 H 
ENDROOT
BRANCH   1  14
ATOM     14  C2  <0> d          -0.729   1.579   1.267  0.00  0.00    -0.043 C 
ATOM     15  H4  <0> d          -0.744   2.669   1.273  0.00  0.00     0.039 H 
ATOM     16  H5  <0> d          -1.751   1.202   1.275  0.00  0.00     0.039 H 
BRANCH  14  17
ATOM     17  C1  <0> d          -0.013   1.086   0.008  0.00  0.00    -0.073 C 
ATOM     18  H1  <0> d           0.002  -0.004   0.002  0.00  0.00     0.028 H 
ATOM     19  H2  <0> d           1.010   1.463   0.000  0.00  0.00     0.028 H 
ATOM     20  H3  <0> d          -0.540   1.447  -0.875  0.00  0.00     0.028 H 
ENDBRANCH  14  17
ENDBRANCH   1  14
TORSDOF 2
