REMARK  1 active torsions:
REMARK  status: ('A' for Active; 'I' for Inactive)
REMARK    1  A    between atoms: C2_2  and  C3_3 
ROOT
ATOM      1  C3  <0> d          -1.293  -0.775   0.010  0.00  0.00    -0.038 C 
ATOM      2  C4  <0> d          -1.341  -1.765  -1.180  0.00  0.00    -0.059 C 
ATOM      3  C5  <0> d          -2.354  -2.833  -0.695  0.00  0.00    -0.064 C 
ATOM      4  C6  <0> d          -2.050  -2.987   0.809  0.00  0.00    -0.064 C 
ATOM      5  C7  <0> d          -1.375  -1.679   1.258  0.00  0.00    -0.059 C 
ATOM      6  H4  <0> d          -2.142  -0.093  -0.023  0.00  0.00     0.045 H 
ATOM      7  H5  <0> d          -1.704  -1.269  -2.080  0.00  0.00     0.033 H 
ATOM      8  H6  <0> d          -0.362  -2.212  -1.352  0.00  0.00     0.033 H 
ATOM      9  H7  <0> d          -3.376  -2.484  -0.844  0.00  0.00     0.033 H 
ATOM     10  H8  <0> d          -2.192  -3.776  -1.216  0.00  0.00     0.033 H 
ATOM     11  H9  <0> d          -2.975  -3.139   1.364  0.00  0.00     0.033 H 
ATOM     12  H10 <0> d          -1.376  -3.829   0.969  0.00  0.00     0.033 H 
ATOM     13  H11 <0> d          -0.373  -1.886   1.636  0.00  0.00     0.033 H 
ATOM     14  H12 <0> d          -1.973  -1.196   2.030  0.00  0.00     0.033 H 
ENDROOT
BRANCH   1  15
ATOM     15  C2  <0> d           0.002  -0.004   0.002  0.00  0.00    -0.107 C 
ATOM     16  C1  <0> d          -0.016   1.306   0.009  0.00  0.00    -0.124 C 
ATOM     17  H1  <0> d           0.912   1.859   0.003  0.00  0.00     0.066 H 
ATOM     18  H2  <0> d          -0.958   1.833   0.017  0.00  0.00     0.066 H 
ATOM     19  H3  <0> d           0.945  -0.531  -0.010  0.00  0.00     0.075 H 
ENDBRANCH   1  15
TORSDOF 1
