REMARK  2 active torsions:
REMARK  status: ('A' for Active; 'I' for Inactive)
REMARK    1  A    between atoms: C1_1  and  S1_2 
REMARK    2  A    between atoms: S1_2  and  C2_3 
ROOT
ATOM      1  C2  <0> d           0.002  -0.004   0.002  0.00  0.00     0.040 A 
ATOM      2  C3  <0> d           1.339  -0.267  -0.012  0.00  0.00    -0.060 A 
ATOM      3  C4  <0> d           2.227   0.794  -0.015  0.00  0.00    -0.075 A 
ATOM      4  C5  <0> d           1.741   2.058  -0.004  0.00  0.00    -0.044 A 
ATOM      5  S2  <0> d          -0.022   1.781   0.012  0.00  0.00    -0.095 SA
ATOM      6  H4  <0> d           1.700  -1.285  -0.021  0.00  0.00     0.086 H 
ATOM      7  H5  <0> d           3.292   0.617  -0.026  0.00  0.00     0.084 H 
ATOM      8  H6  <0> d           2.282   2.993  -0.004  0.00  0.00     0.095 H 
ENDROOT
BRANCH   1   9
ATOM      9  S1  <0> d          -1.351  -1.133   0.008  0.00  0.00    -0.127 SA
BRANCH   9  10
ATOM     10  C1  <0> d          -2.815  -0.062   0.028  0.00  0.00    -0.030 C 
ATOM     11  H1  <0> d          -2.813   0.572  -0.859  0.00  0.00     0.042 H 
ATOM     12  H2  <0> d          -3.715  -0.677   0.032  0.00  0.00     0.042 H 
ATOM     13  H3  <0> d          -2.797   0.562   0.921  0.00  0.00     0.042 H 
ENDBRANCH   9  10
ENDBRANCH   1   9
TORSDOF 2
