REMARK  2 active torsions:
REMARK  status: ('A' for Active; 'I' for Inactive)
REMARK    1  A    between atoms: C1_1  and  N3_7 
REMARK    2  A    between atoms: C2_3  and  O1_4 
ROOT
ATOM      1  C1  <0> d           1.047   3.229   0.009  0.00  0.00     0.186 A 
ATOM      2  N1  <0> d           1.105   1.902   0.002  0.00  0.00    -0.181 NA
ATOM      3  C2  <0> d          -0.015   1.216   0.009  0.00  0.00     0.275 A 
ATOM      4  N2  <0> d          -1.188   1.891   0.018  0.00  0.00    -0.165 NA
ATOM      5  S1  <0> d          -0.663   3.521   0.027  0.00  0.00     0.054 SA
ENDROOT
BRANCH   1   6
ATOM      6  N3  <0> d           2.077   4.138   0.005  0.00  0.00    -0.377 N 
ATOM      7  H1  <0> d           3.119   3.787  -0.007  0.00  0.00     0.158 HD
ATOM      8  H2  <0> d           1.859   5.216   0.013  0.00  0.00     0.158 HD
ENDBRANCH   1   6
BRANCH   3   9
ATOM      9  O1  <0> d           0.002  -0.004   0.002  0.00  0.00    -0.329 OA
ATOM     10  H3  <0> d          -0.943  -0.567   0.008  0.00  0.00     0.221 HD
ENDBRANCH   3   9
TORSDOF 2
