REMARK  1 active torsions:
REMARK  status: ('A' for Active; 'I' for Inactive)
REMARK    1  A    between atoms: C1_1  and  C2_2 
ROOT
ATOM      1  C2  <0> d           0.002  -0.004   0.002  0.00  0.00    -0.060 A 
ATOM      2  C3  <0> d           0.006  -0.687  -1.206  0.00  0.00    -0.075 A 
ATOM      3  C4  <0> d           0.024  -2.052  -1.235  0.00  0.00    -0.052 A 
ATOM      4  C5  <0> d           0.040  -2.774  -0.039  0.00  0.00     0.084 A 
ATOM      5  C6  <0> d           0.037  -2.083   1.185  0.00  0.00     0.062 A 
ATOM      6  C7  <0> d           0.023  -0.695   1.195  0.00  0.00    -0.049 A 
ATOM      7  N1  <0> d           0.055  -3.051   2.169  0.00  0.00    -0.349 N 
ATOM      8  H1  <0> d           0.057  -2.898   3.127  0.00  0.00     0.167 HD
ATOM      9  C8  <0> d           0.068  -4.261   1.546  0.00  0.00     0.065 A 
ATOM     10  N2  <0> d           0.059  -4.099   0.255  0.00  0.00    -0.242 NA
ATOM     11  H5  <0> d          -0.006  -0.133  -2.133  0.00  0.00     0.084 H 
ATOM     12  H6  <0> d           0.026  -2.573  -2.181  0.00  0.00     0.087 H 
ATOM     13  H7  <0> d           0.024  -0.159   2.132  0.00  0.00     0.087 H 
ATOM     14  H8  <0> d           0.084  -5.216   2.050  0.00  0.00     0.143 H 
ENDROOT
BRANCH   1  15
ATOM     15  C1  <0> d          -0.018   1.503   0.010  0.00  0.00    -0.051 C 
ATOM     16  H2  <0> d           1.004   1.880   0.003  0.00  0.00     0.033 H 
ATOM     17  H3  <0> d          -0.545   1.864  -0.873  0.00  0.00     0.033 H 
ATOM     18  H4  <0> d          -0.529   1.854   0.907  0.00  0.00     0.033 H 
ENDBRANCH   1  15
TORSDOF 1
