REMARK  2 active torsions:
REMARK  status: ('A' for Active; 'I' for Inactive)
REMARK    1  A    between atoms: C1_1  and  C2_2 
REMARK    2  A    between atoms: C2_2  and  C3_3 
ROOT
ATOM      1  C3  <0> d           0.742  -0.511   1.242  0.00  0.00     0.012 C 
ATOM      2  H1  <0> d           0.283  -0.086   2.134  0.00  0.00     0.072 H 
ATOM      3  C4  <0> d           0.644  -2.036   1.300  0.00  0.00    -0.046 C 
ATOM      4  C5  <0> d           1.570  -2.545   2.411  0.00  0.00    -0.055 C 
ATOM      5  C6  <0> d           3.019  -2.282   1.992  0.00  0.00     0.009 C 
ATOM      6  C7  <0> d           3.167  -0.862   1.527  0.00  0.00     0.217 C 
ATOM      7  O1  <0> d           4.282  -0.390   1.467  0.00  0.00    -0.274 OA
ATOM      8  N1  <0> d           2.138  -0.096   1.173  0.00  0.00    -0.356 N 
ATOM      9  H7  <0> d          -0.383  -2.328   1.518  0.00  0.00     0.036 H 
ATOM     10  H8  <0> d           0.953  -2.459   0.344  0.00  0.00     0.036 H 
ATOM     11  H9  <0> d           1.355  -2.015   3.340  0.00  0.00     0.033 H 
ATOM     12  H10 <0> d           1.418  -3.615   2.555  0.00  0.00     0.033 H 
ATOM     13  H11 <0> d           3.679  -2.455   2.842  0.00  0.00     0.047 H 
ATOM     14  H12 <0> d           3.289  -2.958   1.181  0.00  0.00     0.047 H 
ATOM     15  H13 <0> d           2.330   0.799   0.851  0.00  0.00     0.162 HD
ENDROOT
BRANCH   1  16
ATOM     16  C2  <0> d           0.002  -0.004   0.002  0.00  0.00    -0.050 C 
ATOM     17  H5  <0> d          -1.020  -0.381   0.010  0.00  0.00     0.035 H 
ATOM     18  H6  <0> d           0.512  -0.356  -0.895  0.00  0.00     0.035 H 
BRANCH  16  19
ATOM     19  C1  <0> d          -0.019   1.526   0.010  0.00  0.00    -0.075 C 
ATOM     20  H2  <0> d           1.004   1.903   0.003  0.00  0.00     0.027 H 
ATOM     21  H3  <0> d          -0.546   1.887  -0.873  0.00  0.00     0.027 H 
ATOM     22  H4  <0> d          -0.529   1.877   0.907  0.00  0.00     0.027 H 
ENDBRANCH  16  19
ENDBRANCH   1  16
TORSDOF 2
