REMARK  4 active torsions:
REMARK  status: ('A' for Active; 'I' for Inactive)
REMARK    1  A    between atoms: C1_1  and  C2_2 
REMARK    2  A    between atoms: C5_5  and  C8_9 
REMARK    3  A    between atoms: C8_9  and  O2_11 
REMARK    4  A    between atoms: O2_11  and  C9_12 
ROOT
ATOM      1  C2  <0> d           2.206   1.344  -1.082  0.00  0.00    -0.087 C 
ATOM      2  C3  <0> d           1.828   0.252  -1.664  0.00  0.00    -0.100 C 
ATOM      3  C4  <0> d           0.553  -0.473  -1.346  0.00  0.00    -0.038 C 
ATOM      4  C5  <0> d           0.002  -0.004   0.002  0.00  0.00     0.034 C 
ATOM      5  H1  <0> d           0.643  -0.366   0.806  0.00  0.00     0.056 H 
ATOM      6  C6  <0> d          -0.019   1.530   0.011  0.00  0.00    -0.050 C 
ATOM      7  C7  <0> d           1.426   2.033  -0.001  0.00  0.00    -0.044 C 
ATOM      8  H5  <0> d           2.470  -0.165  -2.426  0.00  0.00     0.077 H 
ATOM      9  H6  <0> d           0.747  -1.545  -1.304  0.00  0.00     0.040 H 
ATOM     10  H7  <0> d          -0.180  -0.270  -2.127  0.00  0.00     0.040 H 
ATOM     11  H8  <0> d          -0.540   1.894  -0.875  0.00  0.00     0.034 H 
ATOM     12  H9  <0> d          -0.523   1.884   0.909  0.00  0.00     0.034 H 
ATOM     13  H10 <0> d           1.433   3.108  -0.180  0.00  0.00     0.039 H 
ATOM     14  H11 <0> d           1.888   1.827   0.965  0.00  0.00     0.039 H 
ENDROOT
BRANCH   4  15
ATOM     15  C8  <0> d          -1.397  -0.531   0.189  0.00  0.00     0.262 C 
ATOM     16  O1  <0> d          -2.321   0.239   0.316  0.00  0.00    -0.265 OA
BRANCH  15  17
ATOM     17  O2  <0> d          -1.619  -1.854   0.213  0.00  0.00    -0.326 OA
BRANCH  17  18
ATOM     18  C9  <0> d          -2.992  -2.290   0.397  0.00  0.00     0.013 C 
ATOM     19  H12 <0> d          -3.369  -1.912   1.347  0.00  0.00     0.067 H 
ATOM     20  H13 <0> d          -3.607  -1.905  -0.417  0.00  0.00     0.067 H 
ATOM     21  H14 <0> d          -3.030  -3.379   0.398  0.00  0.00     0.067 H 
ENDBRANCH  17  18
ENDBRANCH  15  17
ENDBRANCH   4  15
BRANCH   1  22
ATOM     22  C1  <0> d           3.509   1.962  -1.517  0.00  0.00    -0.055 C 
ATOM     23  H2  <0> d           3.956   1.353  -2.303  0.00  0.00     0.033 H 
ATOM     24  H3  <0> d           3.326   2.967  -1.897  0.00  0.00     0.033 H 
ATOM     25  H4  <0> d           4.189   2.014  -0.666  0.00  0.00     0.033 H 
ENDBRANCH   1  22
TORSDOF 4
