REMARK  0 active torsions:
REMARK  status: ('A' for Active; 'I' for Inactive)
ROOT
ATOM      1  C1  <0> d          -4.317   0.904   1.510  0.00  0.00     0.064 A 
ATOM      2  N1  <0> d          -3.151   1.239   2.108  0.00  0.00    -0.352 N 
ATOM      3  H1  <0> d          -3.014   1.430   3.080  0.00  0.00     0.166 HD
ATOM      4  C2  <0> d          -2.198   1.267   1.135  0.00  0.00     0.035 A 
ATOM      5  C3  <0> d          -2.808   0.950  -0.027  0.00  0.00     0.058 A 
ATOM      6  N2  <0> d          -4.101   0.733   0.232  0.00  0.00    -0.246 NA
ATOM      7  C4  <0> d          -2.100   0.870  -1.357  0.00  0.00    -0.023 C 
ATOM      8  C5  <0> d          -0.753   1.593  -1.232  0.00  0.00    -0.060 C 
ATOM      9  C6  <0> d          -0.013   1.086   0.008  0.00  0.00    -0.060 C 
ATOM     10  C7  <0> d          -0.731   1.581   1.270  0.00  0.00    -0.025 C 
ATOM     11  H2  <0> d          -5.270   0.796   2.006  0.00  0.00     0.143 H 
ATOM     12  H3  <0> d          -2.706   1.352  -2.124  0.00  0.00     0.042 H 
ATOM     13  H4  <0> d          -1.933  -0.174  -1.622  0.00  0.00     0.042 H 
ATOM     14  H5  <0> d          -0.924   2.666  -1.140  0.00  0.00     0.033 H 
ATOM     15  H6  <0> d          -0.152   1.396  -2.120  0.00  0.00     0.033 H 
ATOM     16  H7  <0> d           0.002  -0.004   0.002  0.00  0.00     0.033 H 
ATOM     17  H8  <0> d           1.010   1.463   0.000  0.00  0.00     0.033 H 
ATOM     18  H9  <0> d          -0.326   1.074   2.146  0.00  0.00     0.042 H 
ATOM     19  H10 <0> d          -0.594   2.657   1.372  0.00  0.00     0.042 H 
ENDROOT
TORSDOF 0
